# total energy = -340888.1751493718 ev
CRYSTAL
PRIMVEC
9.08219264694879 0.00000000000000 0.00000000000000

0.00000000000000 9.08219264694879 0.00000000000000

0.00000000000000 0.00000000000000 13.29270698091153

PRIMCOORD
 96 1
Ni 6.547407249970041 2.251085049584584 11.261860889708853 -1.5213873036634766 -0.9234883192500354 -0.5485916535378811
Ni 4.988675918456489 0.6899950726126554 5.676331418215552 -0.20188430577574906 -1.3411190334956065 0.7258339923952338
Ni 2.8763758563554216 1.5010866540999082 4.892872408184263 -0.4938333268500786 0.9149149757587276 0.11614058645002578
Ni 3.5599743406109905 4.6184403308139546 4.777266084829841 -0.16717389887775724 -0.4810762842947263 -0.17190987090084586
Ni 3.5935330428393524 2.7569995147885518 2.778946633580117 0.31875200019978656 -0.3897936374286448 -0.2780956601310049
Ni 5.191099830571705 4.624861441091479 2.6783477255334467 0.020747774070312655 -0.5071238733113976 -0.32134341507604663
Ni 5.216139435996223 4.875393728227976 11.196646204634224 -0.4982044593345807 -0.5264433995756159 0.52331642391086
Ni 5.868467930597598 8.114158157685932 11.913961421272086 -0.7551060018864738 0.4820579314817053 0.6253038587889553
Ni 2.0394608762089264 6.254415711705643 0.07213622417293244 0.5052017165880203 2.4656506506773344 2.7253477536964934
Ni 2.746164458832277 1.6852735231638254 0.44643972595026576 0.9584774337307107 0.7178270629303574 -0.11799846559437098
Ni 8.205243468822125 -0.1175181249292728 6.686949692329294 -0.2746964046414689 -0.148390447622667 -0.17357080354303656
Ni 8.641070652538605 2.3513615397884657 1.1857983326228918 1.9701036835702586 1.3968430665307878 -1.223523459766609
Ni 7.21200578698292 0.8115220774238223 4.560342451981856 -2.4271116140618716 -1.2107232226781472 1.282925712984326
Ni 0.9240495374344253 7.27199367012726 2.396901470698736 0.1687831523464061 0.6371815840631478 -0.49489262135252826
Ni 7.370689858791835 3.794785352089221 3.7871717499030138 1.1968739754998807 0.47155317529563945 0.36347839657288367
Ni 8.049374876767148 3.718249713745945 12.04605101625689 -0.18620726136012447 1.7899097182837498 1.2347476106172024
Ni 8.54335534069153 7.281275671122492 9.130866950260929 -0.8532820334382788 -0.5784503887705263 -0.8700664519854693
Ni 7.109731214373021 0.7057535852612156 -0.08210847181751732 0.2072568829415721 -0.011470205423128632 1.1713660610367633
Ni 1.9979825018985264 6.789048070399753 9.305054325101995 -1.3605048942213858 -1.7651044863146117 -1.6874628272707324
Ni 0.13675602562213227 5.256437125248522 1.2574940704472246 -0.3555488573131619 -1.6202387640157516 -0.05342649525025637
Ni 6.579322075309813 2.188726714131288 6.811343037173822 0.06856437933295934 -0.17217238053361317 0.35332999528497216
Ni 3.398220487651012 4.3921393339468136 0.4063563764469772 0.6865035702267274 -0.5913105325626462 -0.30758647050127025
Ni 5.936166595390617 5.723725024667043 4.905367688976085 -0.0789950877479801 0.012435911770507615 -2.013277390744255
Ni 5.454601488961815 2.925810231518878 8.998524870317548 0.717152662571152 1.2711037806487335 1.2585035753862197
P 0.3321730260271509 5.665780634892497 12.261392531127015 -1.1196524347125554 -0.4485451444362404 -0.08514362384787917
P 4.437341407286612 6.422944880460577 12.546255506876019 -0.934422706774352 -0.6986209223155517 -0.5647160699035694
P 2.4450716046307486 8.631425363833186 1.4548201477692666 0.9848060443229104 -1.0876506849949783 -0.29543055186502665
P 6.374300656066772 7.855615376539849 5.708792083339878 0.5249663008094572 0.4177759815741837 -0.95742019611079
P 4.996441193261698 1.1031412963629947 12.73533041208048 -0.6402926188883037 0.5809713554201671 -1.002352794957422
P 4.10472426203376 6.5075273415844554 8.135256091454938 -0.9244221439182144 0.4216776306214351 0.7242239675956367
P 5.181972226853301 1.1740278108128899 3.5232187065329983 -0.6402375972806523 0.642628466110332 0.4119835432621228
P 0.14947018725934025 5.548329718189607 3.5453111404086384 0.4102557619377386 -0.973876027673968 -0.23218192831802595
Ni 0.7093664815390078 9.248306060113235 4.40980238241602 0.10614079492483657 -1.4158152367579167 1.682329105588593
Ni 1.9562589083837516 6.482633051244012 4.45978259736403 0.06517566536638453 0.8358854352283862 0.8940327329930796
Ni 6.052863690094871 6.191821239240726 9.177723799120622 -0.23072976925253166 -1.697401169430367 -0.909873299569762
Ni 8.739303649372694 2.2731547779783376 10.038971790095323 0.6717559796039076 1.1715645502008145 -0.08024361544310052
Ni 2.6458425576646225 5.314290693095521 6.827121530646442 -1.7619787962014364 0.5113247987666226 0.5131708508364258
Ni 0.588955678217385 0.185266741782443 9.138204453787393 1.2655370851942334 0.03128081239115258 -0.0038849368767029865
Ni 1.8264652917273196 1.188940771315994 11.542137358116765 -0.6041663054793918 0.4570051022781355 -1.7813623429343708
Ni 4.491271467863611 6.666029769538277 1.3991899007086006 0.19041410035262044 0.7571585135401283 -0.48804963028876597
Ni 5.656316990042171 8.268591763285677 7.751761410609919 -0.7134482171363713 0.12012579635001892 -0.2245205551180262
Ni 5.201344543998929 3.07752826148499 4.861900314452421 0.7826700275476715 -0.9648439993786867 -0.5359446541978319
Ni 0.8129970255271743 7.22545651445253 6.610316874523543 -0.042870831221597135 0.9523049863714116 0.1995533436497273
Ni 5.021617031577535 4.925917966521989 7.1953290646468675 1.9272590776009064 -0.5602127827165772 -1.2885546291353294
Ni 0.6564636169625576 7.632257010125208 11.231699835789998 1.8461083769625046 -0.6323250273017949 0.5030705291776304
Ni 4.732567164968649 0.7019254410151387 10.25915229726512 0.2695122893373681 -0.8852015078546948 -0.2591224614626118
Ni 8.279499476783988 7.068979415482991 4.6508256137384185 -0.37083072317289684 1.2837086138969374 0.8461441368419169
Ni 7.066318333005884 6.158525920602249 6.864327641485064 1.9891396171557874 0.8082525040024662 1.4597029392798022
Ni 2.6099678962838295 5.107144040747896 2.5526647093177606 -1.079908064935082 -0.054522556527912554 -0.8556410205887586
Ni 2.3436598403325384 5.359683492483167 11.419286169601975 1.2948018955966216 -0.9983783836907064 -2.744924647387156
Ni 1.2508631615170684 3.166261284697735 3.5993065927734706 -0.7875085865868953 1.8244136655978904 1.464411657609381
Ni 1.5146826966535907 1.189458456303008 2.5127739023008697 0.18914243272904846 0.7070536264639371 -0.003488986989864959
Ni 1.2560490935799629 3.4616596040421093 8.149133681984015 -0.8304220981209698 0.4067433779091059 -0.9734538525348848
Ni 3.8525844267796927 3.0146159122736607 6.9921631373835975 -1.0533346853219279 -2.048510760025253 -1.138194202270485
Ni 4.140190224740594 7.044984262225257 5.689956523786049 -0.05887414862838893 1.267523519496643 0.7597866951915948
Ni 0.638753341091027 0.18431129510465583 0.6418558181360089 -1.1160055819885877 0.10381008990913089 -1.8345373842954533
P 0.41728407076934926 5.6599861959150415 7.984676968460258 0.019479448880850323 -0.48699573510295474 0.5389003943920461
P 8.853058113624448 1.772026628356061 7.794365068602618 -1.3320150143118092 0.1016933006764442 0.4639653356460525
P 1.9089588485176332 3.4560740554980116 10.233270772572245 0.704620334432096 0.0544096850991321 0.9299065640715535
P 4.0646354632148185 6.412754660189881 3.561275818832729 -0.4811521318379842 -0.39251283613202076 0.16789149377007215
P 6.933981702378156 4.212983999668961 10.043597350865257 0.31481281304638037 -0.034238095247263615 1.9675158682384246
P 6.557279593494324 8.072280166894327 9.78303378183127 0.008605996501456147 0.8644282798630853 1.5146191317017077
P 2.4333101650135016 8.436348945656466 5.741705041663385 -0.1521080056835703 0.8288185010792758 -0.7723411348178376
P 7.076699279324427 4.191849737128935 1.412057551403362 0.443225789105856 -1.3096741847227638 1.1774675459488109
Ni 5.5218006331533305 3.22128120840529 0.23330518391951294 -0.06491264151298498 -0.3390048369115516 -0.5907220070490279
Ni 1.5963316095177238 1.0274775485241634 7.038382416311914 0.25300015061495784 0.7472245422558679 -1.2783512062397662
Ni 7.160455260907636 0.7646924751423938 8.775672382039339 -0.5430954063100002 0.8971226847723132 0.686046942305283
Ni 2.74250433515216 1.751500872730595 9.155471518652499 0.6215065965300522 -0.7959405194043324 -0.03838091377104357
Ni 6.739195914369584 2.129047625540607 2.1748064372962648 -2.503733573591985 -1.1770433139271985 1.1703373626619327
Ni 3.9288657637258386 7.053330797366763 10.405704375992396 1.9564220723181078 0.018385958706355433 0.9652348070592021
Ni 8.583008194258248 7.3634241045881295 13.35651243484912 -0.6300688842777665 0.21883173226336505 0.24629085691558225
Ni 7.788979328299121 4.071356285853245 8.149984683445123 0.6628805314911488 -0.24047039357906327 -1.272880412933182
Ni 2.8915249538701464 8.623196897197491 12.647545569791317 1.8732443139473482 -1.9964947719692776 -0.2428635764015882
Ni -0.0062403746417069835 5.036684389357469 10.185284098933879 0.62470916262775 -0.8200281564811555 -0.9945628665993582
Ni 8.712020742337783 2.3984981201850006 5.648669783742772 1.191760051312083 0.8697304088022891 0.009940656152479655
Ni 3.853737865259531 2.6516460788348315 11.533709991459745 0.013702951408389303 0.7440150341796348 0.0466323551465584
Ni 1.3197334291754355 3.4099910094610135 12.45319300237714 0.1352693368596767 0.33139488577477766 0.18164252480757748
Ni 3.091605660254668 8.468345510731032 7.914890307552949 0.7282487724843135 0.25608881684261053 -0.07676928374125488
Ni 5.631177480497352 7.893279229893304 3.306135227092532 0.6012501602738612 0.8912217459068458 0.6136385066358852
Ni 3.293085024323403 8.833803864984631 3.403504507395656 -0.06118531326006881 -1.4287841382137587 1.4584135310444173
Ni 3.5100041160750104 4.287921172087422 8.870329719585929 -0.7399871439671644 1.3032119740371877 2.410379131798539
Ni 7.355904048987295 6.4242073052534705 11.244978909816545 0.7925350932672093 -0.5817514281193013 -0.34445814671663905
Ni 8.044079958391197 8.680024177263217 2.661638307303477 0.025625670987904255 0.20286621007304417 -0.9322652941117171
Ni 4.568960544686725 0.45183273200796575 1.5586632150678916 0.8757773863273175 -0.08806208304625479 -1.4036060962862342
Ni 6.712294459430367 5.741843999212532 0.14421159765440889 -1.338062763167786 1.2137018456904969 -0.6600510324621536
Ni 8.121977925647668 0.05605620190085821 11.04016456456831 -1.0934683201180202 0.5251586193259213 0.25152819405512167
Ni 9.254481951186385 4.956098093045628 5.881331948415257 -0.18866857841642345 -0.984311106964363 -0.4279891746617597
Ni 7.213313622739587 6.182094210800517 2.6008911528448513 0.4313087259532959 -0.4929450107078543 -0.4739589565236547
P 8.593806921443505 1.7180148280442702 3.443037476018014 1.1973010357349703 1.158737316529159 -1.5578208639001623
P 1.588393773050176 3.293866092900301 1.3591129087402403 1.3522907338417098 0.5244873042905096 0.7821462938337176
P 4.770240100514858 1.3135757024877959 7.992891811806821 -0.4336815970608466 -2.3506341505294226 -0.6905548574779656
P 8.983169607027293 1.6767362619744723 12.278034741130602 -1.442703062287696 -0.13251748514615241 0.5896616841053135
P 6.676937483036588 7.910880519451779 1.1018479921147353 -0.42777551598905683 -0.4614106875449989 0.4255170589721832
P 1.9886096789757475 3.3010501073692144 5.857431249962169 -0.5310078790178469 0.16661776926397112 -0.3031068374633618
P 6.950384142493019 4.14533982803247 5.990398184767069 0.30147161585278404 -0.35681229740661774 -0.26255539840356074
P 2.5159944478516625 8.640008035986313 10.210327337235498 -0.4184845776054341 1.8236081389774592 0.4076455780084012
