# total energy = -381172.4083928705 ev
CRYSTAL
PRIMVEC
9.18610949965424 0.00000000000000 0.00000000000000

0.00000000000000 9.18610949965424 0.00000000000000

0.00000000000000 0.00000000000000 13.44479979892256

PRIMCOORD
 96 1
Ni 5.662547486737352 7.336734297059541 4.886579372133094 0.131762866368315 0.6583232511377695 0.03189659159828055
Ni 4.109957206539576 8.716846187167718 6.201978795963834 1.4301270253948983 -0.40811274745280685 -1.2423593615261896
Ni 0.47945428234461174 0.5970649596004773 12.217652269969573 -1.1133928269560889 0.6816804378064711 0.608277756544604
Ni 3.9921177951596576 8.350844030353707 3.7195714409348852 0.66570231721066 1.0447214897316202 -0.07585474234678549
Ni 4.872064400670559 4.619363717192995 2.4410110716299407 1.1546454058479727 0.976941296862853 -4.350650048278081
Ni 6.667765066132565 2.519446666739657 1.3718939966391657 -1.366195002627628 -1.9387130850741192 0.746294831352747
Ni 8.95778865061361 2.5442216037907674 0.9638323193274864 0.06997308675502786 0.332235379398202 -2.0658281682577777
Ni 1.908588763875464 8.214797750143497 2.687575434028476 -1.51575195975457 0.09655032302292405 0.44180705438145845
Ni 4.192200443995487 5.588727911601007 4.728294439677042 -0.16489230193243215 0.9001820404239272 0.2303860127598677
Ni 1.5855132962864584 8.632692238956661 9.370971583915647 -0.6563535290059084 0.5140715082738243 0.6313837464344481
Ni 7.284750103966388 8.120438034389322 6.427864307492604 0.6030159939250324 -0.08867529115022148 0.6724676609589515
Ni 3.528770437036557 8.993614477272613 1.4181304410808986 1.0221420617692074 0.9816358741250449 -1.3825330776660187
Ni 6.246095086356106 5.733574484616174 12.041633553317313 -0.2469014939163877 -0.05514630615484051 0.15765387520246396
Ni 5.724434305763428 9.079026922471435 11.2648598169187 -1.264728987470641 -1.284709030136994 -0.14523827514693052
Ni 5.388975962703569 1.789518413835979 9.654845329641244 -0.004580420281830822 -1.5460848064101567 -0.6038256343105213
Ni 2.244708506812106 7.389526867779872 11.890285052069009 1.624976535811053 0.1434986667480045 -1.109986115267385
Ni 5.870006581421176 3.779900295806766 4.059482291220802 2.205747602294956 -0.7365524072540024 2.2466319992141437
Ni 3.657881204649963 8.235539985168119 8.462587539535956 2.2428817881430922 0.6221989946113865 0.8189290098797057
Ni 2.859534808936989 5.857072539386336 2.7299665730754765 -1.3993570912018933 0.41715737415357834 0.8130666375616578
Ni 0.4356062263468125 1.6251881027839539 3.582770062532014 -1.0881080842473712 1.8022597552086703 0.8565149385532798
Ni 2.104675455122405 1.4057778797710625 10.825470750721072 0.15878438926248137 -0.503260019480617 1.266144122650613
Ni 8.843945196822581 0.09975655502652271 7.72470962755774 0.44202071305416135 0.3113842469808057 0.30067123143867575
Ni 3.115799702861654 1.4090848791549704 8.861292245813056 -0.6469178375143052 0.023387268575688756 -1.3416931608315215
Ni 6.475720263021512 3.270732623997741 6.4127393783659254 0.12723155415686474 -0.4383196100534903 -0.1647048685119744
P 3.0536464866629847 4.632867298010618 0.8631709325250889 -0.8601378800178476 -1.1712269643557378 0.6144689729569804
Ni 3.7208336123664103 2.5931468224538055 1.6313382030270827 -0.2701969741092185 -0.22328308316649934 -0.7502188489975015
P 6.616699483979388 5.591097927826142 0.8066157313946234 -0.9803760335760149 0.2491283263643774 0.7882390369950167
Ni 8.37949550557151 7.792080553895465 9.597032550133953 -2.0151008171062395 1.4002176394299757 0.036014470421396036
P 1.7560626034021103 4.990987772959648 4.689425254973903 0.37653805797031925 0.431926819153269 -0.487540037642199
P 3.664008339619592 0.6706870333847278 12.209572168141559 -1.4262423456285114 -1.4814899532479067 -0.7240380768370757
P 7.266635096230093 2.056962802900133 3.967560568901321 0.3640905762355859 -0.7227278426660844 0.24384625202983168
Ni 5.79550723418925 3.4311772107736744 12.841786856749218 0.24635282050176927 -0.10774053531178865 0.4642538134207488
Ni 0.853647692910374 8.163640306896319 0.4479394968269091 -0.36925258005249956 0.7818125646433826 0.1826282857596145
Ni 0.20593603774534663 3.0182707793645696 11.857452978463384 -0.32182266870531023 -1.0892992763419949 -0.3270900877518367
Ni 4.0011844851372045 2.657027027219627 11.393150264962708 0.4072028340440278 0.5626512169547407 0.8579534707720192
Ni 2.0759413049200046 8.752433174982327 6.960762455713989 -2.104550010308008 1.411821285107175 0.10819304946817494
Ni 2.3483186347318212 2.2634297977687847 13.049132962287425 -0.3309989358879396 0.7813358821172802 0.26076436794140895
Ni 6.439168733719931 8.886091066748607 8.723685245615828 -0.4758785421438707 0.6967990386154644 -0.6695258047218082
Ni 0.07175545635422229 4.6952317947254825 6.455063458814307 1.663907922768928 0.17026127955382933 0.9527559578659011
Ni 1.3169573879849352 4.998685732636634 12.556784138178394 0.5009192871625824 0.26329021968705624 0.7230623431873676
Ni 7.284134634636605 8.753002713765111 4.078883354273062 1.1116761013752985 0.15428650139212782 -1.0180424377785369
Ni 6.73335388724674 5.494331451409235 5.826438701760069 -0.04167578247223145 -0.39176053134702854 -0.14749673216380402
Ni 0.807169653791428 6.379357975418195 9.31805316349654 1.3082014568319793 -0.7132507564135846 -1.0954853505480489
Ni 0.39015151981499796 5.956604034732565 1.1296213845521907 -0.15891551552370697 -0.09544500577388723 -0.7119106974459224
Ni 1.185210206973803 2.5442675343377665 7.527057623269083 0.2685149584211053 0.5759224801423501 0.19233599996568165
Ni 7.8877446971844005 4.189242516768769 2.039939104960527 -0.03459419303510171 0.9002303771633593 0.81002810784565
Ni 3.2087998744246655 6.399383693909638 9.696766139886977 -0.14437592714663522 -1.0850788105027442 0.36967398386063427
Ni 5.946159428345055 9.117819862466554 2.1141546014120007 -1.0784831595630975 0.595015235107743 -0.7689354515703983
Ni 6.2743699310885175 6.688130670671799 9.828282749552175 -0.17715260735702396 0.059456760604736314 -0.5796202407089114
Ni 2.829395183996428 6.3124647267692575 7.189714290560395 0.08592112544385201 -0.20105049702054406 -0.09232008699166036
Ni 2.726097383796304 6.701689368145821 0.4594487732938487 0.7580326886149655 0.10956164768092745 1.3672152163620261
Ni 8.537560890012909 1.9966008780344136 6.008749903351154 -1.035339534296088 -0.36566332003934443 -0.42313056101787766
Ni 4.367498969670806 2.303766004143062 5.646681238582113 -0.1375877005802082 -0.8462816908610457 -0.1503470571284056
Ni 6.643036059628455 3.3746918240746466 10.627966642793751 0.5132780658382515 0.4213547000643776 0.7627205810089381
Ni 6.290877369679858 4.493220062915706 8.513449190060461 0.353389644878314 0.7597213891712981 0.7412259014702718
Ni 6.208643318333348 0.8279725171380887 5.739544537115068 0.2646318213166152 0.5812366932664119 -0.09643076672592425
P 0.3891419663919661 7.891703910335691 11.264926875517318 -0.7169063508883008 0.13212539191405634 -0.0025232806424859773
Ni 5.275665303257722 1.148502513812425 13.306399142136662 0.5050993866822011 0.3415574281300763 1.7100214292975389
P 8.912648109023266 4.045443160225172 8.509603884665728 -0.41072601670593784 -0.061687963928100206 1.3456873695925793
Ni 2.3102146529416823 7.310838654661662 4.938342179989713 -0.5393647356229743 -1.2204695034316335 0.06975454298631857
P 4.629909370783901 7.007669486141903 11.13408268906018 -0.021089987901079806 0.6257610009310319 1.479343339218549
P 4.774535477173474 5.0683991168712925 6.683746140655301 -0.524195998302336 -1.263779221962862 1.0855233542393306
P 1.4537385569471273 1.6354306147646687 5.739517897397809 1.4420679998068584 -0.7849788781865062 -1.9400567435862073
Ni 8.363245278043362 0.5567930559919986 2.035663889645886 -0.4366123975543964 -1.120071267417529 -0.5281534402881871
Ni 5.044873490698548 1.636395156251642 3.2988163976546394 0.4883458213729461 -0.2545227579070713 0.7335249332815883
Ni 4.089435438140548 4.941254176669433 12.502614569659041 -1.3753357885866313 0.7843389306096621 -1.1101226408452494
Ni 0.4416984541007229 1.9828768305911957 9.464023197691297 -0.07878142907527723 -0.21527923902541635 1.5716647117617901
Ni 5.642925957059497 6.859883358118817 7.461809606813639 -1.1598914847382604 0.34840993227553546 0.5422441140532984
Ni 8.004922708687538 4.416837563256832 13.098340194509035 0.5296930168611652 0.30186293775393175 -0.3084645022308494
Ni 8.57885245176476 6.706677425549882 5.1540504009145085 0.9103877773123353 0.5217027995668371 -0.30186525174677686
Ni 8.298997628901551 4.0660200452806 4.615075641325194 -1.7209177644950682 -2.296788565463877 -0.9110061276226246
Ni 0.5156953211484827 8.986394195284413 5.048347677273531 -0.5282382866925096 -1.0342031066987996 0.020326370262177897
Ni 7.927171478728104 6.058707640710722 7.918449267853046 0.5964208572060179 0.5128245232406007 0.35734477287132005
Ni 3.575399128349659 3.624958188561279 3.8195328462010223 -2.931764143014641 -1.4667737300836545 0.8940980390133764
Ni 1.487910883914176 1.4272090730006657 1.551516424008945 1.9085815557960613 -1.8886015131297087 0.7350567965450824
Ni 7.579789565667374 1.06175808275064 10.510108859195032 1.073021365117578 -0.24295690744634282 0.5268725166932345
Ni 8.159791327057828 6.985237006987727 12.660510929687485 0.8526886228286541 -0.5221293455812942 -0.25416871700176225
Ni 8.130285543665849 5.173460650076168 10.627051706297536 0.6934787159929799 0.6487142672930957 -0.6723514470960614
Ni 7.241207945411602 9.02852169299164 13.26266315667354 1.0136895601264801 1.3353165678812164 -0.18561205097828676
Ni 1.5008632981678152 3.865845535350773 2.4080439622161385 -0.020111940258526653 -1.298629496872828 -0.7576624497597403
Ni 5.269630029382091 7.686155526407013 0.022652027168829355 -0.43151981352283747 -0.2802610432134399 -1.414512715896409
Ni 2.729183916554618 1.408809295872978 3.8809355572617323 0.04022850850274362 -0.8611748059227944 0.21768244915027027
Ni 7.367076016406897 7.496875742225283 1.590345189830724 1.313963556126737 -0.7199811331588827 -0.45381024948992166
Ni 1.2183077591410816 4.437864567672848 10.316315939465209 0.06126090369301063 -1.522410088501036 0.06456322859336622
Ni 4.511004370713612 3.1582579005072726 7.940780699803824 0.1333502654600929 0.038377314226617776 -1.8131496626482966
Ni 2.6582671519885923 4.215202461932447 8.619259391181416 -0.6924255921381172 0.6331760624481805 0.15416411688165063
Ni 7.60939639626275 2.1503396049485333 8.443952598007636 -1.232675301469206 0.8954416975254643 -1.1623466311469723
Ni 6.999815362605122 5.966525032884289 3.2629859779409367 -1.1430165633597926 -0.10866176157447738 1.1401292145096689
P 4.910168382460698 1.073580605548111 7.532811802197083 0.26903277859778824 -0.999505555316614 0.28578917212052074
Ni 0.09081938919151154 5.446839265812557 3.2954680607784326 2.386709813206058 1.5934517257298944 0.5149595673057326
P 7.525435356349088 1.8939185471640723 12.556864975941108 0.059275240721549535 0.720959695022068 0.25332976604023466
Ni 2.6818203364895368 3.835301721596623 6.255448382946925 0.2241415745120527 0.7723833009096827 -0.7249482473561708
P 9.08820384576178 7.581828881954118 3.056365575045309 -0.7828410059078968 0.938715420612435 -0.0020432556822739005
P 4.416534421646642 4.021798114630231 9.917663594011687 0.7243257832808235 1.1818129674017002 -0.42079137136173983
P 0.4733161240437026 7.27966099935893 7.00525170214789 -0.10564225802186322 -0.14304923791541171 0.2117357446485321
Ni 4.836036479604762 6.836008659788883 2.0970656820956566 0.9544863102934464 1.0605967662009799 0.2770731324037615
