# total energy = -381171.29206571175 ev
CRYSTAL
PRIMVEC
9.18748535974253 0.00000000000000 0.00000000000000
0.00000000000000 9.18748535974253 0.00000000000000
0.00000000000000 0.00000000000000 13.44681350923590
PRIMCOORD
 96 1
Ni 5.250372201809919 7.839653610316898 8.106465532269619 0.10200851792401786 1.002578280704667 2.582621703448455
Ni 7.644685985604125 7.3200278189543315 7.395115298491231 0.5896015202913395 0.6867131151343722 0.9017031050541437
Ni 3.1558736245211496 5.96447868116645 1.3428474394152599 3.6698278447068473 -0.76722721063004 0.6374222393190442
Ni 5.062506503203501 1.702698268355344 0.9650755017260715 -1.191447662277987 -0.10073736452107812 -3.6875008365065782
Ni 0.1922830415196588 5.891383048434024 11.062249509045275 0.5905847101402152 -0.9082948993390485 -1.0576765072303913
Ni 1.154398335494802 8.213372948257685 11.359383807351703 0.4138887307046356 0.2491743491109644 0.3102617033405882
Ni 2.7615651321116124 0.7704064702842646 11.581955231529607 0.2061158273585934 0.7288352411154029 0.5888265897985278
Ni 3.235271872142269 8.126734962251303 5.460011321735161 -0.26570859932056173 0.6624557852489042 0.09459936994414031
Ni 4.5301009198435995 5.950063516792747 9.321532507933513 0.6974991500062826 0.5717835182733121 0.281240890628206
Ni 0.21046874984426472 8.176815944406211 9.219740683738484 0.34419512286323944 -1.887210289209137 -0.1262177681803697
Ni 0.049147533652443655 3.291030720188159 8.82885452958848 0.8518224181736168 -1.5251241449980895 0.3946185696211139
Ni 2.0319685526059006 0.5432771346686346 9.222335229576046 -0.6141437284070778 1.3776891193101561 -0.3265537556323924
Ni 1.5697645441213726 5.168208521125392 0.009426359877258607 -1.578286845063998 -1.1282365768371407 -0.6261160702776055
Ni 5.637101018879553 7.570542979552004 6.0307608748297 0.18009600625606403 -0.49172322248561123 -3.4218025215986616
Ni 8.459257616284072 2.1051836226467135 3.081673656060413 -0.0013937950237330834 0.027290203174520744 -1.9527438521355724
Ni 2.5674978809543676 1.393346452149521 5.2512229629450395 1.6634394677729418 -1.3349545565561074 0.9650874828480606
Ni 2.867533587106058 6.345382632580939 11.722690049498256 -0.9773801841724845 1.2738474048321415 0.47039746442464153
Ni 3.941192302131709 2.7662139996534187 3.979504115667935 -0.9256218206532703 -0.9822225998664504 1.9864165617976692
Ni 7.8200658917415415 7.775350400978756 11.1615404997524 -1.1547971009344886 1.1013034998917226 -0.34966463061824293
Ni 0.9895932248922045 6.231990689496021 2.1038615435177297 -0.7607220625216705 0.5585893881805412 0.2846247194987743
Ni 1.1996467004026952 8.808841430445563 6.395775070486178 -0.9420285441460678 0.3625294023960531 1.006187852432796
Ni 7.89148940215656 8.246695957297469 5.2816124079411475 -0.21136036358698437 0.688622159231627 -1.577761054467515
Ni 3.052790039898497 4.473386573330619 8.451255316622188 -1.5206707372124262 -0.10926031439042475 -1.6444210176889098
Ni 2.645113756434953 7.704000390445823 7.763961594249857 -0.7377942500809035 -0.8759396229367947 0.8027295173017078
P 4.931823712858348 0.6664482370648137 12.2140634049363 -0.10009047496569858 -1.0267494786342317 0.7710224160064141
Ni 6.8825381458205115 6.02969145154538 12.697005405150799 0.23678600274894057 -0.5134960953863286 -1.8854467695508108
P 3.308679879373552 2.827172964356743 1.7437020150728928 -0.11514222709249848 -0.20826192716731878 -0.8139557250348304
Ni 6.640273346986756 8.619009609993402 13.289458554676186 0.12380761607698033 -0.3528191170868246 -0.6956551548190083
P 2.465865919002872 2.5527335921407666 10.246606617583955 -0.43354789969645974 -0.45935611900881534 -0.8532072143362855
P 4.679268930532849 8.125807026239993 3.8478860393232655 0.25362801400694385 0.21384662034394783 -0.6577714923993575
P 2.0818933475113814 6.332060778953234 9.65770351236322 -1.2575167859929182 -0.8884632093251021 -0.849273426499518
Ni 6.945261107693849 1.4409835632251409 11.851980935826445 -0.072058765639463 0.4213122768622163 0.040867941858955426
Ni 5.174042574265801 2.5193646456746817 6.356362596215745 0.5365722604795017 -0.5228520826799318 -0.9744334428393348
Ni 6.126205984206785 0.03132197475004877 2.1488140714002353 1.3344431641373278 -2.7111956305658276 0.830980284617285
Ni 0.5183579183966185 8.75605932762407 1.231175393571105 -0.6411621659774506 0.6770102860243115 1.1044081069589755
Ni 4.903085258963548 2.5200628945544787 10.923343919391987 -0.06923800836121624 1.1693256335679667 1.2597166218577145
Ni 7.393821700566556 5.635842333398868 5.746817967860277 0.4360920062745522 -0.6617312483780539 -1.5384658564123184
Ni 7.705755200130575 1.5849790197127374 0.6367873596498609 0.07829420502621355 0.7728576694429399 1.671698108237308
Ni 2.10190369040872 5.203773276568732 5.441078670858877 0.325543054979691 0.42293078630224584 0.6480257258665034
Ni 0.2345482299634724 5.144091372316616 4.215885248940875 -1.210884687956676 0.35289882128482447 -0.5270429808328279
Ni 2.5935444016678453 8.138871630280406 2.438027838663599 -0.32673604684652763 0.3156147401223855 0.3263454962763283
Ni 2.028624307971084 7.461634529274202 0.22842201479178037 0.3142070611415814 0.9264324894800238 -1.6592177163821102
Ni 3.379230578688824 8.023430877982399 9.918544487645152 -1.3462005617835717 -1.5616728906564008 0.7873427504329924
Ni 2.253506384691999 2.38530086075367 7.518073251229367 -1.194891140741897 0.05383041555689439 -0.5081952519987053
Ni 8.932661169301133 7.109211782167221 12.900294135263994 1.393784225099806 0.6370265465425222 2.6885259568824535
Ni 8.57605811640063 3.779317999327207 13.106743360306796 -1.4953201742627797 0.4948345144210832 0.32255183356185096
Ni 3.9128213476473284 6.180981771329803 6.702133603994135 -0.5666233142286113 -1.0086630534461662 -0.027145450066540348
Ni 4.55677218955479 0.6275024870456137 9.965365750029642 1.416467782740251 -1.3427449991348037 -1.2584313273873875
Ni 5.598917830136974 4.6670587626216635 11.225157403941582 1.5439191662174054 0.02841171837347365 -0.746038749477883
Ni 0.3573996078725866 3.9827013605385844 6.645791350634204 -0.07886730392086418 0.16922358231793436 -0.5645376353441762
Ni 6.543345377488629 0.3809526450863685 6.798332087162579 0.09544937664926142 0.9989777078376021 1.1928391433088747
Ni 0.8775582733802604 7.665808014217982 4.235262574103766 0.5563412155763129 -1.6230582357424177 -0.6517520256781549
Ni 6.201635238195375 6.461154134348322 1.2590658425763623 -1.2743940213642309 0.09229334751878299 0.3552122999093495
Ni 3.251221346554473 6.455595705765728 3.803391048206732 -0.9715892885223203 -1.2634115542107982 -0.02474763925832512
Ni 7.152723712360883 6.289118472845722 9.405252548621165 -0.6510632271412464 0.8952905166595807 1.4293199561125707
Ni 9.102942021118979 1.1464970981707838 10.816374947252676 0.6485044652751347 0.2788114552511069 -0.4532196670937743
P 3.539809446071598 3.8772933421450286 6.260459950072688 -0.9437257293428328 -0.18066833381976627 1.146992003067773
Ni 4.499221781883105 2.373320379973997 8.41744996460623 0.465867694875088 1.7151474376701943 2.1015546751251097
P 8.962254059325158 0.4023769419652957 12.869326797445 -0.1215383604268294 -0.36183649009408647 -1.8111699132141066
Ni 9.180511959173263 5.593203214304952 8.661656997824052 1.5880873760941876 0.3830735450959919 -0.8440975387255333
P 0.3272839499372397 1.7460356363290563 6.173633620618466 -0.4988870872239021 0.7551497106402156 1.7742136477047312
P 6.507063998194971 4.355309012762854 9.35426200542547 -1.1443625358647258 -1.5169122986112586 -2.968664101364784
P 7.194692145030783 8.59192490344549 9.330152206604902 -0.6244592514004729 1.4775425385643843 -1.4527113384533175
Ni 4.411674234835935 8.247311518809921 0.7315039014457888 0.46281759519485455 -1.0609960585219274 -0.5273178317607693
Ni 6.764662709928476 1.641050242257483 9.379515646160966 0.33560095343632523 -0.5067060690476886 -0.5852686972439404
Ni 1.620157900775138 1.6229325213238048 2.492742988383897 0.7863793580784586 -0.6968612593119676 0.3734951573789374
Ni 3.360001172038627 3.3886018136545197 12.97310863094745 0.22318769523921564 -0.08709123449255324 0.5686056347659627
Ni 1.2024305084366225 2.4258544206934554 0.3943332986197402 0.0325859043558213 -0.5142666550037659 -2.014519747791789
Ni 4.735404465474418 4.270830085792685 2.702620982925913 1.2221453484721598 0.7292286198990796 -2.6638042857660578
Ni 5.152148796890063 4.56698867316445 5.0810937046339895 1.1534603844009361 0.7645602053208381 -0.23645510177208312
Ni 6.075757502641457 2.1602350343275454 2.813261274175315 0.046790735101293605 0.7651572154748887 2.4351110873275803
Ni 7.268090964776804 3.8489867000574716 1.9147316469394695 0.33327847595073573 1.7441520524326608 -0.14058329287342242
Ni 7.825394633192623 3.4385082335894794 10.59271388732288 0.6369874657744707 0.02994795251234197 2.172096232789098
Ni 0.5232805729991868 0.6968101196051417 4.355611281027924 -1.016316970446998 -1.8330242900850369 -0.4926871290607772
Ni 5.892347734386376 5.31677015778745 7.402941198436114 0.02605710209836803 0.009722883714718739 1.210948965535708
Ni 8.721597070411988 0.7591361821152264 8.028810150602412 -0.21190672300875765 1.4180484969638094 -0.8042066160678666
Ni 7.233656270020504 3.3951341156747255 7.255927653040448 0.3396221587805764 -0.8678751007611054 0.4540038535579665
Ni 1.1124299028249018 3.6988356284453494 11.632636156472026 0.646103569143126 -1.1365934334422683 -1.376718527866771
Ni 7.225378345800806 1.8379104889339162 4.901780636056559 0.05277600615045104 0.3881936399313766 2.1454359498890923
Ni 3.3913948091737076 4.430196205121074 10.690727817578795 -0.8959631172465731 -1.0222011971419172 0.4312776156050443
Ni 0.5803789563960551 3.7940087882587235 2.0813246421737572 -3.4065515089768623 0.48425648179492087 -1.3966762019356203
Ni 5.449979506579235 6.224236451936171 3.375015360451313 2.026072999847027 1.2191561839368488 0.9110678340984955
Ni 2.7089116540837677 0.5127599836274044 0.6131360163437918 -0.16364557400952465 1.3970837217866843 -0.7150579848256523
Ni 5.100478379785089 0.7408889176393751 4.876984532087034 -0.2220993472710433 -0.47963955184819973 0.08311888010836653
Ni 3.9849890443684455 0.7964355347757474 2.7412543584462563 -1.039890129781248 -0.5984692550946145 0.7411479970444849
Ni 5.167886959141275 7.377991663462738 11.227215400639931 1.1706124707001904 0.3470829859339958 0.9941311783785782
Ni 3.814285568228616 0.5403472456190657 7.375886810589561 0.19699509600424783 -1.0284368936389838 -0.8761203714890331
Ni 2.3217877751479308 4.3007077878597855 3.003923643295024 2.7045321025027227 1.4429956538274504 1.3203365495326165
P 8.23236348029111 9.069214762727736 2.803351652573355 -0.16413228383795606 -0.258493055408729 0.9975977967709401
Ni 5.980271968329226 3.5154534226460497 13.340529947742175 0.3711621383703866 0.7163643623419017 -0.7785215525969367
P 7.557763187554667 3.9986324599802674 4.175733182106973 -0.8219539127489586 -0.27940949384642205 0.058995504697601626
Ni 7.883891351846137 6.831327102978562 2.846999557548872 0.1772135425019464 0.4193335558692907 0.45178473441946065
P 0.09475053549139181 6.714590915258827 6.03884310561335 1.0490813093622127 -0.6137410936520203 0.25543575663964396
P 4.593218943583138 5.620986169732662 12.726467832884126 -0.3245482951665894 0.5533929315812663 2.6918300815550222
P 8.339994870117703 5.625258350378787 0.8809585616751662 0.15257363246607916 -0.6010185038790294 1.0524864783890198
Ni 1.1213417635275733 2.8466320581384523 4.464758605922497 -0.5162487184308012 2.9277156839768805 0.03631297549842133
