# total energy = -381164.2052316751 ev
CRYSTAL
PRIMVEC
9.28846633831782 0.00000000000000 0.00000000000000
0.00000000000000 9.28846633831782 0.00000000000000
0.00000000000000 0.00000000000000 13.59460937870274
PRIMCOORD
 96 1
Ni 0.5795659129755956 5.689361924503517 9.318519791135362 -0.3241538879416482 1.4787959513555113 2.296008749875059
Ni 7.455145759221691 2.368280183783134 0.9134732629177313 -0.4248470294883522 1.6824754013584702 1.095337769226591
Ni 2.311156117695884 7.093675815180806 2.9542040517565713 -0.7568687502138514 0.16517229506669617 1.6735701284490405
Ni 7.522041291572972 7.985916573599537 4.257736228310301 1.0283813578106997 0.28818878270094883 0.10518588721073499
Ni 8.88939637591511 4.4753872797221526 7.725272928319157 -0.36138577570991304 -0.2931047319453275 -2.5327865250938832
Ni 4.04500620620138 6.378120257593241 6.939082301956454 0.9103160435341354 0.217689905349438 -0.26468915691711187
Ni 8.493614838357754 4.018116097043235 1.8667977604924937 1.127385284580439 1.0632884541005299 -0.8578830225453999
Ni 1.6255372861244508 3.9422757719046335 0.7902394687053755 0.3767010659107448 -0.7662697318127771 0.4458305737185548
Ni 3.761020645786486 8.237383214441836 1.7924222264468934 2.4904785083542915 2.474790151084757 -1.7039238010402333
Ni 2.3561122932832483 6.021220238839336 11.412524576891832 0.2542887875193943 -0.3021681276991764 0.32328691195566256
Ni 0.7036886133870651 4.586375160319967 12.28505428154735 -0.6965244447978391 -0.0059482471636349175 -0.7205035813212559
Ni 5.569875097487844 3.0542798424618156 5.663011475221741 -0.8779322278867911 0.16642467941655856 0.29159292328649133
Ni 6.223309394263777 4.932872097119771 7.821250647811769 -0.4593337504113122 0.6056475180106086 -0.8455291289657374
Ni 1.529736047486418 8.610612356477267 1.3524145867321646 -1.6630710286899293 0.4979180384424134 -1.6890378850673362
Ni 7.106215244321909 7.185770955872689 7.985459581070839 -1.140339530748262 -1.3676564176645025 -2.8244959193535806
Ni 6.198546343826604 2.158453736155331 10.32435756025986 1.0482472434966916 -0.49623859385746144 -0.21999207112005334
Ni 6.663434068650489 3.338971326295024 3.394260920341261 1.0041276274696578 -2.8033730213320363 -0.6332421397994256
Ni 9.371876455400661 6.867631705863841 11.426268720077084 -0.6111219108616185 -1.7058408155572877 0.17375900829444269
Ni 8.681984929455224 7.845279909432536 9.242430535107143 2.292871489797658 0.599959980707528 1.3011874874079914
Ni 6.563926732066308 7.40527598510422 0.09244160047482014 -0.1234576889367293 0.6972844628923153 -0.7974880663971103
Ni 6.583859780167648 0.8605596584820826 6.619174528015408 0.29640499996315406 0.058394380778492974 -1.34433316955753
Ni 7.269812996516177 8.468127287570207 11.372406763259727 -0.3274857805283586 0.6417370646443141 -0.11529597906154337
Ni 3.755642623954857 6.00822567486274 1.675739587325812 0.5233339074123567 -2.1885407514983664 -0.9859692113930763
Ni 7.743348283214408 4.4643990244081335 9.671558594560409 -1.714668698261563 1.1034750536217448 1.9154862533356944
P 8.632347366988514 0.6759690442124013 10.137050998522875 -0.9438491422945745 0.5534009020010663 0.3503390309774483
Ni 4.039089453339985 1.1173188672685297 5.525257022063987 -0.8311530627497234 -0.3623185719368276 0.3668444848316392
P 5.64519526852874 0.20936852625250224 1.6396325333256545 -1.063528338025478 -0.39676801186394894 -0.5741713017791983
Ni 0.2144873998818817 0.17496497692232868 3.515456825106537 -2.334763244935437 0.40663076359064165 0.6402036587189233
P 3.1734415731664236 8.146820670644976 5.190313079312854 0.19369225688325997 0.5972790914412552 0.3561091006920061
P 8.723950218980784 8.076460540464337 13.127376036978651 -0.43761872733172374 -1.6345965753993204 0.23302910680966962
P 3.0994217873697893 7.421112819686132 13.064541421975882 -0.6749703727761471 -0.19136669407387688 1.0849921643262088
Ni 2.6696351756749648 1.378278320393945 1.3784529435553174 1.7388164991523603 1.8701343075634567 -0.09378638712454171
Ni 2.171912723433449 1.496306858242838 10.962026543642315 1.4650114959769092 -0.536308979515786 -3.496094804554334
Ni 2.9946107366822226 5.8628147391560885 4.788945458284785 -0.2805515778706652 -1.2840978789155564 0.7883781336760423
Ni 4.7624566108591555 7.318066577544349 3.7904622965631947 -0.9545112499941109 -0.053733484967713914 1.3165768253798682
Ni 4.820955369918912 8.918720063173232 13.036387152590992 1.1461885333298711 0.8014807324962714 1.1934281830431253
Ni 0.9695393727241141 4.013258229309311 5.4344585512299535 1.486553483813743 0.6873918863689515 1.1134501625565856
Ni 8.903013267115746 2.1187362554091385 6.482290404124707 -0.961763303570834 -1.574370283618411 -0.7452990430983809
Ni 5.106362065636465 3.4002566251639146 0.5886184519688693 -1.1380232239102595 -2.2249560569026072 0.6190432225912241
Ni 2.2442977392087244 7.843784466401634 10.059969734322605 0.562863847186179 0.6096826073119306 -1.2285093430169747
Ni 8.880999602623586 8.832170136701526 6.811769013463525 -1.6524477446481285 -1.0061261459569253 -0.7886792098562289
Ni 4.655518501450616 7.138854913952901 11.532769342735588 -0.7668166054551826 0.5829593323844735 1.370100251219305
Ni 2.181507708842901 2.2673795772943857 4.024915254177523 0.35850279773516325 2.9605990649684624 0.40773428106746545
Ni 0.7922569235271887 9.011836935128466 11.47908386677281 -0.7996290239995132 0.9905964257524423 0.5834972071658144
Ni 1.2330067116777501 4.731070884142275 3.152494224574559 0.5741743871029918 0.31859490579663197 -0.3759521035598622
Ni 1.9190992550167358 8.403358813939898 7.481969920271019 0.33236264900468565 -1.6343623479013272 -0.5470513056339547
Ni 7.675635365852448 5.370498174144293 3.603101861723234 0.015303720236605903 1.1570807547623427 -1.1297208746921512
Ni 1.0161488952648983 2.1947066190721665 12.538974006268289 0.35743270459943605 1.5773494208513932 1.9103155077680327
Ni 8.497515994090541 7.803166004450487 1.832702588234531 0.9019159923958983 0.39606404381838883 -1.0364260824920475
Ni 1.8303944044259646 3.839359568287278 9.869699223075308 0.749755793318154 0.28775812292143343 -0.22627250481212643
Ni 4.866153045623069 1.53060916329328 7.921089582633237 -0.8214533189634562 0.5229757527419897 0.8289054043661273
Ni 0.49897453746241993 0.8809738491237995 8.331795827408317 -0.03751110957158056 -2.876387980237182 1.5973734293818038
Ni 7.519208309433686 0.6763229347681614 2.4140760366996514 -0.14627905770661903 0.3216712307291105 0.9772629418683298
Ni 1.1974411752471676 6.345406280234005 0.6177972391569163 1.6199993943114357 0.13547039712688924 0.01608225027384327
Ni 5.749783396031576 0.33105950625720076 4.250598971012505 0.15486859914784296 0.8739454753249013 -1.7688194732723537
Ni 4.234360874698077 5.319838880414234 12.826418591432924 0.26637117260522514 0.19601242037600436 1.9257364703087931
P 3.5161859696899267 3.7898427558789636 2.042195579931841 -0.7945138142601349 0.42776805978988913 0.5397995091675478
Ni 5.758505265634167 8.085275294727232 5.939892287969946 -0.5617765276592712 -1.462086351910314 0.8926649061112756
P 6.5777386810535825 3.9332473829230388 12.821374954378392 0.931379291962338 0.924225454526376 -0.9953169711565631
Ni 1.593891482358717 0.7755451154452081 5.799256552649547 -0.345081896343567 0.17385491044235865 -0.33137097451537767
P 0.706323751199903 1.8008292170510511 1.6903670636305603 -2.300742922125934 0.3788173409227992 0.511771399385738
P 2.992855216602468 0.4145210177737845 8.730009085372446 0.36855298288231364 1.3669012846660331 1.7522877941659174
P 6.020876565596209 5.896383255390125 5.611514361855735 0.37514837671164425 -0.5467054922587617 -0.07606917235043674
Ni 2.2776711976561215 0.2648578223183941 3.3292249388892756 3.868003334172442 -2.458126317275831 1.2805564414212012
Ni 3.978742289540169 3.8232719451225434 7.797568774820541 1.0916325524608619 0.30847375820223005 2.405384506797425
Ni 8.36371564092195 6.172055638707769 5.583618311826493 -0.16140922847983813 0.18706523848504555 1.3638738106936188
Ni 0.9577987516616286 7.737292203362555 5.215734681991584 0.6251691329833039 -0.6246340864154404 -0.7127149385147726
Ni 4.448060612660577 2.124039969512524 12.376314389143097 0.127909811170812 -1.4948206089185418 -0.5510316304379413
Ni 8.211254759498187 2.7898372145749826 11.849061116850981 0.12120334568491384 1.31314183155639 -1.2534909526629767
Ni 5.8048918649902195 6.896342354363954 9.836175291478217 0.6229507851757464 -0.623469633793694 -2.6077488375333866
Ni 2.920330873836736 3.6712197562041218 11.893528719125145 -0.9566324101021717 0.11758606064730072 0.4309580274820965
Ni 6.434556977194238 7.203251848941991 2.358596957946393 -1.1756616030883238 0.5252108127200955 -0.10964520853366923
Ni 3.927321341595613 2.573898956299145 9.913270488377533 -0.30603763795691163 -0.5917573902920776 -0.6665554092395746
Ni 5.151968433845961 4.86577221851582 3.5627388325879257 -1.7851979146303771 1.4098402501214042 0.8752590519300023
Ni 1.9079809611782907 5.330892154990466 7.540779842942796 1.6248670068163822 -0.523982082519317 -0.9323851075190329
Ni 1.4459447954257534 2.5485693094341153 7.560152796542499 4.204790594607385 3.384145887588153 -0.706437333036177
Ni 6.02650537601066 5.232425126601695 1.3440679711572048 1.7961261315071066 0.40597230407103635 -0.19539535561729574
Ni 4.632037259325646 8.455039838933306 8.12576929123357 0.34749359110885314 -0.7093971869954493 0.31770813231630446
Ni 4.58559492917341 2.0805142176938483 2.8350469652849783 0.22019081739442078 -0.4578275981794308 0.21254821324749842
Ni 9.044885297264797 2.9320436295011296 3.836955713278598 0.6059730196708273 -2.319781426814624 -1.4156100627256458
Ni 6.7281746768827055 1.4393964268742878 12.777735883274143 -3.225877518730141 -2.229286823067477 -1.8300752347590417
Ni 6.908956091233301 0.07508795939013553 8.652220968907258 0.01192117691761818 0.8223148956328031 1.9342095407768105
Ni 4.611082479960957 0.15131747125541306 10.715175341570546 -0.10292845863512595 0.38563204985178745 -0.9668795417514768
Ni 5.108804932202472 4.195600105953021 11.021774601383168 1.1374565527735119 0.9028364473276387 -0.7167875659222493
Ni 7.893050490227126 3.8280276397301325 5.497578322139857 -2.1723893385494843 1.3053742717958292 1.1388153807942516
Ni 6.914046170617985 5.921861517711641 11.730122309331104 -0.006033607788589608 -0.7100859855323577 -0.06575416357767384
Ni 7.135836162493006 2.7859917896383775 7.939170510608105 -0.6716245962323659 -0.2421686072170926 0.6326088770908008
Ni 2.6876083574438803 0.4654050923817806 12.933054825695473 -0.29620136859278023 -1.330905069077082 -0.5092782006502391
P 7.478970674589788 1.506877132585487 4.827813044389191 0.7312754751257793 0.7118908999515805 -1.5667209946032694
Ni 8.814744974428406 0.8477805869173932 -0.14370000026384325 0.8875039307356264 -0.7821280390012724 1.3728168788195194
P 0.22104598574598053 6.649715004323518 7.324802573109631 -0.3388523704940874 1.2733216142356587 0.5513831002400892
Ni 9.168821299509055 2.82031267162088 9.328035824583555 -0.3502156180257065 -1.3160973146402883 1.3397455501868474
P 3.927377072391796 5.769010520714602 9.01629818536289 0.2284114055320002 0.09044318168392167 0.8253660237543011
P 3.1410619805842845 3.7280280144463376 6.0251446157372 -1.552651918104713 -0.1164743156403607 -2.8603859483819707
P 0.328136425997419 6.738373412584138 3.2752673108718042 -1.9458057302548424 -0.646187387106184 0.9877946946375892
Ni 8.358913503984207 5.894906389291283 0.11331092595202899 -0.8286146125985859 -1.1126801171597804 -0.05059468222841609
