# total energy = -381162.4763765376 ev
CRYSTAL
PRIMVEC
9.29906213575000 0.00000000000000 0.00000000000000

0.00000000000000 9.29906213575000 0.00000000000000

0.00000000000000 0.00000000000000 13.61011739928028

PRIMCOORD
 96 1
Ni 2.975207077656973 4.55196537604575 8.054807756522287 -0.5197670159967048 0.12459951585065637 0.18640600763449186
Ni 1.4239282099013326 7.135096091007492 4.6139659438572 0.23131958031773064 -0.5275016656368012 -0.8488291398732478
Ni 9.174361849761345 3.4882363433614025 8.170874932212271 -1.331784900578874 -1.054282393947178 1.0265527892423933
Ni -0.11173195285744075 4.7394623686939 10.327588777403927 2.2337266040063852 0.23199629466978108 0.002731282888234006
Ni 3.8556980882150595 3.3611367601885167 13.15533597503719 0.33391122443872817 -1.2372675488255789 1.0909093011415922
Ni 8.795908613298794 4.842040324647961 13.155090479793135 -1.2580595458702655 0.21933001205602226 -1.1102931049848428
Ni 0.8195235685653741 0.18648525467264412 4.206452207879463 2.5558606333045275 -0.02777742722358442 0.7763235165043534
Ni 6.86020651110014 0.5407758077201789 8.84237137795517 -0.04163515904228314 0.6471050138244469 -0.1366137667027131
Ni 4.359363198208698 4.431505323337118 1.4534248354372117 0.9900091857904048 1.9478469290545877 0.11621283444885792
Ni 7.7325422440431675 6.742452485513495 0.9840267699264593 -0.7076277537998523 0.23311575298620496 0.824742017017057
Ni 8.598043166214168 2.745975893519219 1.656514495707859 0.5354299193449423 -0.17097578912235073 -0.7179430196829313
Ni 1.9488137800062182 2.4179049764619003 9.003256314185105 -0.7568168139299933 0.690025724447373 0.3718838470277595
Ni 7.074540597473557 1.4606409077625087 12.047676312353914 -0.2731259748305554 -0.7780898643761567 -0.03976365305118313
Ni 4.300183965891443 3.8175068394521796 3.6442318326472116 0.5419286396954086 -2.1462517609221683 0.049541044152921127
Ni 5.323796843922013 2.2355875615008514 10.548658174583029 0.8976770146138863 0.47689901298858506 0.07912441423699276
Ni 6.570717403421245 7.100652364341384 9.240303360164885 -1.017564469700854 1.5908757374726021 0.912942425413389
Ni 5.732193060909634 8.179957326336135 5.434220418717379 -0.10088571717348431 -0.806075036735173 -1.1380538200378787
Ni 7.328702567570231 8.050012230107138 7.243631026254834 -0.47974239597465124 -0.9104713381650771 -0.29166825660911705
Ni 3.1219555794166545 8.355821192078425 11.474799211754666 1.9454424333781526 -0.5630026867568885 1.5333308491785982
Ni 7.320500794643797 5.226054400350882 5.535901945068143 -0.7432894688675198 -1.661358673984513 0.12057496807229556
Ni 5.648603790120853 1.506466686653055 4.069738324220591 0.8624629286065986 -0.4306027010252068 0.020589137005261313
Ni 0.9157270173300138 8.386517396647761 6.495891568920298 -0.2808773366412001 -1.7182101357559183 1.9962898550473231
Ni 0.6925188358276911 0.8209881708736656 1.952113087301341 0.9886984373987813 1.143145118517857 -0.4033189256085893
Ni 9.120213410134793 7.120803432291021 8.732197018028769 -0.660757828721191 0.11060808666757078 -0.43593439765076536
P 4.976848830446713 0.4538639819805865 11.944797066782147 -0.8962341115197726 0.6161998396051581 0.2890583297900957
Ni 6.440363148452156 4.078466424071781 12.11515495775149 -0.7507302414162813 -1.3500173644265008 0.07529552740920581
P 2.501308266005185 3.8563583216365753 5.884579584126569 0.5211250726864961 -1.508105498952906 0.8739274776027723
Ni 7.252794322220488 5.588968903752129 8.056700115695223 1.6424950043107904 -3.283936370546086 -2.4234889297076196
P 8.757503486103593 -0.7510536431292985 10.500178443319234 -0.28970470512484303 0.31991850970406194 0.2098945776747353
P 4.796986367926229 8.219933995055788 9.201895443250999 -0.3289150567757174 0.08477209944107335 1.315666911971089
P 2.0908476571925414 6.652521254253252 7.851758082219422 -0.07064414468012349 0.712456028426431 0.7308725832604058
Ni 6.326031177782661 0.8476457926970278 6.467010541307015 1.0807963810773065 1.3186997852601419 -0.947465141780607
Ni 1.4790065557553718 7.860404350322593 10.108819968231623 -0.30331509681942603 -0.7259221812336659 -1.0978741624951995
Ni 6.115295828509619 8.256191038865495 13.244645099031242 0.6704717135748453 0.1483256558230026 0.6278178834600606
Ni 8.994508686303137 2.2322027028328 10.374897756727313 -0.5315274989667427 1.000436808881632 1.5107686476073658
Ni 0.3678216185636942 0.6955586992853454 8.965379373727115 -0.44633939503417325 -1.8521504693915265 -1.5873031896299954
Ni 1.5311463979305526 0.7017844214783691 10.986222760208227 -1.9137443309439237 -0.8960132537582182 1.2595854955964887
Ni 8.639052030846333 6.899662432332402 5.609287354822714 0.6838692179276739 -1.0658734412188868 -0.005811464475454508
Ni 4.850641957252213 6.869728750869604 1.206207405047409 0.8838714761893616 -0.0993260859958483 0.7172393087476874
Ni 8.196593348745871 8.908706238692936 4.9785812457485195 -3.323967675436359 -0.7392723772883268 -0.24538865681628705
Ni 2.1801465522180923 8.35818315389624 2.6130197609256207 -0.10355426514458295 0.5680209659070863 -0.16220961289394642
Ni 3.405084128499539 7.338466582958841 6.196754684131228 -1.828833649042457 1.2234568681947318 -1.0282461177844162
Ni 0.6816008068107695 2.5925320669216334 6.24313747685204 2.1306407938577885 -0.6727311990329834 2.3921117009479187
Ni 0.41291091172207084 5.405498405068997 7.2312865210849475 0.28535645545847627 0.42897622116537737 -1.1241834898136898
Ni 2.467255099954621 3.366892879736659 1.8966785873621745 -1.5948069542062082 -0.277239996998929 0.1554715228391645
Ni 4.105601087789844 2.24410550254463 8.299926388556653 1.9131226381995246 0.8029647732409655 -1.6443320575195295
Ni 6.740220710567527 3.9951933214003446 0.7646711899246142 -0.5237851360171625 -0.0628498454466853 1.4106730304353448
Ni 3.2680717449416443 5.460074601560192 4.695341107918337 -0.17291414379564413 1.4889998884717066 0.6583883000477501
Ni 0.9009154709386051 6.687541522780403 12.023368563567413 0.5177913803275728 -0.5368003173299077 0.5433208920572449
Ni 3.2764130038022 6.159345486505665 10.134515137109537 -0.37425723235594255 0.36513418700875183 -0.47786369089469954
Ni 0.7188482007527506 6.084060278328339 1.021689831952127 -0.7705089667051053 1.9241686116010408 1.3702496323129756
Ni 8.471548022089149 8.28539009440858 12.790162729409376 0.7403931211563313 -0.39470341602543635 -1.8726791854724976
Ni 5.508504117887702 6.654911113257894 11.455404157567974 -1.7103461596268092 -0.9130455266501566 -1.180845204171792
Ni 1.7799614072191776 4.614501569844233 13.411137369812922 1.275233743656707 -1.3523758373563484 -0.926250712486521
Ni 4.7260717190180905 9.055092077023897 7.279452873950077 -0.7208900181263972 0.22149796624161852 0.6019929519771567
Ni 3.575201173755962 0.9417532328249125 10.027662402227719 0.6513511906953104 -1.097766947493374 0.9964228026262323
P 6.48032121904726 3.2484414244793993 8.288521088676527 -1.2963353015220127 -0.38293881929034046 0.44120773023456267
Ni 4.8507535459995115 6.253368305166848 7.406203742287657 1.5191838682542547 -0.3525949168911605 1.0688672337398883
P 5.412844664266141 6.036160808550497 5.185005549750935 -1.0043492565621608 0.13121007918863856 -0.5964702223867148
Ni 3.9634463227939474 8.954225148528412 0.1941746492677319 -0.3269713027857853 -0.018097223821343027 -0.9543395003029371
P 2.0053520786374115 4.311919382482325 10.439913080528276 0.2351386969535047 1.1336420641234282 -1.1524242298269378
P 0.5906206413259227 4.351784462454681 2.4153877203040937 0.08424425196206137 0.568156463043686 0.5164222678941881
P 2.6481497583876146 7.185059952610355 0.7715032109779593 0.5226507653024031 -0.38078911993718934 -0.45274118479545894
Ni 6.964718672007374 2.984961793983309 6.377347123040289 1.1130200169977027 0.2671103647640948 -1.8670906356411263
Ni 1.9221068731527993 1.9729448466094988 13.291041840345464 -1.6554759899514908 -1.1822240867971898 2.8363764728412506
Ni 2.8377390400476092 8.84706275487284 8.447187268647678 -2.1654787274725806 -0.8154374517866796 -0.8878381741465935
Ni 2.513982887885829 2.5758309510759716 11.4027333389369 1.2446224465287532 1.1412232189047957 -1.6598895456381542
Ni 4.645588335029115 4.0530892831236685 6.1692210906415745 0.9440378612666128 0.40427203355047797 0.6318218624131312
Ni 7.874548224042666 6.414139792837029 10.99927492401723 0.31108934144820616 0.6068587647098903 0.9598776565123468
Ni 7.1735291153895195 3.8620028524374197 10.093589964037847 1.7732461415851395 -1.193255662021003 -0.18244445188358258
Ni 4.166770319433922 4.241060527947836 11.265081179894493 -0.1845599555646886 1.3592800206753493 -1.5783040714551786
Ni 8.679958605793475 1.9388358861852855 4.730713810905705 -1.9835654655021193 0.8840385978948452 -1.5562445205519777
Ni 8.539896129809422 0.5777014541074496 6.8802822566453505 1.2424174684576343 2.7461559486910962 1.5381262136847125
Ni 6.475485706664329 8.716141257104983 10.896477510193481 0.8888136506859854 0.280903047672813 -0.13827264246237478
Ni 5.6842935911317936 0.07080120034838477 2.0289149725356976 -0.6555107213896387 0.5921093743148577 -0.5590861253113016
Ni 1.4768863695567018 8.793807025224675 0.17025746109677314 -0.813884762587579 0.4133842802643913 -0.9794712623735584
Ni 7.980799309595301 9.427947277996976 1.040078727600677 -1.2178107256525479 0.14876222913978895 -0.12296326579881404
Ni 5.375518228294824 4.868031203706215 9.415452128018236 -1.6407751934062063 0.5644018810972603 -1.0568051603690316
Ni 4.0967297823796205 1.7942261687488241 5.76176128922503 1.43917628008136 1.30163254536521 0.3562685090880058
Ni 3.113698012116572 1.1138044830345075 1.7538273226018906 0.6111597060780893 0.4083338623246774 0.6909132692586488
Ni 6.6352714937333745 7.594776636441009 3.276757999012598 1.0175899236221508 0.12366132030710317 -0.05535816505533046
Ni 8.21902268695285 5.520341824163608 3.3555470938550935 1.7818392825707896 0.07232101816191416 -0.49700786792331825
Ni 2.4204715176497635 0.5236255471666411 6.049479855446791 0.09667373597466576 -0.1703435548549905 -0.012112209882501722
Ni 2.5428936724983915 6.079866401242374 2.584493027585011 -0.02067989694685471 -2.073484656361771 -0.04121195546193548
Ni 0.7787118440534363 4.351933247451079 4.794408667863636 -1.007790678143542 1.270906834146579 -1.6660362819658403
Ni 6.020361701745498 5.331329084364655 2.9801941647549848 -1.4522595956278794 0.5511884677307798 0.1034082264850219
Ni 2.2710913812662947 2.030152677724483 4.117414616503836 -0.3435307498063632 1.3797472873907655 -0.4253190840287643
Ni 3.687608238534558 6.07170182456504 12.916954513620965 -0.37141976290714745 -0.43860474539407684 -0.9005527934997845
P 3.7358703717411195 9.761597632419216 3.875698511355844 0.020140222393300797 -0.7734325681098034 -0.1780100702613128
Ni 4.257910428789896 7.590731544351441 3.3991271492062594 0.2961561171771416 0.1969146204752996 1.460212531926369
P 4.938229824819189 2.3900635840109468 1.1397042312824681 0.6337383627095537 -0.6451268070521534 0.9619049713550208
Ni 7.04804756905246 3.2342045601365776 3.362148498164022 0.09021049684782528 0.40799164849391023 0.23003300029582316
P 8.361112358512823 2.7958281663747826 12.88853657930897 0.6326335596811492 0.10587982795396603 0.7406373759566535
P 6.728141228672474 5.914519774932958 12.940567622455536 0.4042224112594651 1.3581281664590932 1.2890192274765737
P 8.159080931529056 0.5707931807434506 3.1228547987386337 -1.689847268342509 1.415880542778213 -1.022151317740588
Ni 8.995196816911477 7.897674991920262 2.8019283512270956 0.6422101476259907 -1.1873428960809937 -0.28350346141013755
