# total energy = -340896.2769834011 ev
CRYSTAL
PRIMVEC
8.98524596685761 0.00000000000000 0.00000000000000

0.00000000000000 8.98524596685761 0.00000000000000

0.00000000000000 0.00000000000000 13.15081571508363

PRIMCOORD
 96 1
Ni 6.455297169491646 1.9350535723227515 11.355163811944031 -0.32572483197319385 -0.41333491508369463 0.054675537166009064
Ni 4.678797246364922 0.5085217889028115 5.992024180429381 -0.772353990333644 -0.711320115049775 -0.0004466006191153599
Ni 2.673991210100837 1.7233432083673623 4.751534608995075 0.09671333096334957 -1.337690981650664 0.47927599786119396
Ni 3.290927179014384 4.202965579104691 4.727415513418916 0.13960215990707572 -0.044801729695722846 0.332621301982711
Ni 5.1608377185438 4.554414487336213 2.5111749602486504 -0.6485890545691411 -0.09143485617322962 0.3254828911657168
Ni 7.227165733502501 5.999071308790734 2.5486416386130157 -0.21400165786457337 0.6306435258343138 0.2223975952377525
Ni 5.1548984710022285 4.567856415206395 11.40233545440772 -0.06738347165098073 -0.21073507129815966 -0.47865353378584663
Ni 5.5888049808812585 7.4623275892634915 12.282098851216142 0.38650108272030215 1.0023597369359576 0.5389158210110138
Ni 1.8903609592035722 6.458253315393579 0.32130700232689696 0.015952666674514462 0.17099610083732486 -0.14178425516005905
Ni 2.7163207035476518 1.5392714608081524 0.31575591740831455 -0.209863981547116 -0.11731429504315279 0.9442795449637739
Ni 0.7409772885979599 -0.23984227035161743 4.382654323712648 -1.4445421723789635 1.4465198649306248 0.482329439975537
Ni 8.45455930903387 2.36316459859465 1.1745306783130203 0.3577471505160613 -0.17863484832950524 1.7740681232658029
Ni 6.750067146570014 0.6445602089162817 4.759253833749939 0.40153020913928267 -0.18630753438341463 -0.14490608861849236
Ni 0.6915458567897865 7.460117218771469 2.3942373759747766 0.6711759387307216 -1.0131930801060358 -0.4923189470880812
Ni 7.580025325340719 3.6978150544645088 3.8982830787466543 -0.05411246557368745 0.635850266846234 -1.3092553520177903
Ni 7.830758612250792 3.697949833153047 12.405782558113636 -1.1865823637658854 1.418849138488234 -0.5855422626203013
Ni 7.937772890949913 8.797580056608819 6.8874111228131225 -0.2040805420961195 -0.06542686214524215 -0.13630420588209427
Ni 6.700747131811032 0.5314090072657335 0.31255896691619467 0.9619481658881306 -0.13985284246530108 0.11207464391076828
Ni 1.7935089936202118 6.447426094081031 9.201217968615998 -0.09003900426696751 -0.5343315440744411 -0.2387035314866276
Ni 9.018491312368399 4.857352052939979 1.2070608625785364 0.12112955502418493 -0.04928007718205061 -0.04870209319139354
Ni 6.401852926863404 2.112853618241996 7.128241770214017 -0.05756082913360409 -1.3609982889180368 -0.8653291944108
Ni 3.470964551163358 4.219067139762024 0.5504020200544995 0.25376736779828557 0.1237703350811417 -0.2946350525469248
Ni 5.836914575987793 5.434869748079131 4.767460058832718 -0.013777513400066594 0.4539691436652891 0.240743701845108
Ni 5.37447092512233 2.812966008475254 9.177046758613606 -0.5034847338969135 0.1467390280621731 0.6761829050270097
P 0.23105559838353426 5.572946021863295 12.13734833677558 0.2997942281503611 -1.2153260115574809 1.5625995162357282
P 3.9811108725253472 6.025155477645776 12.656424195515502 -0.39097763043441697 -0.11091353372313156 -0.5107689262631526
P 2.389877734662869 8.427720379523016 1.3792577091529639 -0.08080797258700276 0.5283362457229546 -0.5318563430610711
P 6.213953464549716 7.785356164705313 5.938605995014255 0.41445308784853785 -0.5126818270151493 -1.166218969618185
P 4.73400259719006 1.0265553591180403 12.748479836836092 -0.33152909735979674 0.5567327945877767 -2.470179391785623
P 3.866351311858246 6.220279077665097 8.273743814589738 -0.41514240060607854 -0.018398557111845733 -1.0223698615092973
P 4.604785775865791 1.0190706492812338 3.784646673817369 0.3681683458493853 0.08750029700551383 -0.44076267227734406
P 0.1650913141147076 5.674182787447089 3.5337947816613826 0.22001392549692428 -0.6870121344320297 0.46786595625203936
Ni 1.2966248952103556 1.2408265181556504 2.4319017297489975 0.816408300340381 -0.1331216943890546 0.3222548711467224
Ni 1.8284616001810499 6.65732143836411 4.954056660490538 0.9083314090039389 -1.7450719931437688 -2.561257893060698
Ni 5.889828689107786 5.521119123497507 9.14056666024934 0.263723707680049 0.5369944356185848 1.37603718552903
Ni 8.765224186113812 2.435495828110009 10.10097084198378 -0.40327624529611195 -0.8900629497120541 0.7913256463401405
Ni 2.219256900219745 5.233672121829701 6.849286724448691 1.0215805328387824 0.016604441325900436 1.1009214339619555
Ni 0.632822782193808 8.820591271365195 9.16114736598908 -0.6918715194068601 0.8394415280107607 -0.6111980155151926
Ni 1.4777764378512437 1.0464486935462396 11.303967677840602 -0.20395250115868746 0.6037752406885601 0.5474603681469152
Ni 4.139053525000002 6.751172331816025 1.6737176952476944 -0.35516344894928514 -0.17300387529597303 -0.14451399538639628
Ni 5.538811072679587 7.769245618802078 8.034385848992265 -1.3411473156303806 0.06544100321262925 -0.7280050319046236
Ni 5.303972685771088 2.7957233215883006 4.882608680647398 -0.2791960922840353 0.42581479271826017 -0.053980310871197354
Ni 0.87104680975838 7.407176149913767 6.79886691559124 -1.1403148481579135 0.3115025177262248 2.079856107105754
Ni 5.007863907053244 4.696938457842128 7.129201394476407 -0.6044768947412751 -0.879323451807363 -1.077174468054003
Ni 8.025819315548794 7.171969367923265 9.158753696480646 0.3385548938583266 -0.7255316306634666 -1.1706662067562614
Ni 4.753159141454253 0.35828128921580393 10.514406266123077 -0.746732690221114 0.16346328279538946 0.03845650420398539
Ni 8.071194807356566 7.0870228531607555 4.902913539337932 -0.4050065977236573 0.0973944161907742 -0.24206062088431857
Ni 7.065539130207808 6.004183913709274 7.040841384795527 0.7353108215374174 0.3726898878688227 -0.8509317880385473
Ni 2.07605903627114 5.388847318566378 2.485372928114948 1.0562292332609036 -0.4121864033015482 0.9780864662108897
Ni 2.267471729732716 5.127843895589713 11.296011242593913 0.48766884991057946 0.5219624809861269 0.4346388187677934
Ni 1.1427256033918385 3.3040456380320764 3.728664099221662 -0.776482924900353 0.7288591523748028 0.18891720409211982
Ni 3.6148363085546533 2.7096806068256827 2.664236827149052 0.1693757916250825 -0.3056573717993575 -0.1429793039094247
Ni 1.0669620099417134 3.467945508540109 8.274901114261983 0.30022900169493455 -0.4528226887656717 -1.3804504841053773
Ni 3.7388147315177487 2.596924755994846 7.0161050028258645 -0.5585400229998445 0.8492687985138277 -0.41446260093023457
Ni 4.076983446305332 7.052510523649142 6.053609954369905 -0.007016797637465335 -0.46864140096548323 -0.21876951156686197
Ni 0.7224362336780912 7.449254056475311 11.396036797030048 0.6733906869938532 0.6949671276130482 -0.44470674452675674
P 0.1390978962432813 5.557671103828995 7.80570594962536 0.21259217911155645 0.5257144918293913 0.9178038672707485
P 8.4969427139561 1.528713796872681 8.131794001296994 -1.0109150827051363 0.9547061396137364 -0.1977304315083756
P 1.8976749493682308 3.2486785527806927 10.254821613474423 0.37482904569901254 -0.5620765753981932 0.760255150187581
P 3.8649855544810614 6.056424133386577 3.8967178489104333 -0.21895925898016483 0.7007127718475739 -0.5795541633576664
P 6.963520648230494 3.7514210315189973 10.312737812988356 -0.3422698808160686 1.750780613492772 0.009711313750492953
P 6.129932430115168 7.666723963054222 10.084216053949334 0.2940717238442871 -0.797761117552839 1.3950142408521653
P 2.3670462248245427 8.6337251123303 5.73138825401013 1.0665925787730988 0.39419973691614046 0.9629850917930769
P 6.987008081019705 3.9120412872726065 1.6049913463884304 0.38779023384537087 0.20380620538881025 0.43188079640668203
Ni 5.528361231694945 2.921489808486 0.370286476266173 -0.5065841987578437 -0.006455525817356624 -0.1243164373925988
Ni 1.2128913886446875 1.0978802410923159 7.036344269221312 1.6061720015100402 0.34824641011447766 -0.806334718154463
Ni 6.7981651678862525 0.49375813136036606 9.011254595318501 0.13313917789055135 1.2703985270515927 0.7019150196857912
Ni 2.901237064221699 1.561545885400522 9.16284378041548 -0.6277068118034931 0.14726044778328187 0.5199043129055174
Ni 6.329719372757901 1.8573042395281678 2.603835308618481 0.21172391757399023 0.6691923326417895 -0.18523384170326163
Ni 3.9545415003915685 6.853945574449153 10.540234355469899 0.37519517078917963 -0.3500256135020875 -1.0970056438473172
Ni 8.09043221883388 7.1652753597258805 0.18285963788695878 -0.5232853135626084 -0.1752440774804014 0.8591181805040817
Ni 7.499921858119673 3.877142592187184 8.154281376217252 1.213379943574704 0.022540090084045054 0.5332845908671655
Ni 3.242182219993164 8.298081251641328 12.362266113683098 -0.38882664552968516 0.3100755554717111 0.5897917819252746
Ni 0.07042006771189085 4.866930325072075 9.994514547055205 -0.44110025812242093 -0.00299302119005291 0.24533620631179684
Ni 8.3516333172204 2.296988262522524 5.660965490724468 1.4867126350994266 -0.44307280846775954 0.865617157964864
Ni 3.63784752331103 2.736276934697169 11.565168776227122 0.12684357468982668 -0.31709878086707965 -0.5817087478068239
Ni 1.1332551542105729 3.325080098689897 12.489697566646534 1.003946107586471 -0.2908575877823636 0.13620444707943638
Ni 2.935129411766039 8.284118179508798 8.153111497200744 1.0262260020305938 0.2782170162002176 -1.2654499247970656
Ni 5.433881371029853 7.8106316614291265 3.6795983669217214 0.22731380159244718 -0.30864267967992653 0.271499494970726
Ni 3.0018987740677323 8.333510076235 3.513792725757763 0.5191810615862478 0.1368233116103579 -0.16371859333930514
Ni 3.6186909790468382 4.366847479120919 9.286198627312938 -0.8644269943115049 -0.36800328102643076 0.02675078573128296
Ni 7.3352672269558274 6.147579453067734 11.213463788487378 -0.526815181092738 -1.080831605190616 0.14644977895652841
Ni 0.4293330197146426 9.111848017295674 0.4955309203769351 0.29956719974121954 -0.26800073778884814 -0.878945499642654
Ni 4.649559256198092 0.3237617715074679 1.599809555076442 -1.4099811465746426 -0.3693004025712995 1.0905822568194767
Ni 6.236749033404433 5.378649064467006 0.20143483674125706 -0.49226778213517164 0.7306324422251417 1.0768862473896226
Ni 7.747672043390105 8.707691656599918 11.195053019633097 0.13097636591127768 0.790347084476955 0.6198934864066614
Ni 0.16444886903267678 4.833334490642519 5.6285494190819145 -0.5660856965575863 -0.37226565584721044 0.12568529271566742
Ni 7.876736115534033 8.76841394840921 2.4928423630337204 -1.3449502343162387 0.3430309273518092 -0.13402697981214337
P 8.456913443460333 1.57869871982845 3.582295341994054 -0.13039349682461415 0.23176129584083957 0.16991572328895252
P 1.818919269032564 3.330246615083851 1.5785190149103994 -1.0226403415618646 -0.6302439764030501 -0.3469418323704412
P 4.73677005292804 1.0241562984620651 8.128768669001612 0.056252394734825704 -0.8240989841164195 0.7605564834780837
P 8.48241357133171 1.6297978132761326 12.339620598434953 0.0952118067171586 -1.434913133929632 -1.1860617153757251
P 6.10059560224341 7.684631558137962 1.4857400612946554 2.1398718255377536 -0.6735277267923497 -0.3508419387557958
P 1.7606050231251504 3.1962855839230455 6.118377403884515 -0.18061794019780505 -0.18493919328097827 -0.6834406150306874
P 6.902924149863838 3.90548205776376 6.0172080276449895 -0.6127154806009835 1.187757100800277 -0.5336327182352036
P 2.358348506790895 8.40005480738913 10.245721356424342 1.267384165705301 0.21811670847421147 0.7463287699144759
