# total energy = -340863.04735885625 ev
CRYSTAL
PRIMVEC
9.30946783082396 0.00000000000000 0.00000000000000

0.00000000000000 9.30946783082396 0.00000000000000

0.00000000000000 0.00000000000000 13.62534718584188

PRIMCOORD
 96 1
Ni 8.757807559830333 4.55403349222261 1.5940564845055543 1.364727674053482 0.41132791195599483 1.5060594150571545
Ni 0.41309274803864965 3.886795991148224 3.535995686441639 0.8191938335053183 0.3537879087579972 1.3864959189685089
Ni 2.5610067226579076 3.753363386082172 7.663822183032174 -1.7256671062545954 -0.5819216351485785 -0.21018279833911543
Ni 2.059850130979906 3.776832554949228 0.7940147674561622 2.2365033954205744 0.44394955464575797 1.2275894023058664
Ni 4.496417194674727 3.79341271748482 13.44733198049722 -0.24846703863129468 -0.9167967661624726 0.47848178409467274
Ni 4.699186717520167 0.9190046159789645 13.216777419412743 -2.0026219679129382 -0.45284042937748464 1.6829338290521274
Ni 1.0311725342040292 8.410741282744763 7.709398545595621 0.49823274146935487 0.08524261131958867 0.8395865382290573
Ni 6.514998453941956 2.1263197326105217 10.302357224376301 -0.7798047901847344 -3.675684560597941 0.01472239381183916
Ni 1.6829749373087282 6.637604147705991 9.955155960004504 -0.18229301390738284 0.8614085192001552 0.1286448895646236
Ni 6.847653674539545 3.4018751116892414 8.124194926281104 -1.1507951788639472 0.010400112287401444 -2.4927953294129264
Ni 9.405076252011488 1.6909345324619742 4.517879242237643 -0.3410663474262707 -1.186004122664912 -1.613103438522551
Ni 5.244609829611834 3.932347218148028 9.956804666790049 -1.4203576047129602 1.6608598799712235 0.23702948621831435
Ni 4.9673087058343635 7.881646977552268 5.156294630336065 0.2108448574031466 -0.5649338423413303 -0.26714738864961735
Ni 2.3894797744724605 4.862121026727315 12.189085695299706 -0.5298683660967649 0.9624161066634844 0.04115153453764525
Ni 8.555577986129792 6.887814719558379 6.274908204769209 0.526253652162313 0.7802925284544303 0.7210041751067583
Ni 3.1406235107704785 4.901900383557513 9.519689767484223 0.23488981416749222 -0.10018432023108553 1.0314119171069076
Ni 7.7649062486379945 8.883718114739867 8.324868887876258 -0.34558428990128226 -0.845444282561415 -0.14464794986109927
Ni 8.345211937383713 2.606976875718409 11.698150899502716 0.37507972825723795 -1.068734821927082 0.14347938347429484
Ni 6.867501460348574 5.060198577692946 6.289011117865878 -0.03203337428646096 0.6341669656065401 0.38334402514855914
Ni 1.0335929958880572 7.112191517667777 2.3371829069486307 1.893366795728836 -2.9656214578837186 -1.6043681155320821
Ni 2.35203709411415 2.51122899717907 4.41307325131923 0.8678511895017054 -0.9272912379358934 -0.5038038077992292
Ni 7.11234977862404 3.505172968789145 3.1521290822908257 -0.07735858058582161 0.2202440392298594 1.1810876591999013
Ni 7.536461213005827 4.032247119422277 10.014166815861108 4.347401459433796 3.5810216844057163 0.256637490257229
Ni 6.942070299152669 3.628653752546636 0.6168797957381825 -0.12613960664426663 0.41315776607588195 -0.8390736031483808
P 3.7823437600143994 7.974871990259409 13.17137793674159 2.709650654676211 -1.3215066585813176 -1.3188882471218641
P 1.9488626532992062 0.5673338760129305 6.030987109508087 -0.9123415586045964 1.3467983432685708 -0.7225617494018652
P 4.493661592142142 5.086516443772743 11.791620751218664 -0.1653155055127798 -0.3659312289887504 -2.2554010036560252
P 6.328632213739814 2.0121856547405854 12.784445724773278 1.3898668923232709 1.1100807318637205 -1.1784401942747253
P 1.3686686781696746 1.3858167182542114 13.659819657004032 0.4776392335887193 -0.45967082203575677 -0.5731683144359806
P 6.092581342738989 5.565590977317997 8.512163282039545 0.3388474853980809 -0.22482883038706444 -0.7037605575349621
P 7.5008711167826 7.73856045415415 12.225465234410649 -0.021793184615691498 -0.01974838627152083 0.14845935318738948
P 5.7395849345275485 9.319522240949112 9.40230761622368 0.3244817035947122 0.3192906463120759 -0.32437320304130585
Ni 2.4465375039394135 8.86512710711293 0.7449520091209144 -1.1940480760153114 1.3819977739878393 1.406207024244191
Ni 7.1213147963229595 0.12327504451434856 2.323530572103911 0.32565618351878756 -0.8427019439295874 2.0372750392104333
Ni 7.971362320817569 6.138095331866731 0.10775895417292743 -0.33520577488043557 0.1250510015657782 -0.14563191104092338
Ni 2.590247761694569 0.23145199380117157 11.982116671432479 0.6368892496337096 1.693826307594915 1.2736609998529487
Ni 7.141600127128717 0.554051127048426 4.708457085769994 -0.5833313710119115 0.08825851532777702 -0.7903108319223809
Ni 1.109046234153623 1.9573621975973505 2.2611813410169526 -0.2954084403778396 3.5554091260439344 -0.5794675171811311
Ni 0.48827414983816303 9.313098708018423 2.208150887413501 -1.3706471248617105 -1.3932718042397618 0.08989553671056776
Ni 5.393468223179558 6.2773835923145285 13.274522187619239 -0.37230730771842335 -0.18286431302982056 0.27037566577892785
Ni 4.916683818766115 4.023384505871529 2.217061910197931 -0.28569301286228865 0.752049474448337 -1.6269881669244433
Ni 1.3817670996674722 6.136633745388299 7.719835390187789 1.3761662549077265 -1.6378361653825408 -1.9728727616749635
Ni 0.7626949242116412 3.225935475664451 6.020782070669504 0.6988420371874223 -1.3222579349250454 0.8992767550008385
Ni 3.127338899912371 6.364892591660157 1.192658290187966 0.028036337311925907 -0.4433869972740687 -0.38685049563992085
Ni 6.557691674261004 4.078310367162934 11.941186664355564 -1.4289597445596744 1.051319968884744 1.6994009734692153
Ni 2.759177368303694 8.26795266232314 5.026798999293764 -0.9074127538444114 1.7510822038935907 -0.005500360992938914
Ni 4.0858044889154055 7.2018603135929995 11.045060996971474 -0.11181316271926549 -0.5622442113243091 -0.46792123497000704
Ni 3.8219555464203196 0.2860911234776995 7.559301992781838 -1.2183719974726566 0.8061637397942374 -0.1310511850132711
Ni 1.3779688367171514 1.53912503753334 7.800538237467291 -1.164031989269195 0.6359646809369112 -0.18188857938011255
Ni 2.8192141275356044 4.607870145756202 5.386045784330806 0.07577812347257916 -0.3557329482995099 -0.4165079134950375
Ni 2.3191281246793847 0.36118501627786725 9.724410554825708 -1.223039578151655 -1.5512156998788187 -0.05547977823485929
Ni 8.923581256782207 6.370133822152879 11.333755047706305 0.25978657740917194 -0.09033390979956701 0.3145826993134453
Ni 0.3484747995963155 8.464950314998974 4.647783558925824 0.4795667896287354 -1.2863992733552232 -2.9363080536315818
Ni 8.833782128304767 6.480599969624712 8.891329535789334 -2.051301435396512 -0.1260501322542539 0.07092722313818109
Ni 6.470908813420584 8.145868298767974 0.4161797676325869 -0.8862608023571446 0.2998857594229029 0.7133849679986036
Ni 8.809977818589154 0.22924471893469836 6.221102272480068 -0.5436276246643863 1.611069695921974 3.2188337245094822
P 0.8788128497156792 5.576901980956819 0.41770652038712763 0.7129031432661787 1.1094490118169926 -1.0345777164293988
P -0.23152646954529552 8.374937068757179 9.992284911290692 1.0590345639201826 -0.5416828422331897 -0.004302226919779688
P 2.989763581579425 4.513462830611094 2.812857622774626 -1.2787379001552235 -0.6354779711084797 0.6731212353825504
P 2.946455936371354 6.63155299349592 6.225366939777964 1.0554640729601048 -1.7777170328723 0.8595421554153778
P 0.4728167091452395 4.442682945289305 10.34478605580371 -0.11618069565934185 0.6697960276640594 0.32013988168624863
P 3.2959706035450003 7.875307229833718 8.984513586837208 -1.105254771229987 -0.5460948552579563 0.2488899851013262
P 6.828727526064049 5.442138121964552 2.0846645179752015 -1.6443665103018907 0.5734668195130059 -0.6694178183890342
P 8.337764362971319 1.9694831249535216 7.678768533931048 0.5943570326984539 -0.791662975074901 -0.4588277573091711
Ni 1.5907087998071832 2.7776101149743693 11.432497782106228 -0.7603785631393227 -0.9962330552129293 0.9125870989564994
Ni 9.534850236147452 0.3429412518079068 11.849556363519477 -0.3899473893976897 0.6876453971406544 -0.5197400194135113
Ni 9.005225291278075 1.2143456268768573 9.733389536726651 0.07713360905920909 0.976747435684492 -0.8706189820548296
Ni 3.3487273587887953 1.7491187075588015 2.2178662482344693 0.9766173378645311 -0.13059815663625252 -0.5001171029762613
Ni 4.483281535304867 4.976757815870088 7.036156437651243 0.8645213537975239 1.0162917736360175 0.3733501471606409
Ni 7.798066573709177 0.6821252023247608 13.922380169125775 1.2662410532397934 2.0568786723739736 -2.1975650664841635
Ni 5.145082307058206 5.13212352758064 4.102946012372331 1.5625936026984573 0.0852310413553629 2.1233684285660916
Ni 3.3979558256547193 6.459057860636862 3.7900678256268536 -0.7914850547361402 0.09662925588997552 -1.2258276824197534
Ni 0.18353057624462302 8.15704896985458 -0.14016800517526104 -0.8603391973953763 -1.5845299977602323 1.4635097146204021
Ni 5.804313665639267 2.062056474899578 1.8081519061386417 -0.8413989088474476 -2.7157580531255294 -0.52273664014799
Ni 0.06449227062412502 3.993845563858371 8.191668088563791 0.013728919550318292 -0.00865818989563025 0.33806407026483715
Ni 4.537704685323436 2.67240381693129 8.13802507196492 -0.8791876975604472 -0.5810806273045218 1.527718388087827
Ni 4.9382352372219795 1.3890471036555874 4.207466202622669 -0.12435423260906969 0.5296413376876233 0.16492624049416113
Ni 5.647262940217911 7.403289273044209 2.7975286527403163 0.45427664760337894 -0.8404748543712814 -0.22421485095214935
Ni 1.0954451013829885 6.069000460255746 4.436140251168017 -0.17965480495358735 0.5866331816916349 0.7339352813461296
Ni 7.3289904088125635 2.8724363561801742 5.402640842015222 -0.3698056243424922 0.06157946337469395 1.0190767925803224
Ni 5.001195169410756 7.645735748571676 7.721403104601598 1.543460481413432 -1.1901819081916858 0.07253133440050734
Ni 6.174746707443725 1.1557145973152863 7.554491790658232 0.35190508991298747 -0.7325561416104158 -1.0104810804915114
Ni 7.679408094383713 5.732789022876239 4.064114359386109 0.6473855211793431 1.0792771162193024 -0.013755659023195664
Ni 1.990001192459667 7.428555169238255 12.077602953920582 -1.3609895471672881 -1.4092049305302503 1.1223780611738348
Ni 0.11380079891498196 3.1045213938063996 -0.02681033693781651 -1.134127231289963 -0.9191061310219397 -0.3270540923075787
Ni 5.72126390147306 8.942647047277935 11.58196780772257 0.48615138482478853 -0.2481255961314759 -0.6327297189393812
Ni 6.415256813623971 6.5024865289291345 10.432124691884654 0.25329119949281537 0.2019665810769102 0.38992836323429625
Ni 4.0753220279299605 1.572592575049035 10.74519465367125 0.9054767131639632 0.8124981666526976 -0.5843736962334968
P -0.20698764280325915 4.91165670603775 5.634899035746535 -1.7011932894829478 0.6482188157139159 0.09912168329452607
P 4.749048228211144 2.9282000695929735 6.1000270552577796 0.5275597725682462 0.027506432950384883 -1.8541356181423552
P 8.457493431118566 7.610564578409146 2.5589763276837285 -3.5547676358051943 0.9819950572366767 0.9465326026640086
P 6.826679443100641 8.163537669061377 5.925745435486548 1.3497006045170303 0.07159133908474122 1.5737768730087867
P 2.661046265952389 8.379824539465313 2.8901811331645044 0.2307032868899704 0.5178034645124309 -0.23470238074703448
P 8.132211309189247 2.105689951488191 2.0116466365424883 1.121654552744249 -0.7938746380142392 -0.22870373996143836
P 2.294160131461834 2.4503357668897343 9.52746968990477 2.0175747325680287 1.38478639247657 -1.1453192433510406
P 4.834834975973906 0.05187049388872045 2.294331425673319 0.5578501960216715 0.7923006086589 0.34325718443000236
