# total energy = -340862.7616421829 ev
CRYSTAL
PRIMVEC
9.28315836123071 0.00000000000000 0.00000000000000

0.00000000000000 9.28315836123071 0.00000000000000

0.00000000000000 0.00000000000000 13.58684061769144

PRIMCOORD
 96 1
Ni 6.061661062012032 6.487785881269058 11.439005748975175 -0.37072453661233573 0.8315392424445485 -1.6378446500229726
Ni 6.45915662081574 0.5900895325134415 5.872314337104688 0.4479910717049833 1.3379195527217023 2.167478531511428
Ni 0.9168372129641077 4.3787079955909745 5.549898178355553 -2.052117503539905 1.2978334833340939 4.090407614278414
Ni 9.026525469548112 3.813140854262191 8.790808440201609 0.03543520087915833 -0.657764550420822 -0.1347312049680196
Ni 7.310069484522637 4.65348948372918 1.3746760862051401 -2.449850964640916 0.7902735509265423 0.4145001390363894
Ni 8.63645643745084 1.280231089447692 0.6094959751132022 1.3787730964029543 0.020451325875816388 0.8309314336572206
Ni 7.922952884129813 8.75714677958884 10.469829160731607 0.6161432753356099 -0.480417824775121 -1.3675880263204125
Ni 1.0011979147700516 1.4543645743968963 11.051251008262797 0.43114803200571555 0.7103106999486541 -1.1537776585310386
Ni 7.968653872849556 2.363018683246348 12.065942922058445 0.39863874652410053 -0.4173959725269457 -0.7755272458553031
Ni 0.023548587870276486 4.046612287595835 1.119736420794861 2.5764921935119496 0.24977727280228595 -0.7410353827260205
Ni 2.4106320025929984 8.214945347910188 12.089353190868815 -0.4591578869550802 -0.733582268882085 0.39744832576042516
Ni 5.594569664810615 1.9485070951265124 8.659097132431254 -0.3991552811492029 -0.6774358035975042 -0.8045159197781693
Ni 3.5963234070677346 1.3315112563556462 7.483890127034333 1.1855480089641002 -0.3555064341110007 -1.9050432036254996
Ni 0.33244104148698916 3.8990564850972955 11.314074860087798 -0.5569068582717956 0.6220347011193803 0.2074977953077846
Ni 7.8923927267328216 1.7035431117146562 7.482925606878333 -0.2823536640764105 0.8961868032216049 0.7434766451776614
Ni 6.889681657146332 7.097717236510427 2.7803022224593605 -1.534872482634105 -0.4921477116175395 -2.5133137610812524
Ni 8.920168323953538 6.712456880455574 10.773617733869319 1.7777782251275385 -1.347522365918789 -0.17845692799074428
Ni 8.545453635821827 5.573933203725101 7.013595111874927 -2.0475674222753772 -3.697286198028116 -2.193260782681855
Ni 2.0853130002174827 1.4506977268355925 5.43710037747482 -0.28240020104362973 1.6283423669594925 -0.17152266276475622
Ni 9.139037349150646 0.10512527047714434 12.338427756812687 -0.0580123148487259 -2.336744279921208 0.8819552330032553
Ni 0.3915970399671208 6.790871719317176 13.458322919615895 0.32696384658661753 -0.11931872706769128 -0.0030058767058593395
Ni 3.100305688344743 2.147268799265942 3.311479903558145 1.5763461763978595 1.603498311332619 0.7498756067254698
Ni 3.39297582268708 5.042639483146528 2.9493773144056425 1.4499995959491094 0.28085522515401307 -1.3672784654997936
Ni 2.551049056294974 2.0212963400079875 9.272067793727231 -1.4750195150322145 1.7383914957997997 0.1792853374293106
P 4.300877995707505 5.767459206536492 8.953483722758618 0.2616606545034333 -0.2914016332112917 0.2853022051817732
P 4.464335848516204 8.867616364347105 12.159121696012447 1.080381919247707 -0.27304755618413623 0.9666550844454964
P 2.1894329046417433 5.540597381971578 6.9190442871119116 0.3251165089652336 -0.9397605740474977 0.709412613614417
P 5.321357030439146 8.986635737976156 7.6229917571934305 -0.4461712448874251 0.23015975568167457 -2.0979322478811744
P 7.198383806016193 1.4308132015791046 9.836043801709161 0.7463200281637277 0.19665288217348068 0.4710009023365952
P 7.710414972949941 7.390842245613532 12.324827001465682 -0.08145640480427907 2.139234706174387 2.457497168332264
P 4.6324724131499595 1.495229037599071 1.7682188761693478 -0.24650323003670452 2.765290098417386 1.8285657400930508
P 1.8830422622092617 5.3734912479183405 11.509208705931131 -0.6028049063554908 1.140663489746584 1.6806938839780152
Ni 3.961801352608313 5.750480309853898 11.670905543594568 -0.9859265310805989 -0.5455775493019055 0.1474108573182171
Ni 1.943559171708348 4.462033625237209 9.69465944290367 0.834695271575027 -0.9783595173666184 -2.315192521892361
Ni 3.6599873072586737 7.4806660861279 7.6996622905948575 -0.008598540302288417 -0.296055072822903 0.421081648908649
Ni 8.054857281594535 1.9484885288097464 5.102347829550452 0.8247741558065732 1.5959397822590708 -2.067786320425413
Ni 1.5584009303957091 3.147018541328238 7.358904467512496 0.9846504925816527 0.049994843860888094 -0.21077749450032088
Ni 6.294891133227716 4.193731781650371 7.99865425579605 0.11650259777513483 0.4886893207552939 1.004913613706063
Ni 9.11644214164631 6.791753619363565 4.488915795282837 1.5286270159450255 -0.24145615453110025 -0.8485550602762547
Ni 4.325849691757902 7.652850107816664 3.166033234644234 -0.29883006446487886 -0.7044894652811867 -0.6296251118721286
Ni 5.5229500978854045 4.7188893345377485 13.177795156438584 -0.6797066019095519 -0.9645457514119776 0.38325840741328837
Ni 0.4811423857299966 0.6147233215986964 3.399522305978805 -0.7018312017227333 0.758029860401488 1.2531163429323773
Ni 5.690065515097024 3.724895150672942 3.0508979344826495 -0.9188608477803529 -0.7728666683040044 0.06793317350686365
Ni 2.6767523039598196 6.305835976961329 4.8138179838469535 -0.5033942310656363 0.78760988805145 0.7124812252374118
Ni 7.74693491802885 4.490765000432741 4.037438670481707 1.071315952390697 -1.1268319831801301 0.29317286617910154
Ni 3.3530675247983592 6.973926319472489 0.757168745407368 0.22145091505376702 0.7186816976211688 -0.4034032577922795
Ni 7.023581933663409 7.185294552696096 8.580307253970979 -0.08455355567236406 0.5599772696670033 -0.6926217673093232
Ni 0.48907762951582556 6.2332231120891315 8.626774103257322 2.2349453069048346 0.7124177189893279 1.3705113706147947
Ni 2.890385627828891 2.908200008765959 11.585078102764102 -0.8555716008034039 1.2509669006895423 -0.03267897829025985
Ni 6.4842211484499686 0.6196350406991666 11.727005526335 -2.294106390646023 0.13584269286464346 1.9806644898052406
Ni 4.493800593223996 1.9635179622319003 12.91283803481716 2.199359439380425 -1.482042483317267 0.08107202488166683
Ni 3.995434235430094 3.8423920863271737 7.248117398737531 -0.23872564297381466 0.40779624465365255 -0.6339566493679469
Ni 2.539955682027232 0.2132694240604557 2.4202781324688223 0.2659939917714645 -2.5234238529320607 -1.5086243475708534
Ni 7.15679525646014 8.80999580026353 0.5768712432918203 -0.38658335802146326 0.47083815150648584 -1.681619481116078
Ni 5.6084108539597395 8.850869546624088 9.6273231252564 -0.11155296707934335 -0.12462085600689506 1.3970801222422584
Ni 3.673132259529069 3.3036625558837804 1.0783158964055417 -0.5091871835983295 0.857093179654253 0.2930610231915856
P 1.2862187266047578 8.621427004028687 10.242100289173717 -1.337727234205238 -0.010451534350627161 0.6917979858564473
P 7.2032481810089095 9.146798069558875 3.484250620856718 -0.04105383261751639 1.232026612141614 0.5598080910789907
P 0.4519756304062998 1.8560097049978277 8.622752639045785 1.126063737555538 -2.240456466531051 0.4293909401052928
P 0.5965682487489704 2.7033578358856336 13.119779129807892 1.157969070904567 -0.7345618591865349 -0.5475112759895087
P 8.853775175197981 5.887100551777207 2.3593824701077075 -0.20453974112072515 0.38458715352704087 0.41654005228455354
P 5.101708219937859 3.2999028767386465 11.466763320856325 0.1634267731304992 1.2279377867842205 0.24386167864879937
P 1.1307258236887126 8.80000712184337 0.5297127987059392 0.20689230051330174 -0.46018478555769776 1.133689886642228
P 4.452926846863439 2.205854811821354 5.617805410243383 -0.8536419878808588 -0.1989159671760445 -0.45282603119978143
Ni 5.468615771869428 8.203517779940656 5.168325092810447 -1.9179051471898325 -1.7733541279179137 -0.3133010043875443
Ni 2.949955655172906 8.751131292956625 5.92901215524499 0.7934807450099302 -0.6506582783933439 -0.7438551115630028
Ni 3.134941152271893 3.9260611928335805 4.98740283413572 0.7928875915106215 -0.4095034571527464 0.5691933889486326
Ni 1.128804209903422 4.627988647650948 3.5376194984008578 0.058809613939040654 2.3337972814777417 -5.334701216712839
Ni 6.956585379612955 6.4974032333538965 4.785964795434458 -1.4141699878450098 -1.0849942212087378 4.077851117769641
Ni 7.027842903361227 4.012190336311495 10.653183606902692 -0.4029237470526996 -0.7708234126217305 -0.797347427054188
Ni 2.5572037903029345 1.0158096060649682 13.36182912980331 -1.8297109094410875 0.08753809222198473 0.5123846074897046
Ni 2.043594486444068 9.081249688216177 8.344982902224078 -0.5980061994152668 0.020999485069802544 -0.28638155428888096
Ni 7.678072449143404 5.282534862081241 12.553765468560885 1.628563224721047 -1.121186611968895 1.0730846142553454
Ni 8.649072249693402 8.292311189874505 2.102019900359453 2.836044029202496 -0.132576620518862 -0.5830776031298925
Ni 9.275518343698211 0.051118639952089144 5.761404730639068 -0.4154751013551489 -0.586577645863351 0.3419240674408756
Ni 8.849737001301357 8.912333338278245 8.234957052436522 0.5246695955046448 -0.17853946040222154 0.07903468273666389
Ni 7.678081732301787 2.2164283292196454 2.4062429253094932 -0.208318491436867 0.2553815063629408 1.9027253541256006
Ni 1.5832333790703612 6.930861747733531 2.438348728577263 -0.03486364464640447 0.26718544097640434 -0.044840553353458254
Ni 4.793618759521281 9.07940233969795 0.8352596020414015 -0.6690444942100154 -2.040507687215118 -1.6516247345262007
Ni 6.609785148739069 2.4053127528395115 0.2997810336637516 -0.7720835102810768 0.33613831399703403 0.9887246626510262
Ni 5.261155748325082 6.04666876122341 6.7225513868813 1.0191829791408835 0.15580550913981553 1.66552360399548
Ni 2.4760875523518657 6.808602551828796 9.93419556360896 0.4014026824224829 0.6739164775903361 -0.07484455591471627
Ni 4.27634260810111 3.6439274432560023 9.500965414925549 0.09264687420345981 0.801378145480136 1.330942864293553
Ni 3.5976044829245954 0.5775507704854593 10.497220047856628 -0.1198476029879678 -0.7629586651616731 0.7064818131208671
Ni 1.29609600712432 2.247888952979793 1.874345799436023 -0.12359575717649036 0.41307574788503704 -0.5994704426656192
Ni 1.0346451344241714 7.365684886395474 6.604047228542507 1.3533322877323468 -0.09265535884389203 -0.12964144914993803
Ni 5.546594302287026 1.28765761615413 3.827060021941733 -0.2477563857175152 0.24357140110189018 -0.57954130784186
Ni 5.809632595070676 7.010734042461272 0.5094708718517041 -0.11673631105249571 -1.1182272722302549 -1.2376413872252296
P 4.819565187201898 5.883043811563815 4.770815609269163 -0.5437692924485732 -0.27900377376757113 -2.126361192645828
P 7.8362110521986175 5.393450038441892 9.216715105236636 -1.08793016390861 1.0652826017124233 1.21364785252411
P 0.7686473707480063 2.7797582293781145 4.180616535486801 -0.6691691927133379 -3.6665579157063237 -0.48642829263525905
P 8.165466113728545 7.4666485169694985 6.547769937476959 -1.3112451287543094 3.012601940398315 -0.6383010423795717
P 2.2963377565809178 5.161631007300431 0.9537730435385768 -0.7481370267678082 -0.9898772881982307 0.43090609119823853
P 7.293833240510687 3.6001944841134654 6.290476063100738 1.0603738515568963 0.047616830547014766 -1.3982713143368821
P 5.3661668359541155 5.47675710177136 1.893774521615903 -0.9101237250176712 0.47690466941553994 -0.3787106401416058
P 1.5461378781717035 8.153073097287177 4.3585226960028765 0.3874811872453843 1.5731361541009938 -0.36090137987432686
