# total energy = -381164.13039479114 ev
CRYSTAL
PRIMVEC
9.28256165800648 0.00000000000000 0.00000000000000
0.00000000000000 9.28256165800648 0.00000000000000
0.00000000000000 0.00000000000000 13.58596728220874
PRIMCOORD
 96 1
Ni 1.0220285830972662 4.513608385103933 2.287102473193821 1.6018708030315252 -0.3464304399516614 -1.1708287004760547
Ni 4.866317873323465 5.649645388189943 7.5421545275502275 -0.08138492813639532 0.0562577940514644 -0.4760379505398704
Ni 0.13809295398180588 5.865232878357552 8.908645042999902 3.0173857349402033 -0.8824491419205384 -0.055202356203756534
Ni 7.928486381674435 0.20757849613029447 6.596761843702682 -0.7815431130320799 1.4609938901770838 1.3969608230555748
Ni 7.830573923276677 6.675730450650104 10.096887171799695 0.03565040221375796 1.056028172993691 0.9245213885002401
Ni 2.6021804572092844 2.5630266129239465 0.9914508973551297 -3.55657897798232 0.33938458884847356 -0.115771118925749
Ni 2.550383764200231 2.6373892128693806 9.481116389280622 -0.13251542826362342 -1.1308053660055815 1.1682133743403944
Ni 9.124646535409124 2.727197995102819 3.329213878033934 -0.037690058351606055 -0.04277261508083601 -0.08346726458672075
Ni 3.7871087115638744 5.130991548550548 3.5579742511852603 -0.44970702595482553 -0.4827580428725234 -0.2728554947779881
Ni 4.063292763015192 7.429520854915363 2.6513965981293555 0.0035586638855358067 -0.4910534501120962 0.4980486504830067
Ni 0.2941290992873571 0.8705139734843151 5.236765408258228 2.391087887669095 -0.7429881355770172 -1.2639314312700105
Ni 5.910624603951506 5.267361659123307 2.310769291920682 -0.20864579286929874 0.8946641959294914 -0.3561132144570641
Ni 1.0252403493662863 2.7345126535420903 12.747088176011566 1.0153844313303997 0.1702952181155583 -0.10746079928784072
Ni 5.025272455955547 7.2648667795399895 9.429136829810586 0.5416838706744542 0.6933041380883286 -0.030900032012966133
Ni 7.517547385346339 5.4406670817897975 7.835570726116599 -1.0125654738243657 -0.1612343934648707 -0.32895053799934315
Ni 8.809373617602766 8.701547383553814 0.5031844509477126 -0.37306912558511235 0.5888574430364631 0.8927232701530368
Ni 5.076280131239551 8.733405134522823 7.391241427920608 -0.4803736018007469 -0.34666543878060296 -0.12055054259226335
Ni 8.377502445157214 8.027206422920184 4.638439343511898 -0.002317849499899234 -0.23935762013085873 0.33549836642018993
Ni 6.673252006737306 1.4524888061992036 3.669841184242608 -0.975431802196862 1.2709076054775272 -0.3784951816966901
Ni 9.2141861233599 7.677161029842874 7.479523228792041 0.46708022712595043 0.3083770847233657 0.011946887949231037
Ni 1.4531757157480691 4.595749771562197 11.15873887186437 0.0746164990643102 -1.9447721467840053 -2.1358953573885087
Ni 8.644106893170298 7.835595789032572 11.995036395509857 -0.12755474182423837 -0.6537549150407967 -1.0448518446618973
Ni 6.482913083771243 4.7535811642562695 13.552192580089379 0.12847493964566262 1.1335808718681897 -0.08384778785459109
Ni 3.0452742464734657 1.5994317542876102 5.173522388699093 -1.305777163661203 -0.5366419373751726 1.7826810617457942
P 3.2708219250996247 6.772445458618083 10.457607510568836 -1.361248714365946 0.40233933530413934 -0.07208833332581778
Ni 0.23911228570396 2.640693804753112 10.39047973903402 2.0872799103736503 -0.8290295886488174 0.4306327829321938
P 3.682698460136307 4.043019648762186 8.402716666881316 0.20820639133903496 -0.04584405491730815 -0.7903995349814452
Ni 8.080692542116987 2.4797991667735575 5.447728326300906 -1.490726127134194 1.4732739930960177 0.7228085753053487
P 2.5642890412840234 0.8374364939379962 11.680154273541433 -1.2224029730089205 1.5435566406716643 1.8346286584576788
P 5.020983912555873 6.276988740095108 0.41449050434695994 0.14359585444750106 1.5045090398508993 -0.15789890133373452
P 1.6956362213746754 7.604719920121969 6.236407237855507 0.027284546747565912 0.45184669800564764 -0.3218848894018134
Ni 0.8609343700460816 3.606683564249007 8.309082541065614 -0.49255240325512595 0.6383272676318167 0.83645699146114
Ni 6.160121291173248 8.49996727864618 0.44943192223668704 -0.6141750958656454 -1.4302522381188527 -0.37261609720809374
Ni 0.12369755765233646 0.7372108212216261 11.790771773824764 0.364370826480166 0.2773454122285417 1.0013968588020559
Ni 4.446690399458366 8.34272068732479 11.810485149621059 -0.11063456903013205 -2.9064351773315495 1.9540160339797765
Ni 5.557803724994321 0.4689707858773242 9.455561497550528 -0.11367309874613972 0.537514569788113 -0.09804413395963114
Ni 6.184905730301237 3.6901523569976455 6.685926416170022 -1.344019237861537 0.5153799426726028 -1.104229415289266
Ni 3.377348600542616 4.978311977472967 0.8907100424771103 -0.8650641136748715 0.5471883454324512 0.6612867046414675
Ni 8.04082394059837 3.1465748398081956 12.432953300241572 -0.4773361005260037 1.046769116289268 -0.7832914631817542
Ni 5.772741435858948 0.7468331244426267 11.745475658613962 -0.14941040424674915 1.3121046485411274 0.370817096326142
Ni 8.336714870052953 0.45351160800326024 2.8387873795721794 1.3267668785389923 -1.9139183946279428 -0.9520990410081925
Ni 1.404915678659527 5.104341314566858 4.55318737070465 1.8695316409824514 -0.8277442941784906 1.1199563391062195
Ni 3.656660875209713 4.030803797866144 5.8363409057785764 -0.18090410397965617 -0.2480759738404631 0.267390615008675
Ni 1.556481342360569 0.48529509848049995 0.577813460407369 0.7287169703699836 0.32941487923027135 0.4897547859053307
Ni 3.522797056234166 4.588333004946743 10.769011456754015 3.6609107447228757 2.6690886740934485 -3.4470330140306764
Ni 3.6396273749101415 8.696284171199668 5.057118139594644 0.6456885930928945 0.8218006750005459 -0.21575360755867357
Ni 5.608180186098287 2.8394148807276296 13.053859195766492 -0.7199551650169537 -0.5360295006021542 -0.7016093155199143
Ni 6.16534737328151 6.30373179969351 4.914044163127415 -0.12940002256309327 -0.9904529581960425 -0.24986340475818902
Ni 1.435956564219074 8.096723525777675 4.050982229992145 0.08057554486122252 0.5656879468985354 0.10227745531468836
Ni 8.211660201913533 4.323417983121408 10.044281967686505 0.022948638376373384 -0.06432591577157955 0.8290843531461527
Ni 3.407739706799182 0.7180414035275409 2.754472945473518 0.35538842047589764 -0.26305753485095984 -0.43915470436027587
Ni 7.82426178147629 6.645237236217355 0.17610968448692704 -0.3799303714813199 -0.23535775494284625 0.9014639924601442
Ni 1.6677049939079656 8.165303089926578 12.390415034043851 0.039053771468352094 0.3216846004655492 -0.7256226477153762
Ni 4.947484590827256 2.61113812902895 10.08864054418872 -0.8780232449387008 0.025685834801878343 -0.7916182378798947
Ni 8.884246758429114 1.9612474353103455 0.8349691890989629 1.8705179161551204 0.5801534875045621 1.8334001853672166
Ni 2.7066185563212652 7.397867320298719 8.157068529645516 0.7691272558662302 -0.49368908796273037 0.09595382708950571
P 6.159842814329114 3.885568841088431 11.158575498782477 1.058243692587771 -0.9684065199189645 3.1095656968095735
Ni 7.004110345253735 7.512395563729847 2.5500857939770074 0.37637427869894535 -0.14761654557111997 0.008792915701281632
P 7.907127207729303 4.426862848155976 4.093478724663246 -0.3875907162400551 -0.12287867650480774 0.3427373073707904
Ni 3.4007685031343438 8.199026635751288 0.399135291161373 0.5907181503942859 -0.9860198621253535 1.0314579398534947
P 6.113550680272457 1.7285057715440402 7.6065114544859025 0.28417426222491704 -1.327844170763571 -0.35206192720582596
P 1.8372138489327534 6.754465137048453 2.4492920284986024 0.9235865353907964 -1.3709736549631937 -0.3397088049571117
P 9.433217443833307 5.60194230478967 12.10410463628365 -3.1747022814079067 2.6334148748409225 2.022745735246007
Ni 7.096573940067923 3.261158778608151 1.6561017920690202 -0.012172630806791939 -0.5231320758141959 0.7232428346292898
Ni 2.06956564511727 0.41890343407034775 8.074710859504973 -0.7808072633073199 0.06643961968047267 -0.6243718338929891
Ni 4.381192645717887 3.1842527568196197 1.7532010980819048 3.1555442204222173 0.5761824186719562 2.3189499320522646
Ni 1.2136670646692909 6.31240171210757 0.4140161654557839 -0.5143617858207334 0.8264428017582477 0.8458230060570724
Ni 1.0531994245174094 7.692124518934378 9.955049632520426 0.4836072782466961 -0.12468796179940463 0.6183549382749479
Ni 1.2758138137186832 2.990423590740402 6.143193612074448 0.3059772170326215 0.0822598745421809 -1.155115403505856
Ni 3.3731436001961823 9.112746291603102 10.125933234899092 -1.4865457705042593 0.4474681093219778 -3.6144249424565107
Ni 8.735178103763813 5.814169507704719 5.877534128819128 -0.6645574049729392 -0.26904486278264633 -1.347416950689176
Ni 3.3830573758473776 6.541374655916585 5.499476749990309 0.6185104900162057 -1.7690130773403985 0.47009793090635166
Ni 7.371309911929741 1.1839999982074747 13.189976820667235 -0.5444465210212559 -1.8305069229798214 0.11487586080498925
Ni 7.867694886599832 2.9621953213066154 8.005340421118728 -0.16485167850248383 0.001568887149016653 1.2340153604368682
Ni 6.1907630265895355 5.217653542445265 9.704727725583895 -2.292490452309155 -0.84022391470274 -4.69651021754857
Ni 3.98003746918039 1.2090907618640108 13.446574667414412 -1.4890785642284419 -1.759608496197047 -1.5331465010819338
Ni 2.963049316961962 6.187272783476382 12.54232043949474 1.1698043729765983 0.15215299998889278 -1.0566760909903352
Ni 8.930232567957225 4.558944415329061 0.3938692940387859 -0.04380182767629876 -0.5652179492406524 0.503683480171281
Ni 5.163239167101345 1.6192593055900002 5.274914879392386 1.052899140446406 0.48242508501313697 2.076812178073107
Ni 7.369277030967558 1.973268352415493 10.553443459965496 -0.6448576125511669 -0.5744073290494042 -1.092406968733041
Ni 7.270389903615328 8.515218527143292 8.749987502334896 0.5878359437504844 -0.7210602251556743 -0.4311791423539671
Ni 9.381699227668388 0.4820341346356827 9.498751399563524 -0.6376454110734437 -0.03539149212541647 -0.9767001273863244
Ni 3.331075031608901 3.029484609411029 12.075329623979211 -0.6243106416377505 -2.6150060333164316 2.009709213777023
Ni 2.3631544993270057 2.806443222382082 3.5859212590064713 -0.7459024810103349 1.4148518444033826 -1.4795127749168777
Ni 5.7982777624661 6.0944935815721735 11.5740759458175 -1.1868564433628785 1.8612472894864718 3.179493789259279
Ni 4.017409061663265 1.6731074446841787 7.75296799635322 -0.2684331973405764 1.1583310822296762 -0.3153208630310505
Ni 5.581854841766087 1.3055922709181529 1.2367397994619973 1.923361285208397 -0.6595272987481996 2.7730476308756176
Ni 9.085492691123786 6.090548492946931 3.3844683251909933 -1.7637788255246527 1.7178452962173316 -0.834251499169389
P 5.567736065768458 8.995925255488599 3.0367082987478824 -0.5476421451404181 0.751985196869305 0.06482059601981094
Ni 1.4192665186939348 5.420626031573571 7.06345283248269 1.5865472853005773 0.38679675958384996 -1.08285892003329
P 0.15392807559545163 1.6445635681603725 7.600900146076588 1.3234301008562757 -1.252064247518779 -1.1346581640927684
Ni 6.19890383299974 8.663878749103862 5.391591107547941 -1.2753640985869843 0.368461708720088 -2.5090812110571434
P 6.661231089632158 8.218074451890102 11.070946261982467 -0.40070179970071634 0.24983049463772458 -0.4558355074500666
P 7.033433956941118 7.221210892941141 6.739576836704865 0.1228128562638788 0.3242801291068673 0.19414194282616887
P 1.1371323453396058 0.868281517450502 2.8265065507458393 0.9578855657829827 0.4855700584000218 -0.16777013770085944
Ni 5.840012158840419 3.79116519092677 4.146600039194233 -0.29255991518545094 -0.2753492077341193 0.34308697740072525
