# total energy = -381165.58628845535 ev
CRYSTAL
PRIMVEC
9.27125448843944 0.00000000000000 0.00000000000000

0.00000000000000 9.27125448843944 0.00000000000000

0.00000000000000 0.00000000000000 13.56941809659724

PRIMCOORD
 96 1
Ni 0.3833469056666407 0.9500810804199167 9.245740049246663 -0.8668793125067393 0.6890736449467487 -1.2614606011320144
Ni 6.650641732975751 3.756378575151793 0.008204133143990634 0.7993677999183266 0.06552199296220974 0.15385301339913504
Ni 8.924667233211473 0.2770584622237072 11.549691304892232 -0.0920462645049834 0.7674465257296976 0.08702515714130818
Ni 7.72634831243632 7.310449104948155 5.296307067897557 -0.8385035895775236 0.25468216630307106 0.13822687682610388
Ni 1.2609555164591866 9.197983817102132 3.2291139852336364 -0.04269033977967487 -0.0871449705486241 0.9806436854151047
Ni 6.046925450980906 8.53187199204134 3.3108836689154693 1.380019567215546 -0.4132518684515851 -1.3136483388791633
Ni 6.254953860388592 7.087048955510255 7.958748995783346 -0.37634291124037766 -0.6002620853289792 -0.7081430028733741
Ni 2.7013376220647745 0.1975611630300559 9.102895049145626 -2.0305230651985804 1.9112061379031022 0.07132600123849651
Ni 4.515703593375295 4.574983994915216 4.331209336496375 1.8326437668171662 0.35459652070222153 0.22425675993367827
Ni 2.668925316186832 6.896459775895592 4.866916330800246 0.5599011650134293 -0.3121697189965785 -0.34357497278073734
Ni 9.019892288609741 7.1070470515568 12.102713294178265 1.2946584280402218 0.4074607156911047 -1.089673371851962
Ni 1.4873780948776962 5.745007046828962 6.970040160440701 -1.1927807792671137 -0.813021386146019 0.29212874118530335
Ni 4.357953197347495 0.5312642091274659 1.6444099686785116 -0.49133781412173444 0.8615015931345937 -1.1143225378592099
Ni 1.1984301758296545 6.001570473762687 9.55209660294774 0.6900475788242438 -0.089044244453866 0.6696327626133177
Ni 1.8778277086487682 2.7685634887469717 8.425347131607591 0.7418825612176643 0.030652691888850433 -0.2815543081035667
Ni 3.9621447984512934 6.632191936437677 11.378106342837238 -1.6826132124879152 0.22912077289419894 -0.05516404676665338
Ni 8.845676144515801 1.098254270506094 2.1912165089197595 -1.2019439338236204 0.0710066702258648 0.5410138411906231
Ni 9.09014985552709 2.9659206841771093 0.8222443871710582 -2.6650024198392166 -1.7177144270664224 1.9070373512373933
Ni 8.917871403632374 0.9946480010020875 4.62444428364452 0.5889628582660759 -0.03682282525530432 0.33531196144099673
Ni 1.845192892661824 3.760522825931953 0.7219525911657257 2.2752915719323656 1.3710955252530386 0.3272731502969202
Ni 6.122402734205256 1.6692152102049518 11.851272235378856 0.9222413342168118 0.9264276043840175 -3.2895030660005866
Ni 5.4402423675327025 2.733082397615712 5.426762890554459 1.435438924526115 -0.762270637955713 0.9619486801087627
Ni 3.1336191363282024 5.555409891450266 2.737928482364682 -0.09512593187157166 0.7249053099333773 -1.1747195508900286
Ni 0.4476347117845585 0.06782757110195625 0.2862981945000108 0.09801276650106346 -0.25638449370615846 -0.3421359263413656
P 2.2214482157294837 5.102110443140701 11.757317341852806 0.1914659386559025 0.8735690658220892 0.2619229070258844
Ni 5.634057943727893 5.739889314321919 12.605040063630035 2.750048855987599 1.8428145367025812 -0.4191844318859361
P 2.4751097399916415 0.5249643916663498 4.929335052002547 0.8693020630156191 -0.28714414348651834 -0.2627508022438184
Ni 8.131186913256181 5.7630674506762825 10.283936059956783 0.2468834961942587 -0.6433008095870083 0.45144072081648057
P 8.220645248329484 6.192196738395517 0.18668134582531748 -1.6438026673786206 0.7909412664175282 1.945991106792771
P 5.462502649687433 6.420251057613374 3.4843284446315366 -0.5210685084169479 0.13939544321290834 -0.7208347394084295
P 3.434925637680391 6.272745397854202 6.745235415939726 0.4731110067010626 1.3253278320996207 0.5237254864238207
Ni 1.2303974614895932 7.915565346378804 8.031114845983486 0.7591488044972797 0.17809363111405457 0.0802454152153134
Ni 0.635968195169215 7.844881301752536 5.174847143522511 0.4777289650890481 0.49743107150366594 0.4084534186216772
Ni 7.5575558522493 8.401990987166027 1.136670640825271 0.4474822503893648 -0.1341791891192915 -0.498975018952018
Ni 6.264837017730093 3.6599946129358063 2.6867446674160673 0.4390814279201793 -1.3135310965750089 -0.7900663200117425
Ni 0.04477737806026847 4.6108266649736045 12.898925852847011 0.5558953862881458 1.0927496967844408 -1.940318481888026
Ni 5.755974940951847 3.8771181230489447 10.87318825774105 2.0257122740734985 0.6207735750187696 0.4572796960957608
Ni 3.7991283298437817 4.422703639067046 9.975422085323842 -1.9838503437323898 3.231386107253196 -0.7292556164822731
Ni 3.820387316508004 2.6365779090906822 11.162949265812403 -1.9428147659473183 -3.03756940897693 0.7689675903599144
Ni 9.093042486944114 3.201874112264534 3.71237534684576 -0.6846138094031822 0.13694955277557705 -0.1530243468502526
Ni -0.0612236564918709 5.1514242460482444 5.1935722963204745 0.3231946093521724 1.424453629159205 -0.8177815265388237
Ni 8.444851996912515 4.788871837193286 2.012670688954824 -0.8867200013817502 1.64474909045229 -0.7263932073328135
Ni 9.093459693398493 4.135266934509308 8.691144728064895 0.03592088226632524 -0.1838341331422576 -0.9708722078506378
Ni 4.2774230803978925 3.590691985236258 1.3558264099339605 -0.9194144062909777 0.6668027493636903 2.861556571651304
Ni 1.310575270766609 6.577204125750584 1.1812894804328755 -1.8187022170354097 -0.7710432419420205 1.1626063125662622
Ni 3.656851657646154 8.52794098011564 3.373316296999584 -0.625907039590593 -1.1895401608426288 0.33828878468113355
Ni 2.686855922470568 0.8272796055126801 12.908221212650565 1.0612415988738302 -0.6223329490860895 -0.5300822818797839
Ni 5.573535194079378 5.573155072643167 1.3749622793081233 0.782995272097574 -1.8873157044387496 1.3877848129832617
Ni 1.9395186363695431 7.635693985527132 12.805812789233352 0.7166471836896432 -0.04878873936792888 -0.9431958249812916
Ni 1.368353729070767 8.553566727669024 10.553166801970894 0.37755364371902717 -2.527444029835047 1.0273151213297147
Ni 2.410118245654006 8.692635545795207 1.4204062605699432 0.3934325197328128 -1.486541656739201 -1.4316056668229538
Ni 6.312342926001997 1.5685201146270533 1.42571127241873 2.1956526799527993 -0.027542942615275144 1.3180917193624977
Ni 6.850937916095622 7.838168913464313 12.237525679344333 -0.9320457219017432 0.41193597785363895 -0.13436379432627182
Ni 7.811337902820501 1.3731747814324746 13.074053361262406 0.922465791522792 -0.21175245681908045 2.8879746566335167
Ni 5.983102134715529 6.629827766529532 10.167144212243507 -0.45317955788445824 -0.096502243393808 0.8142920253283266
Ni 7.519543708628143 3.5046176580706923 5.936986914624887 1.9103643587280972 -0.8293070106799201 -0.0018825617346935317
P 7.551047431560995 1.36088109791012 9.543440032582113 -0.390997685039075 -0.3830313790041468 1.6131869993752925
Ni 3.359717220837751 2.9832764726792567 6.139971761561864 -1.0000357167884713 -0.02141651800256312 0.9078210450264237
P 4.685478806543739 3.4412671757869453 8.390567874445141 0.1207652297062307 -1.0717862071588962 -0.8038587458101447
Ni 4.575150877496967 2.064059398628811 3.4910315616652183 -0.7416958991281548 -0.23505076522538876 -0.9758259523114873
P 1.7580430999694159 1.5239902790630495 10.883473787529663 1.3070583443664716 -0.8813677359309013 -0.7616615436168044
P 4.556784522249769 9.024119980680778 8.925854880918271 3.673963978362408 -2.3518376839192205 0.031043242459049762
P 2.1346600019642037 1.637581689708516 1.2669809047858671 -0.43576316218022376 -0.7383190122361221 -0.6833763374516553
Ni 0.9100236980468509 2.339452743536821 12.594984460954059 -0.41133742503769155 -0.5215559895763275 -0.2404840204258181
Ni 2.1767514975837283 2.7216045844930306 3.0431187122444077 -0.16211525340792726 -0.6421317289795715 -0.023073593990011878
Ni 5.31259573500195 7.637854187835359 0.9327586684341194 -1.0347204126548502 1.972355455718913 -0.26184963058578775
Ni 8.601564012431641 6.691685576832058 8.025375012296692 -0.07314762782826757 -0.4898936254760402 0.16471438159367116
Ni 0.8776531128143462 3.1895526149785534 6.0065435746988785 1.0345273228074376 0.23375672900431352 0.1878514818317668
Ni 1.7848926531223108 0.832892423012253 6.943185971660536 -0.5377529110511642 0.47457524995141487 -0.9452092558668946
Ni 3.696782950957452 7.084786769402069 8.93736143493003 -0.3950530860553712 -0.8803634630361031 -0.4036156309134017
Ni 4.814951876219215 2.2425403198119547 13.392418970971406 -1.6608166854381141 -1.994765447982997 0.13021994736122733
Ni 5.27366573718116 1.6383790175991062 9.656880321778548 1.5244903680688326 1.075990989268863 -0.6457114759110298
Ni 3.4242451524483 6.074145854315471 0.33813656001927267 0.03853338018850783 0.5311030098348144 -0.18200993544932526
Ni 5.359035449001553 7.239913400394556 5.594779346736334 -0.3088306273210165 -1.3837142424583138 -0.3646888719412171
Ni 4.20528344880857 1.3458153092797838 7.549250662430804 0.701563035663011 1.4317031116327665 -0.9587718250426777
Ni 5.010649517086381 4.987091259295805 6.8956661565068185 1.3925308123086793 -1.0277228982910944 -0.6054037774309187
Ni 6.83876475888231 2.5546200189416517 7.882109097239462 -0.21604337088495051 -1.9521553266219538 -0.004558565904959891
Ni 6.8637693323813975 4.953297536491142 4.312998738325478 0.9040494937991334 2.0357362339684038 0.6329099532709874
Ni 4.920143530249861 0.1281667499105446 5.014280140364929 -2.356506035929167 2.430025188164241 1.0879011104428877
Ni 3.631318622638187 8.523666931771894 6.715939178713264 -0.8684659402675688 -1.1135424651600758 0.22445627753899408
Ni 4.149387055176387 4.237825552250097 12.783653563753127 -2.173445804838457 0.11031189558339066 -1.251194186209
Ni 2.4365227785888965 4.297096682535477 4.626873352334457 -2.8423571159047176 1.6298739731126703 0.3893827751434713
Ni 8.678422712582712 7.354728616639532 2.9817439343035064 0.3512934244709176 -0.12275089267769182 0.2598804226745589
Ni 8.13128889705614 3.014566956757648 11.32329932161371 -0.2453557466958226 0.02136278194649224 -0.9191560104232686
Ni 8.700367772083023 9.100691271941054 6.9014606905954095 0.27410607935563763 -0.9953614512412535 0.8829034558491375
Ni 4.654726055228769 9.320484903362216 11.213210590934114 -1.347054425143435 -1.890871025890176 0.31561088346764354
Ni 8.033032141422721 8.251333100862661 9.893897162761911 -0.29842691548918926 -0.0905388267215215 -0.7803493498342948
Ni 6.933331555208114 0.5102323681995161 5.621361887758427 0.15108753483885592 0.5211345857681928 0.19668836339710644
P 8.999560427399693 1.910091674454043 7.024399380069864 -1.1446283879316028 -0.27151055071431945 1.179293543413956
Ni 1.1802214319096664 3.6092159518106657 10.541388600201062 0.20757004330661669 0.8811083116219277 0.4264938210631558
P 7.498664843400132 5.543236734236953 6.600395241861307 -0.8071551571732292 0.30674854798100715 0.10200954636528238
Ni 6.4408888702233 0.10698193328265604 7.961082570551504 0.5088843076459301 0.40144407718337954 0.1472445069436819
P 5.583733574075298 0.1299227255207512 13.248053485125522 0.353309683569998 -0.7032129125616082 0.7438062606029384
P 6.861191923618792 1.750598282572394 3.746638195130235 0.579829271395924 -0.0877718054993456 -0.3635593863224642
P 0.9992001869820846 5.024055751153745 3.100625522790493 0.36918521714967384 0.47266312053036663 -0.20637422322630264
Ni 6.758077030605499 4.614396097972176 8.594082110016453 -0.626930595759101 2.1644649414960853 0.41618601137924455
