# total energy = -381171.81200464384 ev
CRYSTAL
PRIMVEC
9.22823331145776 0.00000000000000 0.00000000000000
0.00000000000000 9.22823331145776 0.00000000000000
0.00000000000000 0.00000000000000 13.50645225543803
PRIMCOORD
 96 1
Ni 3.4052550718734147 2.07923174478852 9.92031409210641 0.8055435897117353 -0.470060649910513 -1.9088394374431383
Ni 7.42734372689 0.6942510795631571 5.142027994557797 -0.8214162950779337 1.6946863416023654 -0.06173578644690013
Ni 6.109145941807221 1.9446287310587342 8.358225169682223 0.37227851136301693 1.3670136418741812 1.9961476730425038
Ni 2.427329940380267 8.808044337421281 6.579168481132638 0.8652962842903356 1.0296447979041559 -0.06853481164660453
Ni 6.131321386891047 7.14438763152577 1.7966826145213326 -0.659428054166174 -1.8345114161535243 -0.8570808383590788
Ni 8.831299485823795 8.939537436463906 12.65098068152033 1.200220009153978 -0.8167649123488514 0.06241507190211186
Ni 7.857766993473344 7.377557407194939 4.930598091351582 1.3646263725889274 -1.1110621219403831 2.6832153433028174
Ni 0.3444908791193097 5.888102064947935 0.990629640543045 -0.45659989641991683 -0.5517782787959787 -0.8355074830636773
Ni 2.903331452185837 6.477703131053085 8.213098278476952 0.19664876840842263 0.8345538609011562 -0.5374670043796292
Ni 4.9495445775361855 5.786056258981668 13.192764732957837 -0.11590867294487779 -0.2685748651247632 1.1340308149214147
Ni 0.7914880530561897 7.3383466430829225 7.694747480348377 -0.7163463646197727 0.8229157624415957 0.2909470621723763
Ni 4.073979011948067 6.330854251478007 10.968846283701666 0.6450748707682955 -0.27021085806628947 -0.880415142209645
Ni 4.0690511352627725 0.8712661316037005 7.7596191933345455 -1.3517803698641946 0.32392840219440344 0.0785446304741228
Ni 0.17211578287907736 1.962919089841981 12.625966631814041 0.5133408007553868 0.9757953561838678 -0.6948108045408421
Ni 7.514458251064495 7.858542165086761 10.787158054220235 -1.401991700611263 -0.3934386903803998 0.07467923398144559
Ni 5.348684132578051 8.924919914610896 5.015364952925442 -1.3080693021294891 -0.41647268938172793 -0.7365079271693122
Ni 0.4416586408611443 8.091601201954012 10.281071578403937 1.2388639467784213 1.5777826517340698 -0.7182255839203565
Ni 6.816508495517319 4.659722676453117 5.095066437134959 0.6675632816787987 0.820807200739025 0.7621837346688615
Ni 1.4526808317771551 3.0592332288176065 4.734133614401062 2.1316905752785416 -0.9833006634219775 -0.23145636300591105
Ni 4.368987180254235 4.609696422687234 5.047158985779084 0.5548232362698897 0.3510172879913955 0.39735088095061244
Ni 6.618350637720824 4.163086834557062 2.9763766115768107 -0.05801822838599686 -0.08259566061504484 -1.1755525883142852
Ni 5.480232601021633 6.277939560628797 8.933086901252256 0.03988526623071195 0.19551928278966973 0.4620760890431396
Ni 5.190881339846712 3.9762981604240184 9.688691891194027 1.5748292255327005 -0.6637392799470182 -0.20188224889322007
Ni 8.572124548171182 2.8609738604526878 3.801809798713875 -1.2725487406253762 -0.6067983437856 2.164840836778265
P 8.495945480685965 8.911834279517736 6.55903063000408 0.9484760995436246 -2.2269530327279776 0.6239738271236221
Ni 0.6617261706168643 1.4754007426370708 2.467426614907616 1.1783849155567576 0.16366228618007297 -1.2703226795083349
P 8.715577437820812 5.932702117419898 9.707897690739786 -0.06481982468886256 -0.20376635328981035 0.13520377372906392
Ni 1.3346240407004282 0.5894534143692599 8.269784548354776 -0.6200217844544096 0.5135038086958124 0.07603523378870776
P 8.6412532452677 3.1414475610072854 7.3983753791319335 1.3138380862924663 0.7808404305381004 1.1346465941285426
P 3.6161386636568404 4.093275248182057 0.6107521772712443 0.8431176913107673 1.0145457374791882 -0.3672864574650642
P 8.885183141189776 4.143772141856086 13.027851586320093 -0.07311343215622247 0.3941436868672244 -0.4303761868366975
Ni 7.039204226171862 2.6070128747236536 6.239818650892312 -0.5696947540650834 -0.057253839416146556 -0.5963622360539408
Ni 3.07175594166769 8.731320804159974 9.47142697595015 -0.31568904500374667 -0.7132610408262297 0.20300273565090843
Ni 4.3676490863977415 5.022955174973483 2.7023571375272595 -0.4265059052480138 0.017258015749499308 -0.7380742432151676
Ni 5.930145896742321 0.08121952861912689 1.4328050624798006 -0.08192717379311051 1.375376669126896 1.28683713222359
Ni 4.556689449503093 2.2936405217662945 5.586714418828015 0.07241974852330753 -1.3943185003367213 1.3865545401205863
Ni 8.540397881422038 3.2823811429133096 1.6785141618193395 0.3864936265211344 1.263983367553868 -1.633094279822181
Ni 2.6300188608218544 2.8140298366734875 6.933888857079006 -1.0167255187393265 -0.9826887408695915 -0.6206041393204409
Ni 7.139958079449101 4.913019229370651 0.5999902113716368 -0.4032795877302216 0.5586444097881927 -0.2416957813457321
Ni 1.5773542662684068 4.414879185415227 2.6612029074416057 -0.49611415246445534 0.8920247014241154 0.9135003547993881
Ni 8.464670997377981 8.05209513437022 1.493678181893427 0.7614358007592436 1.6857450732486774 0.07077964181672326
Ni 7.886420658469298 3.497952677311211 10.13901030636506 -0.3466368995355127 -0.08143300776551136 -0.8623104621891342
Ni 8.424398986414264 5.772001659371737 6.5900817900615305 -0.13876423738681265 0.10261555538039747 -0.1298250259156538
Ni 2.589866816893547 7.867078281067842 11.700059206874577 -2.1614114993817424 -0.014991588312825797 1.5823389036461843
Ni 7.644853190321445 7.3532594684077095 8.3170303353692 -0.24585865447417013 -0.9442967713549543 0.2228261981347388
Ni 4.123451571704367 0.1736550522257199 11.629001808978009 0.8146589217494422 1.191156099179497 -0.46491587248478
Ni 5.488298077094568 2.7699004241096703 1.2199909242496265 1.0173364128504478 0.9575608354537122 -0.8454411972376213
Ni 0.14876096955483906 9.222918030568817 4.103355247626528 0.635088448979545 -0.6102094263496781 -0.3553560245760654
Ni 6.709857801038015 4.541592059508445 7.651742989447364 -0.2715594016743839 -0.3696547005869246 0.6502276186138286
Ni 7.1948568404993205 8.641059452364345 3.4014788787280543 -1.3951895900877649 0.9999961217997875 -3.4555140549184937
Ni 5.842376167989819 6.684766234170382 3.860441380212037 -0.6502268472828803 -1.436746587593945 2.6160092777699653
Ni 8.074436687656918 6.087035094357848 2.9117882053588775 -1.6034353193051676 -1.670872012791587 -0.05655861312133486
Ni 0.6948767537939867 7.196887051867794 2.9961361051321522 2.6140809503990012 0.27536566279435154 0.48333859796634177
Ni 8.324244968314074 0.9937976931012127 10.609115899791915 -0.32597294342825794 0.6772661107888595 1.257752041932176
Ni 6.055935947486233 0.06402363832815736 7.17470883831392 1.504724755406131 -1.7331132781199958 -0.6346482761183329
Ni 5.0311037051478555 3.7205099844633587 12.040313403997224 -0.39017698890999253 -2.1415255590910927 1.761088937397315
P 6.1444254784511925 1.8377750154425831 10.7711120018225 -0.06336920828526506 0.34051561712912326 -0.09826293483865657
Ni 8.986693709613446 6.214015587222365 11.933517826252078 0.24356214513050958 -0.15028972152790893 0.630827616820662
P 4.536701095757123 7.660827262497933 7.570299214754356 -0.26277599905479904 1.8320871229827478 0.3404924772006716
Ni 0.5064805213864515 1.3306374438314257 5.971513299021665 0.4077749044974138 1.0145791618202848 1.1480998914199712
P 1.3284411242600773 1.126435093096976 10.448443126444232 0.16667973285015814 -0.6659907949853562 0.2708639182692561
P 3.387767569404065 4.301907150993177 10.933257601235674 -2.566214722845342 -0.4682379948794775 -1.0028847562014922
P 2.519160091869715 6.157132755971137 3.7985005541832635 0.4954096701982629 -0.49937405416264957 -0.10370801711362784
Ni 2.7894550508814664 6.452814585322299 1.4316709125835037 -0.3096497807882022 0.05264565122017385 0.8257632591927198
Ni 5.5568915366484894 8.85437929778994 9.623199118093774 0.3485307741241159 0.40093577008839343 0.02046752382573249
Ni 4.215124843224433 1.1656827701429637 0.24013616913307936 -0.39943553139378307 0.9230329768801715 -0.5138038564347345
Ni 2.1822834282055297 5.649469175050876 12.90278133778864 0.390953719175017 -0.2569007712209446 -1.6672979222870834
Ni 8.099657449793455 0.35463363055153285 8.501082838271552 -0.007695054651412555 0.6400630193760009 -0.0826833352328447
Ni 4.277766092175329 7.980437901296601 0.31697505531305026 -0.24936563918616408 0.4216046112916545 -0.36321742960201314
Ni 6.3249666385094345 0.2736955630539443 12.678385766524674 0.42362858370021883 0.7974736682194071 -1.4544154656286177
Ni 0.3575552892754359 4.885149964221607 4.773680286212227 -2.160745326552653 1.7348426021062766 -0.8490124595286475
Ni 2.4637353215103914 2.353660952405162 11.882976637057283 -0.13253471153733307 0.2835942213517309 1.7455268212930004
Ni 3.0841125463148984 2.686532562733359 2.138422557236361 -1.0179712182209693 -0.4632510831878474 -0.07649314726173279
Ni 3.606744321960905 7.1123748895383425 5.612849698903712 1.6915861054104866 -0.11673759660407637 -0.8830371532135244
Ni 0.925407254684139 2.82543593327091 9.073553534543532 -0.28124371884168337 -0.27830160549422395 -0.6485551160074121
Ni 3.929206484908929 7.876804839169528 3.06641002600516 -0.20888721945614347 0.5560223987843133 -0.16356869802500218
Ni 6.692167277431818 5.1169724178007865 11.390787880881534 0.6157727793700685 1.6409921945130188 0.14438801133149326
Ni 1.545092361976666 3.475869514562316 0.4946222413478683 -0.49430383872859385 -0.34804766384011027 -0.8323010603112376
Ni 7.252265681059651 7.359257820178198 13.365580015935686 -1.113752781398669 -1.5885900267622188 -2.0517454649124662
Ni 4.793910419675714 2.6048165551523055 3.479613408890451 0.7173138707393646 0.173183852517263 0.6783043222453866
Ni 2.2776479931228204 5.223540058178653 5.887476390717106 0.0682447912100115 -0.7946436549697798 0.8107577869228231
Ni 1.929863557469837 0.6365017171869318 0.15322835738882976 -0.25415431882405903 0.833175749606707 0.023875521066016946
Ni 0.9228325775395751 4.938276904441158 7.8618763258478035 -0.18097712330943672 -0.7556397629027567 0.859692822060629
Ni 1.2798267902186329 7.338060567844638 5.300270051203406 -1.3275690627253136 -0.2629055826541279 -0.32300614749045015
Ni 3.167102050117994 4.26881470568706 8.593804437116429 -0.9600964573913724 0.48475681847010704 1.1745822539812159
Ni 0.8011896949274446 4.242532696698823 11.012837272763086 0.15946598871053827 -0.9032167134851928 1.0050570812624626
Ni 7.929571878282849 1.2231469801042534 0.840979069279475 0.049975817697494575 -1.0243102730651197 1.2825230782292687
Ni 2.4042224437136426 0.961674212311868 4.1244113079876445 0.9575376955252606 -0.5761477087792787 0.2788986156482745
P 4.748073783915681 3.4303281822740614 7.4170274846681075 0.5155367799654412 0.015169765761902907 -0.07136379645496742
Ni 6.062072722759118 6.621746627646271 6.528991807160818 0.18761185501713495 -0.10837045558630369 -1.162897618554436
P 3.1670374524835427 0.549041134256448 2.027737279073891 -0.10808223492192354 -0.8722086951394526 0.7090552302749982
Ni 7.1248606894544535 2.6437135593255565 12.760315869122767 -0.4399900557773777 1.0389791879312043 -1.1406359789427583
P 6.624081370720016 1.7136737314279014 2.90036180664777 1.274074176130967 -0.3093638741166672 -0.11628482533737391
P 1.3465284619064763 7.953694480633711 0.5766049448768713 -0.8365652349042302 -1.9818685374156708 -0.08657727097061219
P 5.623362502499007 7.563450942679155 11.889689254100137 -0.5099209764405604 -0.006466324450634025 -0.3524720181600511
Ni 1.7231972683927401 6.200717702758864 10.2618380941577 0.670131042405975 -0.5597510125888102 -0.8050975033132521
