# total energy = -340891.70616861153 ev
CRYSTAL
PRIMVEC
9.07774805074205 0.00000000000000 0.00000000000000

0.00000000000000 9.07774805074205 0.00000000000000

0.00000000000000 0.00000000000000 13.28620186509768

PRIMCOORD
 96 1
Ni 6.436813379300815 2.1769983389422056 11.667570750001934 0.5534284128048921 -1.4591966890673451 0.011333165624632094
Ni 4.650657488905446 0.5028337202569158 6.113712718886271 -0.412200030148303 -1.7737799026014227 -1.8203739483108776
Ni 2.4687480881896047 1.6485190722588663 4.671760530134962 0.9855727472856058 -0.9298181181228051 1.8871174723850146
Ni 3.2612627388802204 4.223059237916009 5.067782741802013 1.3510442630291184 -0.7457993797735673 -1.6121151064673527
Ni 5.15506256737496 4.530622424519548 2.710385036299902 0.2358922872900776 -0.4833342270909675 -0.37440018569171
Ni 7.172891669461511 6.192848896553253 2.679149412534838 -0.3488984418761798 -0.005160975375649177 -0.21313185366511037
Ni 5.148835232113012 4.314154441055424 11.761543599319245 0.465197922501573 0.48329617476418063 -1.171953300998801
Ni 5.428684053476429 7.777805575948922 12.582777521975197 -0.08321632491817926 0.9065555480504388 -0.07558529073548273
Ni 1.972649149318751 6.305694384368507 0.21088244499958175 0.4156795040564712 0.8483370307281777 0.6574382774296549
Ni 2.806195221851933 1.6293287125740907 0.5986112259154447 0.004439523828592354 -0.29206703470943246 -1.2841888959674657
Ni 0.4634771429563744 9.186862728565076 4.722420719488238 0.14026884695679714 -0.3534451807065977 0.4348936150910768
Ni 8.548252220776867 2.3292775649176596 1.4399986573396908 0.4394637509602625 0.6224640753473151 -0.30557098273313826
Ni 6.908166376591395 0.7651715653516789 4.835008399254747 0.31035374883376227 0.20460299025849277 -1.0507227016203775
Ni 0.8592052355818987 7.58689145365445 2.515901543415054 0.1193665495864912 -1.837266096080526 0.368289701918598
Ni 7.6841322923220545 4.157290952241364 3.853556759826585 -0.36471895384820413 -1.0375681665162904 -0.45154947848020294
Ni 7.816712804713799 4.071388221069637 12.65533323997544 -0.9987679058196413 -0.7223007824309948 -0.28071124337698106
Ni 8.263338015920496 8.859101552227088 6.898514914710196 -0.44589819373169653 -0.12010728440725767 0.39681377750021984
Ni 6.886960756807272 0.5775808066714903 0.3365448054917197 0.2444594601337983 0.10631562993980398 -0.06691758775815572
Ni 1.8872820052905441 6.428879427378159 9.224703321917008 -0.4050292234314766 0.9166928935947567 -0.20453742712788003
Ni 8.924434105988361 5.189648787998893 1.3458388064095568 0.7692493832663913 -1.3366237167284143 0.7538281636153147
Ni 6.48625079597219 1.8275504221657461 6.967496723245962 0.9402722235765936 1.093168529489414 -0.11094207296822184
Ni 3.5342669381044116 4.285505067751189 0.561498667968771 -0.33356618239448355 1.0558744210246462 -0.48784265648428243
Ni 5.893092573397636 5.650308197915459 5.069722656591339 0.2629973710369858 -0.16884820125638664 -1.0858475703479686
Ni 5.296375873530542 2.7495773063581086 9.103878493438124 -0.3720499402919786 1.43958405704274 0.5924276768862249
P 0.06221616280584026 5.864533977575355 12.394140098928098 0.43910071119388894 -0.05388775115739106 -1.1541525253719545
P 4.007753206220878 6.067185628286296 12.337394187184719 -0.2993365717876522 0.09464899223515312 1.5497956796028407
P 2.468021868333984 8.293167496490115 1.3738327662940937 0.9185782835429276 0.33238218938871145 -0.45540767588402853
P 6.714183975406925 7.959514861573404 5.859826257361293 -2.5798456833652152 -1.6449617206837284 -0.4132246147580754
P 4.8095907043080235 1.0560053698061767 12.872216984306904 -0.0615007876179586 -0.4413817939185818 -0.6712163050503537
P 3.858623958869178 6.109115747200193 8.333704181056039 1.477457949270378 1.0868708694061604 -0.7343556567129997
P 4.8153096856710365 0.9681055340314927 3.8391939466320477 -1.1291714299465843 -2.8743110431034946 -1.026560245441561
P 0.267064628580034 5.582905917565668 3.546286784489753 -0.07009572837582122 0.4872402470135931 0.3642070472087921
Ni 1.4132873832751438 1.0449940612453283 2.666474152729799 0.03471143533925635 0.27918760764360306 -1.1738826568110299
Ni 2.052006824041697 6.386141388874884 4.766411487242459 -2.7687623732367026 -0.17984995168352896 0.08966773697047783
Ni 6.031909498799522 5.494851760071665 9.321997719298967 -0.37684993278378326 -0.11332291449557257 0.3827004780272893
Ni 8.84018352498817 2.2573545659666303 10.240831959451057 -0.44271182558391503 0.12054797148910208 -0.044231201904233505
Ni 2.477036072291875 5.133711703619713 6.966633429392593 -0.5117048078138606 0.6983301305480102 1.2961913197449804
Ni 0.5745642709462059 -0.19755631064894288 9.159733878083548 -0.43017281257663975 0.37192267068549495 0.07918534938191524
Ni 1.4902666879709323 1.2040452873744452 11.607238219946609 0.33607789307274377 0.6003340762174951 -0.5694404719624322
Ni 4.247886879230039 6.809391398478791 1.6379226167905416 -0.386286909826967 -0.4716416212443877 0.19168551086587632
Ni 5.638606980491772 7.703767461668399 7.8715569282102695 -0.33941261387293165 0.1478821405276808 -0.11340339002452082
Ni 5.20803122809429 2.7431684161322565 4.5868091469740975 0.6291463724634971 2.8130064306567424 2.078459483868543
Ni 1.0451393052164526 7.446976120720937 7.0041272527634675 -0.6486389339704699 -1.0984619166778695 -0.22572151740466287
Ni 5.12516046481978 4.6137836757363075 7.245112418553345 0.029740721597542326 -0.2072003186720238 -0.3586400946439759
Ni 8.161186115479257 6.884555153535529 9.356568507750968 0.3413818217841605 1.1993931423773085 -0.0010371830152627298
Ni 4.763167100037474 0.6453861390411509 10.659586668148672 -0.30610860040416316 -1.2887145517519611 -0.3281776643890606
Ni 8.298468901436145 7.124271250127708 4.668518866254435 0.27056284208906956 -0.04940374724410847 0.4469058090606045
Ni 7.2791194788424205 6.083725285498057 7.044025771631266 0.6711934222322182 -0.09827861856794042 0.04477241911968418
Ni 2.2203627420709533 5.193606686212026 2.6240511120888996 0.7110820308970399 0.6692730652810539 -1.1588977533664235
Ni 2.1798124408827357 5.382868658334961 11.266619321064857 0.4246246290649009 -0.3089825795178485 0.2933189048386626
Ni 1.1223546313653179 3.531452836163882 3.8940662111479245 -0.6646229681035521 -0.8261391544748997 -0.4629330377267963
Ni 3.5497989652664983 2.4845252145529635 2.701935468279755 1.2559499557264306 0.5658771800912061 0.46021306769247194
Ni 1.1360801866365482 3.4864907493527686 8.371609226420158 -0.5674838624566936 -0.39886243249913245 -0.7320457776329006
Ni 3.842792366016648 2.5681131199348997 6.8312869271257535 -0.9345913711417323 0.49214745450722336 0.7441860125398604
Ni 4.0319817161540215 7.0198226793930685 5.698784281052958 1.295992573470613 0.6805131569712474 1.5986438114537953
Ni 0.9460556836652108 7.75554693737415 11.437971803773369 -1.2638098180904813 -1.0265967551064514 0.705881717643023
P 0.23902527995452083 5.595986952715035 8.069600713937298 -0.38141286956411735 -0.5021199923389029 -0.5749575451259196
P 8.698171232221553 1.5984643687102131 7.925857294589845 -2.5091658003511497 1.410053908794107 2.1287757156245917
P 1.9179738719387116 3.285273382856678 10.470961953949043 -1.61287769566499 -0.4254774639834995 0.948694643312334
P 3.9344231562995833 5.902152166096505 3.840283276415479 1.2507046481670911 1.2235018625000542 -0.7522762457471625
P 7.027039489208299 3.8005172926713313 10.523947862389946 -0.5882424351602836 1.2356917196980266 -1.6172755676223693
P 6.315244175469918 7.839361786460968 9.967986620820282 0.0012058473826430847 0.19302505561290628 1.440072052422752
P 2.4013639633362045 8.510334466565274 5.6549260484223876 0.09295926323755603 0.6177543285764715 0.3497628467590041
P 7.03249521587365 3.983878728467349 1.4897020520331872 -0.6938556397164244 0.49362506749401436 0.9579660413119309
Ni 5.35325704372203 2.9490971339416863 0.5065447037191373 0.27036975224165694 -0.2590499563534635 -0.4853096056497835
Ni 1.3268853759526773 0.8887405971099903 7.105407689377961 2.463351313120196 0.9692246449448856 -1.281666129545612
Ni 6.768931874772527 0.9401460695900977 9.271431030752101 1.3959976878113571 -1.174973061661731 -0.23110489320376326
Ni 2.838512005427052 1.651578273400668 9.19856939263768 0.1086692177736451 -0.987510587738267 -0.10791074234106576
Ni 6.091268894248316 1.9666487577616856 2.4307105077018343 2.0400302333580673 0.005745130013893331 0.5325852508072957
Ni 4.221080288809443 7.084374546809549 10.393064888910715 -0.2709950445304817 0.2828743124665709 -0.623117649770914
Ni 8.235641806176764 7.224534978944334 0.4763684531684604 -0.04044396694765938 1.280034764589776 -0.7422132050842056
Ni 7.6581790102318115 3.7920023648641794 8.224438049354177 0.0462618591810171 -0.3400188799983628 -0.21764491104411549
Ni 3.0626052973751925 8.616998007859555 12.42328965615789 0.5501757101955492 -0.3487174362136253 0.4864694302858396
Ni -0.09058775701529985 4.816653192403934 10.244817998683594 0.24547761698566756 -0.23303270635409543 0.6958914391995306
Ni 8.680968899391539 2.5191749794142635 5.604199591507284 -0.17984326681530963 -0.6633762401806447 0.5637742748155904
Ni 3.653412383167174 2.567386900079279 11.541298364831073 -0.1843486108848309 0.15806936547332778 0.283096455779706
Ni 1.0394747903426116 3.9211151774453348 12.847451979455423 1.5773494208513932 -1.8002344972485251 0.11683427008294073
Ni 3.1465744681813304 8.226627602218873 7.853354227529139 0.5604230989551703 0.6706545190096127 0.7543686094998169
Ni 5.579828560927475 7.913172957036611 3.7160706323101236 0.13760081320633077 0.08192537402089761 0.15261579855792426
Ni 2.991753472711203 8.214436186392641 3.543775879338945 1.302652501989292 0.7635654455077366 -0.10973802535779166
Ni 3.3346835662834677 4.281519936293471 9.25757294035722 1.3113844825456513 -0.5231873545321634 -0.06261638927964054
Ni 7.001376695060304 6.226781519307128 11.555023012327485 0.9966179493561741 0.06897575583876507 -0.8192470553407567
Ni 0.7455091627607499 9.164440690522788 0.40747469879018827 -0.5442094653097853 -0.44188855835167123 -0.0031403454011945916
Ni 4.519592960462309 0.18028407915782535 1.640699499963471 0.13072645468400065 -0.1804140517171151 0.06695923962936855
Ni 5.988581406663557 5.6124267546966475 0.31654652621756624 -0.03339117386593604 0.011054972262580962 1.2949150241357184
Ni 7.85226126664643 8.925886545699601 11.183009629087254 0.08057708752311929 0.1188800968683759 0.6186698984122054
Ni 9.275733883396654 4.947118589466183 5.93284766384395 -0.44091205337101486 -0.05620302955412901 -0.17544693751982687
Ni 8.040570075208864 8.72480534542644 2.524391961302078 -1.3761809101957458 1.2139844099279222 0.3690476631305451
P 8.551256955429496 1.6200330984221465 3.4744618252192323 -0.6620750048707178 0.43107604111719955 0.893005834390462
P 1.9186819362979417 3.2832036562681592 1.6313330793756038 -1.8887318680599856 0.13596919114017875 -0.49010445593526564
P 4.861542657229486 0.8437603548024865 8.178973055293046 -0.9472705092712976 0.4611337797345284 0.7843695267372813
P 8.696391993575283 1.6394413240636083 12.616484108799012 -1.143416884122005 0.26879880821011126 -0.9951758175930087
P 6.391061528396714 7.7616471841613635 1.3871861338893183 -1.6345814058906687 -0.15419137057516025 0.4206543315632433
P 1.6838133572420295 3.1844831446447275 6.156971820135954 0.5925287212404634 -0.7920278146134876 -0.13804252872943967
P 6.829562154968655 3.8226488427713705 5.8750523644092 0.005673396235693455 0.30736869806350936 0.8855897444320491
P 2.4140546553131745 8.625458469177536 10.21817843882979 1.4433823477429077 0.5103007283774824 -0.52536790712325
