# total energy = -340862.87530073186 ev
CRYSTAL
PRIMVEC
9.36051779885422 0.00000000000000 0.00000000000000

0.00000000000000 9.36051779885422 0.00000000000000

0.00000000000000 0.00000000000000 13.70006397426610

PRIMCOORD
 96 1
Ni 6.21272539284103 2.3557334182694456 6.347143363650437 -0.11864844047354405 -0.5316174875773877 0.23743134964242338
Ni 1.4285647755272235 8.016038496120471 11.071611023279502 2.82439770321282 3.155972309098571 -0.03774765106241886
Ni 6.705734501730291 0.5908733218691387 7.991644986887993 0.8297101596556098 -0.3645402621784947 0.5104287693149144
Ni 3.1417267324451905 3.6206669831700546 11.248081120039373 0.8239303197490391 1.644442872065781 -0.7497550219872054
Ni 7.500582865688815 4.398507286393578 2.6724849141515503 1.4521510950744732 3.389812598955626 -1.4410061342012475
Ni 7.185929061832419 8.494342231638962 11.968964544913785 1.5770046359174648 0.08534571255635624 0.8610570493980073
Ni 1.5008747750747664 6.545304588171024 12.876319779754095 0.7531041409650966 -1.352192774811265 0.9806488276214272
Ni 6.4056175819253305 3.777773912931344 11.9013685021005 0.7847996722961645 -2.5554790815953923 -2.119636472327485
Ni 7.968983173437558 6.900845133519156 0.5777779575497842 0.1898165759779376 0.05489253827282159 -0.9911024188545835
Ni 4.725423368490398 7.380824401713247 8.229779366368815 -0.6291756830395357 -0.40655517315769985 0.7812638912287642
Ni 6.405009148272179 4.7807814704093845 0.30233068225065546 0.11197154267400072 2.332243820947693 1.949965775169803
Ni 4.86987487826615 9.049645586093128 2.9879287457052675 -0.0017802318288743532 -0.22905778086674747 -0.7524024869123817
Ni 4.960503411032404 8.374555686110172 11.396494000923024 0.3155023829142373 -0.3950374023260874 -1.0388912562030883
Ni 1.0138189554686436 2.518943405597725 4.721480718417981 -0.043539832264163726 -2.508658778807744 -0.9910353130620739
Ni 4.3408558576281004 0.3875956383514409 8.051486776804813 -0.3665089558690914 1.0024453546712286 0.23522714290225294
Ni 8.896488794818449 8.1839193818014 2.7829764655637446 -0.3440979351637428 0.4402672206981643 -0.2698287921365224
Ni 8.66685657360158 0.3929835523630352 6.233268921126725 0.2532526329453961 0.7737274736424029 -0.5378231021674673
Ni 3.6720094229782454 6.465047509061556 11.288660836549212 -1.140081649101185 -0.15785313569746362 0.25064810544301347
Ni 0.8878067295904589 4.497681971857166 3.463005910758511 -0.15443922491990822 -0.5200282400778915 -0.01512734255974169
Ni 2.679083143107028 1.7292620474321123 9.923586580754167 -0.9075575069523919 -1.011584083747703 -1.2415952296666553
Ni 7.923247683756097 3.21076055078346 4.569464974255903 0.25591963825459796 -1.2154782208646293 0.4132770652625656
Ni 9.03661574539796 2.7895746945192212 2.472382318251526 -1.3197608795348044 0.1650306272825093 -0.26094460227301514
Ni 7.146137500916354 2.5825668446818217 0.48879781195768224 3.4534815978694975 -0.9343818262340876 0.12179572785327411
Ni 2.0645932349778957 8.486657246573781 2.8190210112281746 0.5247886375810124 0.8718315143056921 0.6850400983073234
P 6.6573406250104465 8.359372926334624 9.837783394883285 -0.22870091174796095 0.18433704092060513 -0.4109008517209052
P 4.959249101655138 4.8505360486136935 2.296733138897521 0.950168656754699 -0.14091727917407346 -0.12338878337200686
P 4.770737634873525 2.443038967237722 10.128868351120165 0.08393263425891352 0.8531221108216469 -1.0699514679430024
P 1.1483857585101294 4.544624968327189 11.96044366561435 0.3815077432707688 -1.6394834711779767 2.3114150571278
P 7.137422858899686 4.242280245299923 6.386421968194308 0.37590633792359135 1.1365276132013395 1.132570171215488
P 7.13746030097065 1.3068686843793134 12.431917031337393 -0.4937888467653883 0.30865065009972653 -0.2635699557110041
P 3.3875432888358734 8.675440168369876 9.793285365647154 0.4563276165951367 0.08757948698288144 0.31032315270614297
P 3.3203722135280196 7.636834561923642 5.603120738920813 -0.3965332701453235 -2.2543921027755367 0.5245688082607224
Ni 2.240599050057824 6.937472839438836 9.150601578082787 0.5056115504319293 0.8614609697046454 0.9632846253113669
Ni 1.3513966672722146 9.253629988700256 0.6172671737428223 -0.30400338113570224 -0.08013125823495232 -0.9219716254951927
Ni 1.2790492256537085 4.0717128910273885 0.9166380602838424 0.18685620779803302 -1.3770769396474543 -0.5055195049387553
Ni 1.1904332042017232 3.474034472760701 8.828842205209364 -0.11639024056698664 -2.2977187905876297 -1.8835145855251045
Ni 5.364690567079381 0.32205890944112814 0.3145517742130207 -0.3350628215446681 1.7154557129392327 -0.1170733826769403
Ni 6.52264277472059 6.6908793600756695 2.875314228869465 0.24517165570947455 -0.09472689666094009 -1.1284057554251534
Ni 9.020908796628927 6.869206583555312 10.898784040024344 -2.796189873320036 -0.8360834101718053 0.04289808491510677
Ni 2.5508253290228295 2.790323535938484 13.256921239249621 0.08894011477583393 -0.9044680693937908 0.45734243101289623
Ni 8.530052606820046 0.8342364865599622 1.4769764372307752 -0.4581700691205141 -1.5090843179264077 0.009777648212054128
Ni 4.466099584999767 3.0463898592553234 7.872289961227052 -0.9204536461887696 -0.8247008793664765 2.152278940952854
Ni 2.426433408765574 1.6425368505637647 6.925204008835993 -0.12992169939451817 2.2252298793892837 0.6098731260561819
Ni -0.26908305928717097 1.8704186549631088 13.015526591439684 1.7461426005001282 -0.09210077189200268 0.35232263706638034
Ni 4.0583179901403295 1.0592923506533638 11.700799752416984 -0.19814077957291684 0.6438975626307427 1.2734316574509617
Ni 1.5559614219792701 1.896890199134041 2.040213766522028 0.8927086148650174 -1.264996382199415 -0.1870636958231488
Ni 9.208671421991278 2.881120558024072 10.836709766626344 -0.20841465069509912 0.9317515877000921 -0.3323842462712405
Ni 5.134646483081917 2.8901815391971493 13.754179087141422 -3.7780805437683638 -0.54619024318524 -1.102330141384024
Ni 3.1224066238282155 1.3493560744047242 3.864801454522719 -0.2781005452270114 -0.5244844760770322 -1.2733444970537942
Ni 1.8381810318638547 9.284107834464242 8.263111233991967 -0.5495840993581373 -1.5813549424663604 0.8852866113693333
Ni 6.287544011143103 6.709974816266865 6.644640274539753 0.8037469028226287 -1.3884054772863959 -0.845364578363415
Ni 1.1061511024637198 5.195218393382518 10.070327673169313 -0.3183460230106195 1.2417160715152358 0.3615071317791258
Ni 3.7788316514360525 2.8562028597981093 5.379522307439651 0.18674745013431063 1.21026145255038 1.1806595705235472
Ni 4.823081650079979 4.79125588976132 6.536643301105478 0.29396116640835185 1.321745256954685 -0.31311717051151233
Ni 2.501589005706315 6.182107139310931 7.164091909994949 0.15220133672832498 -0.9300829417484175 -3.670333323588356
Ni 3.938128942348685 6.807371003359704 2.2696896670926274 4.3786853571487425 0.029225729634336766 2.7657549538689463
P 1.762800782497335 4.251097853011739 5.553773025443183 0.8970612354067583 1.6867424041649401 0.7077791917760521
P 0.42708017428560857 1.512416293449151 8.199625394518659 -0.9604728668941845 0.33779333310195375 -0.2921799061382129
P 7.4231807444902875 4.490081231451652 9.882760682627744 0.11706309826429516 0.5205244629880197 0.6025097437125753
P 1.7725357209477488 1.24400344723222 11.964265565007912 -0.5795392509593309 -0.42785162064263094 -0.16210805431907566
P 6.322786360437148 8.759909480462696 6.293234269877725 0.42340849726961266 0.25260882871381013 0.24844646980600435
P 6.687359805405135 8.42491527155558 1.5512175115882416 1.109596078917818 1.2155993198235258 1.2713446930149461
P 9.421361106097331 8.083967773365327 12.844549246490104 -1.6157850991197722 0.8121271564665239 0.1865708153471303
P 0.46048037368826783 0.48643334517636067 4.015311091380305 -0.06741869576429034 -0.4451757137433752 -0.17910690286991734
Ni -0.3483975342601412 5.363791957376265 8.029758206973137 -0.2612829594490403 -0.008465357158533807 0.9754032629517717
Ni 5.590906199320865 7.41054404554023 0.09161606738790624 -0.5028360445693211 -2.215315705599365 -1.0962541103932735
Ni 7.87350589248158 2.8423586540594923 8.530166805136485 -0.2416523297023064 -0.6001271024130117 0.3365206370371172
Ni 8.694563706114295 0.47374516337873035 10.251538872164891 1.3720532611806178 -0.7627241805533639 -0.6554176474552003
Ni 6.79045654780211 9.517119202585533 4.326671865095493 0.20142690652335632 1.674472842768968 -0.5279372105123231
Ni 3.5380510535899106 3.147165193252585 1.7687053970882207 0.3730279879345318 -1.0705855019825756 0.46438262568912925
Ni 0.5859496895374872 6.028145343510546 1.5792475819630138 -2.350328703473862 1.2145063438696633 1.303410206090923
Ni 6.83209213071311 6.0620210572144355 11.553702024275914 -0.07681916314258384 0.7755136190085483 -0.20786494883921622
Ni 6.553270388768429 1.2253385748571002 10.25156601766634 -1.2854885886154959 0.8571497439238012 1.4312511116970124
Ni 3.360201216515048 5.192279190811912 0.484522863505467 1.346045010042314 -0.23511452858378862 -1.0712825280496001
Ni 5.261706150895295 5.238735440359416 9.874334344557493 -1.3824065793904836 -1.3960840768775762 -0.3655041687536609
Ni 3.304740148900913 4.490867514941876 3.6620273668594754 0.04367635784202801 0.8686893691322846 0.728885634737364
Ni 9.194883379359105 3.279522914107246 6.628460619624811 0.8995729460850186 -0.3035120433215805 0.1407522143511189
Ni 8.807264339713313 5.64025484885027 5.74891641904414 0.09669044814521413 -0.5151760541919127 -0.8594439392746167
Ni 6.218425948145168 4.803742820427523 4.466261521956683 -1.7728851587012953 0.620506437400312 0.694242590742198
Ni 6.957916210184705 6.470392364691544 8.79065971729294 1.2036400905791205 0.44097221718498897 1.3221486630406907
Ni 2.1030087997860663 9.196549551516965 5.71950286414728 -3.0231288080715677 1.1367536131692164 -1.6067854667243233
Ni 1.7087063504733548 6.550162696878489 4.32642568347891 0.650974524082182 0.42618246047032415 1.168858207013245
Ni 4.9495890473466515 7.012909251911801 4.571862202849317 0.4805954880035659 -0.41200154098425174 0.10602998037858513
Ni 3.440898239958332 8.312008706566266 13.203656149097474 -1.1062711283096431 -0.14953201742627795 0.279435461988351
Ni 0.6487550193710396 7.741223055768844 6.6857956628906505 -1.1527579590172727 -1.2615858138559692 0.7347027556397734
Ni 4.350384864688216 0.20469205774832988 5.565007518835669 1.821133709295038 0.41834933757915044 0.3151023192623412
Ni 7.623346055859174 7.569541799885158 4.826956904424663 1.1526250329838343 -1.3934371261730325 0.7591863426034344
Ni 6.075668692080497 2.8130976756018073 2.4610242660248614 -2.3057480886500095 -1.444920638764305 1.1201504573948966
P 8.942355331748283 6.158593518746087 3.6309139419408893 -1.1092402382402962 0.6826343170793083 0.010923074670406995
P 8.548708118677427 4.332122494575951 0.7188493843693394 -0.6519155478392127 -0.26945058286149726 -0.06838388789103707
P 3.4622027783363523 0.809715674286209 1.658022891114115 0.12009494311208349 -0.0634208874588069 -0.6504281646604089
P 2.8811860816482575 4.776700284674403 8.72992774213897 2.1579914179565995 -0.36892142196532596 0.2935094235829139
P 9.359740817809762 7.420541078487386 8.822293586997914 0.7078560677605744 0.2527378980925067 -0.567698549570661
P 4.998479031506758 5.244651287571589 12.444918790479338 -1.4571539476057032 0.5269540206634473 -0.21500875897284907
P 2.347346394373705 6.9370703371759825 1.2889386126468452 -2.287641608857286 2.0496605573589797 -3.2108008269026764
P 5.431197045627639 1.8492451638334595 4.37881462917052 -0.32673398996399855 0.3748136190800448 -1.2302890606252166
