# total energy = -381172.53512934665 ev
CRYSTAL
PRIMVEC
9.19800063140345 0.00000000000000 0.00000000000000
0.00000000000000 9.19800063140345 0.00000000000000
0.00000000000000 0.00000000000000 13.46220367221160
PRIMCOORD
 96 1
Ni 9.10550544735495 6.085792671812012 1.8758641450907643 1.6353550508319 0.8615447876677033 -1.188009326020399
Ni 1.223564021939011 7.8416633810478045 9.635692915327132 -1.5268113028925252 0.6360994067425626 1.6294381711268322
Ni 5.391040096964282 1.530179369966351 9.297131991621564 0.04532674896125743 0.44142241734853005 -0.29708042876362384
Ni 8.927606918895469 8.45146322290077 0.35411382281999604 -0.24600675001626016 -0.22377082143619526 -0.913040384443834
Ni 6.963521071417741 1.4480688191386903 2.462479506780605 0.324931389537621 0.5011177763266338 -0.32525174899151726
Ni 8.48893587710396 1.9873475908453937 0.4316511277787743 -2.2145587728286826 0.5322188686068124 -0.5814660356683985
Ni 0.9171721853248119 6.968819119729238 7.463297190201899 2.5106765805687212 -0.6339265674609598 -1.4013689794255995
Ni 5.037919658202691 0.1358921797897323 1.8110301986788755 -1.757181374812793 0.6620654917890211 0.5631939768320882
Ni 3.3245253154642813 7.029489131296309 3.851186270029125 -0.16410528725476253 0.07079121178094905 -0.4456341414370325
Ni 2.1541257366510553 8.18174105504255 5.615098791137733 1.1954956070951153 0.5297788917067521 1.1854420795138552
Ni 2.7169789837438114 2.4795142037821543 12.278512099910746 -0.6838553339706029 2.0562099284417235 -0.9455041613994942
Ni 4.677330443001977 5.384307160568421 6.101137696114218 0.36640431197042705 0.13638211030788125 1.3509882129802024
Ni 1.4605229118709244 3.1180945893272605 5.1648548250658 -0.10389030832776303 -0.4619501049882367 0.36123408062339724
Ni 7.4512450500932985 1.0132701355748566 11.8718059495986 0.41508146546115615 -0.36591605948009887 -0.24910210111213232
Ni 0.5708591867634625 1.9329230216455204 8.710786131347568 2.038332019720038 1.5367164778213793 -0.3868762066715337
Ni 2.427646678732622 5.694417748801263 1.5703525571283192 -0.749163925370426 1.3079404898611087 2.2350502079138153
Ni 1.0096369253612434 6.132371346550589 13.170989493383637 -1.2512373807421096 0.3137560896470919 -0.01939126004241822
Ni 5.129660515596563 1.923568655095534 11.715873166230589 -0.3459923239729783 -0.3975761095875411 0.2491234412683709
Ni -0.09632606066345642 7.534974449016138 5.398612810809517 0.7940229906666454 -0.9105569559003479 -1.847075111751148
Ni 7.465198416913681 5.853819098173208 3.3026552295784377 -2.176195599669452 -0.6069816634409998 0.04293767990379056
Ni 8.459897789396676 3.8554523026799448 10.26606132598942 -0.9511289637854394 -1.2141636158182638 0.6273967367622421
Ni 5.229578395471198 4.696885392151704 12.031238572172386 -0.21267085486829182 -0.05870111338563439 2.457743737125432
Ni 0.48737537445506157 3.6755394121020304 12.622619417942413 -0.34392284303845927 1.39104908555683 0.3072164887563612
Ni 2.745115667398098 4.55292748568775 13.303659613583928 -0.9047424061010999 -1.7209586450353331 -3.4874918933766716
P 3.085303717399333 3.23914947444464 8.402999877851384 -0.7541919747126365 -0.5068631634508433 -0.1250718275013846
Ni 6.829708559550282 7.589527790223583 11.797184410811255 -0.41243862852167035 1.2140759412004638 0.3163991836968938
P 6.234993438584218 3.519164204908006 10.416568208838418 0.9947428438206481 -0.6497936164002035 -0.7131800510766492
Ni 7.566725946882956 -0.002614991553747497 5.524269455597454 -0.2514052953240122 -0.08773786693761663 -0.5971217399277845
P 6.020054561946964 3.654715138877675 2.5500913817317143 1.2825567596806815 0.9058356391652788 0.038705644100313984
P 9.35206704985145 1.4592351917952133 2.8551991774704186 -1.152496992046402 -0.17453753833168006 0.8246368588977604
P 5.53259732528709 7.157663268832262 3.5027715283442045 0.2019971772045295 0.7087726660375728 -0.9704672591027351
Ni 4.762963828036762 5.102949522026099 8.544945261797013 -0.4460519457007414 1.393410386700155 0.48245336714791104
Ni 0.5944189453486501 0.7677295111383832 5.111019847700591 -0.06303650753619466 0.6257422318779546 -0.558496828466735
Ni 4.823284315583283 8.798945287330854 12.789080232729416 -1.037623445234258 -0.3714441883871797 -0.0871413710041983
Ni 4.9947902336669125 3.203737172362586 7.382645442260008 0.4532716033776323 -0.2441776672273214 -0.5260945008766293
Ni 2.1544568646705238 1.5696571882874353 6.853217729132496 0.5942210213412218 0.13283835882068093 0.43367774040610474
Ni 0.017004343599764323 4.383537107728503 3.8538380535850356 -0.13744963234044716 0.7090218059339015 0.1244838162083985
Ni 0.7197058305148478 3.5922883092073112 1.6476387566723336 0.03156903305553273 -0.19111806839818055 0.16014038906974354
Ni 2.341709759679991 4.2690128029950865 3.370289967154998 1.0012845015939078 -0.11689391967628254 0.2777004815751153
Ni 1.6810633708375222 3.7280507971894186 10.063885594902569 -0.5719259573884473 0.7690202979747207 0.48234949458019516
Ni 4.883025329095735 7.7957193683465436 5.827949721652227 -1.6540731960666932 1.349643783137166 0.9003923566625203
Ni 9.110877079670772 5.471715759707579 8.77186453413865 -1.5866303319326867 0.18103317335835276 0.42689234205315507
Ni 1.834623989866064 8.031574498213562 1.124311157503474 1.1393077470496378 -0.47553427143057453 0.27034455543067637
Ni 6.585078537167347 5.803101323191275 10.220976406538668 1.981573117662439 -1.2250681785459094 -1.5641352361539642
Ni 2.882653369484578 3.0050971526836165 1.4782713737144386 1.2856657376233083 -0.37361188546245977 -0.8777846465653335
Ni 7.031199959396897 3.417756248945761 12.453601559005067 2.0745460077467497 -0.30195086948204775 -0.2838356479385757
Ni 7.023859954965344 7.341632477648666 1.3170856122375794 -1.9340925555829722 0.5500846931436397 1.5565952190231773
Ni 7.754411147917841 4.14206199953106 1.283518429064009 -1.4198935205923482 -0.1947808619617484 0.4580628541186886
Ni 6.810181204402178 0.4361682658443578 7.644794896272993 0.5243947445767033 -0.15542575720289362 0.9625387482842779
Ni 4.5456886592621455 6.26366360626987 10.689730428898894 -2.6828574457427665 1.5498686989326211 -0.6725530215839063
Ni 7.876569793100114 2.496530504782622 4.317396125439767 0.6353393886480865 -0.42028769225244395 -0.8715628340253377
Ni 4.092723924630246 3.677792922234525 10.371402346982906 -1.0698897614671314 -0.3481888174036648 -0.6767488048328086
Ni 5.53389424336334 0.19274962013264527 4.241293708565353 1.0013811750727721 0.0006396904665279305 -0.8749955138559704
Ni 3.3487344528876495 8.393791759509996 10.496210936120981 0.4758741712684966 -0.32761690678958416 0.24870435145308137
Ni 2.7594645482417355 1.5225266335164112 10.15412257920802 0.3789317550134765 -0.19013539276993704 -1.406324780768978
Ni 4.434843554745047 2.454146118290647 3.232881037076089 0.6571734538040424 0.31001770565058223 -1.2727598281949177
P 6.703567180133844 1.915731958634778 6.0126777655132475 -1.1799041804147616 0.6826988517686566 1.0531526512181086
Ni 2.799448256592563 8.645899756332597 8.084026096297434 0.5165657354505878 0.41827477558747317 -0.1902770605541239
P 3.734480199567433 1.1490050295553413 4.727508295352166 -1.7621304912879523 -0.9379785424464104 1.55380171543844
Ni 4.646636715197351 1.0474223115828218 6.840508851785281 -0.4043005727955682 -1.3725775091152037 -1.0543777818744615
P 3.3224005773393586 6.849953358740567 7.004384108620268 -0.5025617078620119 -0.655151281167691 0.6606143611647913
P 1.866945763766411 6.200408956550836 11.195881681857875 0.5030275917548369 -0.19929263378917292 -1.1242811917338187
P 3.669064019721312 1.4013521743920019 0.21549903487018898 1.2808937701559617 -2.0538095465303465 1.2654926051095432
Ni 2.250916296341822 5.428172425147464 5.413219235668297 -0.7457896095815543 0.6870851537618103 0.9944988461306421
Ni 6.7626183436057365 9.469617496762789 0.45876867297314067 0.8921925944605472 0.5100392471859797 -0.4168233878529273
Ni 1.363585184171505 8.584116786700088 3.492364910532351 -1.0042109312120837 -1.3440297793844982 -1.1164372702093677
Ni 7.314378802046296 3.3866210171151763 7.962772534368375 0.09169788002662918 0.539083971157762 0.9484133646264894
Ni 8.681707572437904 5.144184158450475 6.305857594150651 1.2385479581998993 1.3276932470080036 0.3298493956645287
Ni 7.924592553923596 7.893862034116806 9.777006396635608 -0.11098038240532501 1.1667319046988616 -1.0530960869485606
Ni 8.005295810668516 1.2335346545252306 9.59669339303417 -1.6499046665113006 -0.4910876457841413 0.4249599009171327
Ni 7.964355510261445 7.402265697213575 7.373491592121812 -3.2320643642671434 -0.8885562832595407 0.7005777889316063
Ni 8.092069747770358 8.36588502586923 2.982538136557267 0.5393742487046711 1.0067720070710404 1.164284985820266
Ni 2.155431852727848 9.444690915297238 12.372990282265556 -0.6156573368381267 -1.4060818115202367 -0.041350023701696534
Ni 1.1886944018888639 4.174227407422213 7.434057666282772 1.8207747832937224 -1.415986472228458 0.2246197997000519
Ni 2.4177956201534325 1.2725709688203568 2.9330234600460696 0.6660625287635561 0.198065189139975 1.3783079838410779
Ni 5.278134640326046 7.590217640264142 8.670103374955639 0.1202144994090833 0.6458014645216749 -0.05935443069891714
Ni 0.6005852849111979 1.9067639081075047 11.280559394636471 -0.9334467160143278 -1.7495932780528898 -0.5594239682666946
Ni 6.708975604451831 6.7317774477924575 5.26572745739657 1.7496590982938192 0.13411079777520127 1.0623037215897575
Ni 3.319429623164682 6.649326570944788 12.719897471661842 0.4717395802748327 1.7015025931932504 0.3867466230722049
Ni 7.553830350124764 5.947151209660636 13.26888657253946 1.9860666346574183 -2.489933948704731 -1.97077037061998
Ni 4.7618324739702445 5.081076676740093 3.886685953116316 0.4668331441121508 -0.8518015922380106 -1.6956253084768669
Ni 3.831261561257659 3.2517783291871485 5.332001810693146 -0.8232842015246079 0.25856916006230307 0.26756210758953275
Ni 6.9141278085136815 4.3683420108351125 5.403593528102356 -2.2201743192432475 -1.6725360307575712 -0.5923633993071927
Ni 1.1379214389036858 1.155508015937682 1.0040730548341175 2.296445066081529 -0.8123037912537042 -0.716252776464702
Ni 5.525855190890688 2.6286321885494934 0.5799311746968469 -0.1346219330836649 -0.7691529668978431 0.9684435438044869
Ni 8.826474902949448 2.4188349942145417 6.472169401328895 0.20256204856906407 -0.2184671498350947 1.1301872728056084
Ni 8.870284979525245 6.124801392105517 10.988442854861583 0.53598527762778 0.0873750842815592 1.5246050392698258
Ni 4.302622296971146 7.118774122545789 1.5738661933349023 0.19228020702708176 0.5595057293472234 0.2681046103565641
P 1.0769019033160638 6.414823547157265 3.682895053134503 0.3790664808191278 -0.3472323670276665 0.3913339853325712
Ni 0.25764795254831957 9.166690546952307 7.521077189999054 -0.026753613944760373 0.8743049155468492 -0.3374884002670252
P 5.51950857051754 6.524886821628397 13.339307384479826 -0.6727759362279897 0.8567661353321374 -0.7008577820658703
Ni 2.317316662245808 5.889047440244446 9.032411696457428 1.6818652785782973 -0.6247757541996272 -0.030008116326316062
P 5.412876150248125 9.030403772939373 10.630307666205152 0.714739425143969 -0.3197084505757849 -0.013127538520893519
P 9.191515950411906 8.769235745584092 11.564948694157039 -0.23781367268250653 0.40656905711477076 -0.3967734111805876
P 6.571677050379411 5.496504371165017 7.482279103917934 1.0351608426263785 0.43106112871886404 -0.7525343845045556
Ni 4.620799531678262 4.820055817393465 0.9885229151198527 1.6406849476852454 -0.29938259453423927 1.3150860997669545
