# total energy = -340876.85307187575 ev
CRYSTAL
PRIMVEC
9.15529119368045 0.00000000000000 0.00000000000000

0.00000000000000 9.15529119368045 0.00000000000000

0.00000000000000 0.00000000000000 13.39969409296780

PRIMCOORD
 96 1
Ni 0.5292756227324189 0.7412123737291175 8.12846850912401 -0.6969203946846771 1.7058958371649395 -0.03131217984972027
Ni 8.101938306349897 1.6782014939975562 12.756964416124072 0.43340571769164077 -0.13088174931494231 -0.5544635389376258
Ni 5.961907304195329 7.66480061849856 4.782953908926279 0.74507330024082 0.08656158724132834 -1.872434159341227
Ni 4.229625505212374 5.953218932867896 9.30241579117721 -0.02164920283865949 0.07530349782900579 -2.9949184070756227
Ni 8.170575524307495 8.546391071852042 11.891625520139742 1.5231945320755444 -0.3397414579672601 0.0029575399664271648
Ni 3.707453472904565 1.6003448978242312 9.043815436577994 -0.394390769881024 0.18290776467324626 2.1525571343149053
Ni 5.645308179986749 9.133803709090603 6.502120753297489 0.9447114902948698 0.15288293617638185 2.290523815501088
Ni 6.175692508480761 5.306534940546303 5.1386488730500695 -1.6918756116264475 -1.0550205576647829 -0.8275275501819941
Ni 1.0603658241762153 4.441277526653453 10.523623601817704 0.7193087896822065 -1.34961627233334 -0.10300507750933229
Ni 1.357656439291481 2.1010843934855497 10.029214990005615 -0.8206511347771351 0.002903546800040161 -0.08585479098229085
Ni 8.41215619260777 8.562678334856786 6.12868466592997 -1.0467580605456746 -0.3733097808410087 1.619563849435914
Ni 3.8072644573214975 2.1846996678095123 2.391014154494118 -1.2493244799901129 -0.33936144892002196 -0.6314441673587383
Ni 3.893800269531078 3.378741898468174 -0.03492285819651333 0.6675288288964375 1.2041905637659518 2.260745812907706
Ni 4.837976293373841 1.4387540085416357 4.943951535340575 0.4187990235220594 -1.0873593790068046 -0.7836113084150181
Ni 8.248487052227885 4.318422674342793 5.994152239722428 -0.6187925400329988 -1.0805302719001133 0.06925780585555813
Ni 8.467893605296293 4.1098651413197045 13.066524036946284 1.6388862039136098 0.17191115645242652 -0.20011590102141666
Ni 2.7121176819620203 5.596812602619615 4.16867140761092 0.2282599675558004 0.2608163042252669 0.7459248496078379
Ni 6.254409702024771 9.1889826490173 10.989853142914614 -0.7233893875094832 0.24523336218534536 -0.6892932171567226
Ni 7.577852818185994 8.781563036328079 8.379177002728238 -1.0581007392520034 0.7805632656173138 0.3148475229390578
Ni 0.9698108391397194 6.699027262768111 2.2411521087389974 0.03881928686004282 0.39044721185224374 0.7705627027611762
Ni 6.529690997149365 5.3995069224536545 7.9409937806244315 0.24387067750986388 0.5666269137730371 -0.7113450547504395
Ni 1.9859840728022187 6.613580930208651 10.3162104801918 0.1994831525334242 1.1848360704987402 0.3727035147155775
Ni 4.245711351811214 7.7804685672348946 10.537305268953338 1.4683145922082133 -0.35151273957057527 -0.020711007295106266
Ni 3.6889506294348697 8.475217838238281 5.18518613363434 -0.2401196951078639 0.5342765224667895 -0.2199823009280405
P 7.25049622684387 0.7086643980640436 4.793633556084815 -0.8349487823467296 0.002207034953647812 0.13550716390209566
P 0.9941456030894724 7.728100301699686 12.022205607145962 -0.055213926167982326 -1.6699567000661693 -0.24547761698566756
P 3.4320897801593744 5.75764360273448 0.37088359218723654 -0.7311014114417602 -0.8816919520395397 -0.16985633080592685
P 1.2276879257359157 2.777870983198711 12.224044987503015 -1.1938429019830408 1.2879740740415109 0.1904336407366462
P 5.51404877037516 6.142019347529975 2.970122942634701 0.22337230044619596 0.5566330357851188 0.9587695110498327
P 5.617814840580765 7.997128532950058 8.66446960875541 -0.38793678672556414 -0.9399824602503166 -0.012087527292153377
P 2.3587509083846636 3.6188485648888737 3.3267416756382993 -0.6713533448488502 -0.9521563766086892 0.493868293853072
P 8.363184540099407 1.1790458637099426 10.047452330031165 -0.4029250326042803 -0.4346976970301868 0.25641071895840356
Ni 7.7427213017101275 3.388931737548714 10.449135237268575 0.22470361766310978 -0.3245164134873895 0.027973859505106658
Ni 2.2854719578000804 9.000997055270018 10.04892633191074 -0.6995922850898855 0.18462089070961105 -0.33113931812054587
Ni 9.134243163067122 3.489054001865681 8.296058860715211 0.3076520336318831 -1.2336818883568497 -1.0394026486218682
Ni 5.585450886268359 5.579866158650093 0.7681829460088682 0.6570099316429846 -0.5503178922003684 -1.0688680050708366
Ni 0.011068747033578349 4.2871848208452175 3.630968339349627 1.355634196392646 0.22348671453687316 0.07669883551463566
Ni 8.254090090428505 6.870588264142986 0.48487337605073855 -0.18398505689782507 0.4746968631309437 -0.25892860028425085
Ni 1.4344144005235082 4.488161772773349 5.969000823799644 1.2056332097497495 -0.08686703429688909 0.18627668114547918
Ni 2.767113516065167 3.186691355438089 7.690767770865259 -0.5802334488128781 1.3488649959896126 -0.12321729079114907
Ni 6.537527926397291 3.022445431714023 0.5820046067400212 -1.1453372410731695 0.5712358732999582 0.28294758890666755
Ni 1.7440646587283772 1.8404332536625756 0.7208162160439183 1.3878927993160355 0.4343053466877746 0.7163023987557147
Ni 3.3182803555320683 7.265712320780848 2.341529805679816 0.4763289994177281 -0.9577760367883118 -0.4274849813318315
Ni 5.866472548961234 7.819131361877411 1.5364354722306852 -0.8114005627131446 -0.9530832592983326 0.5962334237855602
Ni 5.581715527467944 4.59795202457374 10.467841328202411 0.9663894894889357 -1.614446839924323 -0.10362497048151831
Ni 4.409893188497038 3.531726814043934 4.3667186663622575 -0.10847895613970994 1.9265404542673272 -0.9233484512380614
Ni 5.263761420165097 0.9250780864465318 0.8582581937876637 -0.27592770594540866 1.3909141026408625 -0.3269481628573337
Ni 4.663751102266318 6.8542369141 6.660747159296815 0.199872674662359 -1.1364821046753846 0.8750839598047186
Ni 8.55517099609125 5.961888993612974 11.548445839055573 -0.5427853312687491 0.575816036471473 -0.40100313299121904
Ni 5.98636108693039 7.384337428567511 12.57455439470388 -0.048771255866432134 -1.101040476038323 -0.9369979237006959
Ni 5.0853980374453505 3.1883759290147458 6.59917507954088 1.4741954764690224 0.004777881004617578 1.6797916838787201
Ni 6.020766671175375 1.6138214864374878 9.296854867316007 1.2395080081203231 -0.13795613966322048 -0.41216943402068373
Ni 3.6230508435393385 8.635160775108929 7.95198104556653 -0.12290438753642058 -0.6640997486102305 -0.2844154317014457
Ni 0.2548292901632118 2.2007305826612873 4.449636307498496 -0.9517683971416513 -1.2249743332805227 -1.2751712658498877
Ni 3.7649212356256334 5.550889662073355 11.499161991118058 -0.26712347739021736 -0.6083111808857007 2.087226945648528
Ni 6.716999099349513 6.618186041670926 10.100220681790828 -0.7658722392640422 0.7666929353931248 -0.12248864015524066
P 3.547418983122142 3.8172895011608428 9.770400401592847 -0.6649597826176806 1.0207868332928935 -1.247765105922793
P 1.9191504472065843 7.674303810740789 4.144726659065328 -0.3162184351446554 0.34172480694587604 0.44945582917596794
P 8.772361968694707 5.134525329903731 1.698049249741224 -0.2944093096893639 0.056700795126153954 -1.05333057155687
P 1.450445315375283 8.054568829797594 8.269112092192522 0.13148570144752839 -2.0479723710232793 -0.41005110212610024
P 6.697809609041506 3.3436038909289896 8.319494575071335 0.45485540292498444 0.10859799821607748 -0.07704387755888022
P 8.64032435933303 5.275937957431151 9.29507324765287 -0.8691750505194514 1.7714687379697427 0.832083802094109
P 0.7204939497944709 2.403181536468994 6.429736274660946 -0.7570890937547735 -0.11139998644124685 2.5100212063729095
P 3.384967496468863 9.086498319576544 1.1996287893351623 -0.6388407169331256 1.052673654699161 0.36538718355982236
Ni 9.17781319378077 5.975283184605634 7.29804972474884 -0.25670305338784183 1.6788660867406568 0.9955851372162855
Ni 1.5453856848857936 5.61440907226274 12.495683392268086 0.3420335964355464 0.2840678185540398 1.5540945640885104
Ni 4.040568742397326 4.644332729678874 2.2767286547255834 -0.11401068459121656 0.6757980108837651 -0.4521223202645375
Ni 1.4684995495772817 0.6180837782122508 12.121578053115496 0.22658412251527427 0.640461026145368 -0.7641249175556324
Ni 2.57499888599684 2.2872480842885126 5.405182287454577 0.6246667394255886 0.5382979849213568 -0.6173077279573563
Ni 8.908437061465653 7.491701528205867 9.733095336631951 1.7700438325977579 0.08960320228112956 -0.7436013436809839
Ni 3.2968020424296904 2.550600035008844 11.469562019212134 -0.7695018655968296 -0.6292155351385357 -1.0383505532082697
Ni 8.868877048287745 2.7995507127069934 1.5710736008715787 -0.8792905416868987 -0.5098687830463864 0.8144393495394684
Ni 1.6451142716821283 4.368520427665986 1.3651610314696647 0.7801012383792307 -0.21806245819750833 -0.2644266472843446
Ni 7.394417404153921 0.23318984393611028 2.5191424545230086 -0.6517839073573549 1.3305109189624569 -0.6281716672550537
Ni 1.156478070957444 8.62169334178685 0.7596731028593966 0.5063070338370571 -1.0892599384636272 -0.19355521708476342
Ni 9.059920509288306 8.761036873508159 3.935812069686317 1.2918523260499946 -0.543826885159386 -0.6067309808827744
Ni 2.225431558258139 7.158183425901297 6.461788033544201 -0.9022378945116913 -1.6333696449707547 -0.019959988061694658
Ni 0.13799678838910098 6.269708193582347 4.793084238614165 2.137976408287253 1.0948063222031532 -0.42639123404702056
Ni 3.2449464732004207 7.844976748871448 12.773821138240056 -0.1539715412548703 -0.34636127727662286 0.06780847500354127
Ni 2.0408700434112363 5.452900580600743 8.338696882786989 0.2381779980004608 -0.6274576719071645 -0.19176212974008267
Ni 6.753885767503596 2.9413112412991587 4.800628198544413 0.8705683313225524 -0.7318889403400621 -2.108595898242607
Ni 7.300365097887626 1.8203740106927078 6.7921979144940146 1.0861658729193358 -0.11222942432107769 0.9106029786469351
Ni 7.7173519898573195 6.838929267251247 3.0332221249590394 -0.5427637340021942 -0.14963820398683905 -0.2687849242530403
Ni 7.0319777370196785 4.452987144069455 2.687040423897773 -1.8637661992535837 -0.943972298136 0.3172728445510988
Ni 4.650301979526594 9.119860200627295 3.145149221720254 0.37580709334156565 0.44529398448879437 -0.5814045863028439
Ni 2.228489425511419 0.7778115657402281 3.6183999556211766 -0.16772334362332406 -0.889808667609403 -0.7536067916331279
Ni 5.75215042802799 2.4272599522657776 11.637393154961302 -0.05773643547951992 -0.3759834710184299 0.8115784830519054
Ni 1.3929134656159725 0.2199915761746491 5.855933893286832 0.43309435709880895 0.31511697455036053 0.5528110909358673
P 6.968238599842033 9.060186012732453 0.20948404849025054 1.3348123745512883 0.041797138541444144 -0.7030205940451442
P 3.962208605209239 4.8632540523148755 6.058765707207523 -1.768870124004631 1.526486829673571 0.27961569631995714
P 7.6137324043105545 6.570926428612753 5.875913485223456 -1.0575505231754885 0.42353756664830927 1.3922708737790732
P 6.663779391734797 4.983664441881148 12.303009373908814 -0.42395742779454726 0.02594165956642629 -0.09551725377271937
P 4.107200951587056 0.5779002897051551 11.147822199007395 0.35197913768403255 1.3729408059918935 0.4143836680631831
P 5.871105126297041 2.339451554582527 2.692373381008658 0.9592932447637866 0.5176818513329019 0.07045336882555608
P 0.43734917507753607 0.825353161766668 2.1988629032610802 -0.6098687551808077 0.7993258909367976 0.7569548821697544
P 3.859028473638993 1.4021603097052315 6.9436145286910715 0.2002503697167519 -0.9069232158025026 -0.8237158897453879
