# total energy = -340889.65703290084 ev
CRYSTAL
PRIMVEC
9.08763470455504 0.00000000000000 0.00000000000000
0.00000000000000 9.08763470455504 0.00000000000000
0.00000000000000 0.00000000000000 13.30067198230624
PRIMCOORD
 96 1
Ni 6.514770907677804 2.1137293317046315 11.55003760848968 -0.25466853945631623 -0.6695345464725566 -0.14577152194258122
Ni 4.396843088689548 0.605958945516217 6.211347503959078 -0.6532944304646103 -1.012651862890585 -0.34177185813372757
Ni 2.2725357500625356 1.6454707726930295 4.5757368150382 1.4759713374225225 -0.7063722841261963 1.5554839882368696
Ni 3.661180875304192 4.351550316781347 4.832360716996723 -0.9462081294450542 -0.7781410293290664 0.5854892978951787
Ni 4.9113395336299055 4.550033348732993 2.6575806546180774 0.7533620226121736 0.08483689124073776 -0.04538074212764442
Ni 7.04724269427836 6.033189876030283 2.660280590921032 1.0362417343953831 -0.023248686115295444 -1.02939745778004
Ni 5.595247666754989 4.441163483672753 11.84662892835596 -0.35715476834770105 0.3355940114577898 -1.7649844157969796
Ni 5.542057740194255 7.869119299135042 12.612149474683045 0.07409173690909175 0.4350422248537992 0.22409092377977535
Ni 2.087711433234893 6.440106900053854 0.23224723033602002 -0.21807737059584378 0.4516536081582351 0.5273144893266596
Ni 2.7768631316471 1.7129464611798644 0.2672228104409738 0.2443244772178308 -0.8027326026255014 0.975783529109326
Ni 0.3875803546683799 8.924520855782458 4.5960476788453475 0.870897946747829 0.9171587774875817 0.6078409261175015
Ni 8.669703575624768 2.457369154524992 1.2825715254133896 -0.3005269925513276 -0.025565507173930167 0.5437906326048119
Ni 6.996451903308269 0.8265267475905157 4.987114050228011 -0.2793321036412673 -1.7531226313623873 -1.6289242076048913
Ni 0.8158006122206826 7.519808792191343 2.190021843487079 0.5703069337277855 -0.9251885897705937 0.6584358654562338
Ni 7.718946133849527 3.9471414799661773 3.855904352733682 -0.0464120116056362 -0.5624689257406055 -0.20378975032857805
Ni 7.738657213759014 3.9426431007337213 12.79378312292783 0.47720163183066844 0.022143368866258638 -0.12388732027498019
Ni 8.106188428502861 8.715505255082498 7.1373402321052986 -0.7308946947475928 0.6270588938068491 0.008409564219933904
Ni 6.793561368472299 0.5732870808363693 0.6803948535063606 0.2817656527834244 0.5506338807788904 -1.18926248170121
Ni 1.630167195667867 6.833192543891974 9.28506640564552 0.38687646378184987 -0.6297675509872638 -0.36322128625675515
Ni 0.2662313494828709 5.097981377420158 1.1777838259111677 -0.5646368799262017 -0.2332844173535853 1.999844919388433
Ni 6.700458549812686 1.8623380898714577 6.88051731094437 0.4351347845676054 0.9978646772790815 2.1346589138782464
Ni 3.494513652833007 4.246733536847724 0.4796144674739789 -0.6521677730593348 0.8052797945273873 0.02929772052285277
Ni 5.957826120525728 5.45121774260309 4.675545399426356 -0.7661234360429 0.7785670611228913 1.131942307823502
Ni 5.031269050257618 3.100955451984608 9.41631729772332 0.8004582047690278 -0.16766060870618868 -0.11699290714799206
P 0.07479486956525877 5.828036520125866 12.492536207746827 1.1724546661152517 -0.7500473564166438 -1.240537477826102
P 4.166916840284778 6.004527475829949 12.520973234603797 -1.3519642037402262 0.9401593521478131 -0.7656161573891781
P 2.3194370333326444 8.564832269882265 1.1810708234230451 3.099865438802674 -0.13879689039696094 0.2689227353824853
P 6.534009430577013 7.770545724317978 5.859397947865673 -1.2310231105777638 0.8444209835032231 0.004844986797127139
P 4.71312004308784 1.0302469834849164 12.763391345822573 1.1089874987995416 -0.06865462505392048 -0.7717734352398257
P 4.083374213448486 6.09042380008282 7.999769498551699 0.4669071918831959 0.9668713142213606 0.7448426722872526
P 4.759085299972205 1.0149615817293802 4.027483441821317 -0.6287200835593559 -0.4192034580493297 -0.5760350944608144
P 0.2952390798061002 5.73638772303634 3.2965849666049576 -0.9366192002050386 -1.434403284172749 0.6800760694338287
Ni 1.3080923302588545 1.0848091429024191 2.5211952488709093 0.16851087252162592 0.12756014114087708 -0.03846678861663053
Ni 1.708956989496939 6.70605653285752 4.522627768427302 0.9405640437853996 -0.22110278768572886 0.3869569393107981
Ni 5.929427261734973 5.717058323789 9.246453954088388 0.6010164469965004 -0.22506460054695432 0.5103935452016048
Ni 8.757481040283938 2.1901472528474994 10.219877774614316 -0.4382165088167227 0.9544767972117498 0.4630366531841961
Ni 2.4100316647838573 5.21343069008504 6.962090647316677 -0.11814604691582878 0.5262125145117325 -0.26548208513205246
Ni 0.19495521211722192 -0.13680071065812388 9.44547224773052 0.8523024431338289 0.5042336962477961 -0.4533204543376967
Ni 1.6978973379294673 1.1063195745048888 11.576080043573413 -1.0375738229432454 1.0372380368703813 -0.10889676040341892
Ni 4.093452400456149 6.8795485690733 1.6079851878527134 0.010752867641129869 0.3084560175904172 0.37853323402347716
Ni 5.644993379721579 7.862966970366612 7.884718224291627 -0.1677318282637563 0.20853497832304732 -0.0699967409041117
Ni 5.255306511303536 2.708160612460505 5.318101159098173 -0.14323744266681784 0.645205997029521 -1.0978271113073481
Ni 0.6294268536574159 7.267572400320557 6.630491031860115 -0.3475198163610983 -0.8774516887059469 0.4324053014515843
Ni 5.224226800242934 4.359711012843459 7.277861420455882 0.7742851459180858 0.6252470374090909 -0.5184027886593265
Ni 8.44094963211088 6.79413388946552 9.236784710647312 -2.382336109618394 0.387046670811127 0.2083578293152347
Ni 4.8887931116587495 0.22190186686485328 10.21484958627226 -0.3676834357931668 -0.0556075620619752 0.7481835637350276
Ni 8.064757901390204 7.081130484496192 4.566799126199572 0.4369322427876604 -0.8644627326454466 0.6120585637432749
Ni 7.324633659311646 6.126837952778678 6.905841822877874 0.42993961351991117 -1.0689119709348947 0.83106230280813
Ni 2.5279891646571393 5.0553149319729265 2.6640446892605936 -1.1833810832197686 0.799264698681559 -0.4179875833643576
Ni 2.1668647324564865 5.501017981378559 11.388700283836341 0.36176269943335765 -0.5588056179564054 0.029855392798535683
Ni 0.9917517624168717 3.453001337007032 3.736464659622393 -0.23974817070105806 0.3921428543871117 -0.5211818940663605
Ni 3.8880991165858445 2.4289975586386756 2.5206499907821267 -0.9572412473307644 0.13257713473949426 0.4779734769996865
Ni 1.1963053344236283 3.060451863622881 8.597088829651158 -0.5451759429881127 1.1670689763233062 -1.2896892569604046
Ni 3.5264385139312227 2.854626022742299 7.204216136694473 0.186656175972085 0.306186247719634 0.1572044463698712
Ni 4.036772822127208 6.970515793551847 5.8093741532738035 0.35818372383284763 1.1621134320902438 2.059321991708144
Ni 0.5999620153030907 7.792465099487035 11.431954699255979 1.2475247077772127 -1.5688501251311302 1.248690960171172
P 0.4813920088434098 5.540131161613891 7.922332853546289 -1.0181231704178013 -1.4684148652315034 0.5219519394631656
P 8.84601277863259 1.4804484121230044 8.049021752947942 -0.5143797835428625 0.8425327653415748 -1.041838254646554
P 1.7919361829748233 3.25049248283321 10.663255298271292 0.15572323383865438 0.3997463777659825 0.8164458384465358
P 3.8651801015873537 6.2425235439487 3.9212244542428634 0.7581170207986557 0.0854747819350528 -2.620680715103706
P 6.9216788440665615 3.8667340871403835 10.174841274007843 0.6275497174003386 0.28337953423776363 0.847423774885289
P 6.487571616682371 7.779006312328919 9.9546887768445 0.4628728739128222 -0.25684137873791896 1.0084882184311987
P 2.176352223201302 8.427690772918652 5.93718083175746 1.6613136796791905 1.975245632782514 -0.5369741239036107
P 7.002277077223429 4.000204179639527 1.7185662545482494 -0.45761959593368284 -0.5692316983857357 -0.5147001429967587
Ni 5.366230181831523 2.948728481231346 0.4563164981037838 1.0673762510166585 -1.2058610094898394 0.5121010148110149
Ni 1.9240158673475718 1.3006768202514127 7.2637892179478865 -1.4288700130593457 -1.9434886520858916 -1.1715982316522273
Ni 6.956320907973876 0.8291185410391951 9.057624716598637 0.06094080134943053 -0.36728131525874164 0.9953478243944986
Ni 3.034970135607112 1.7649822581193413 9.573052644107332 0.014141067387072421 -1.1291274640825264 -0.8948652561967039
Ni 6.2993030862605845 1.8722799623569253 2.7180052472534726 0.6344438734170106 0.8339352534805508 -0.26103767620745366
Ni 3.8153071617333807 6.970770247326613 10.149889355101674 1.4496252433288261 -0.7132438144350491 0.464791945312406
Ni 8.146801068482345 7.327205459963736 0.3842815432312458 -0.3794184648419079 0.6222547875499863 0.7901858763087424
Ni 7.7820870205305415 3.722831389875868 8.157329093413253 0.5297482955791327 0.5077129130456481 -0.28270179144444857
Ni 3.194739843255199 8.270820020775925 12.234623679171815 0.04323001433322877 0.2394956883706198 0.8625811993520177
Ni 9.203683909604287 4.766791614293664 10.288029583131241 -0.8746255321110615 -0.41534860307961374 0.13707630816142843
Ni 8.943214120592884 2.371854510934269 5.666285708088536 -0.16874201469582553 -0.2724397473968082 0.35419028640273836
Ni 3.779111112273035 2.9937395364603416 11.618549287345202 -0.559390543925598 -0.6792718283649785 0.1471401201553337
Ni 1.1303381933157581 3.594059604575066 12.951157330039198 0.5479501632991403 -0.7601780170927425 -1.653540206381359
Ni 3.1847525325956663 8.257397584157063 8.072031644294563 0.03266329456097601 0.6810145220876981 -0.42286213784783955
Ni 5.641140222560849 7.888466873652008 3.8691786609050918 -0.22066235771420065 0.30243757931047915 -0.4769288377852561
Ni 3.1951487868217856 8.393930209588202 3.544190299775018 -0.6028846105534907 0.5960596172118574 0.46405763824954277
Ni 3.0046446982359916 4.466645211688522 9.21083496943867 0.7878410302256496 0.6975531431726696 0.4646795881042578
Ni 7.219744178299518 6.394078029725796 11.76671862915444 -0.24360508255330304 -0.78139167505588 -2.255212284683987
Ni 0.5207296536586237 0.1510346730657912 0.46872657220447356 -1.6154547123635468 0.7504391925384236 -1.645395208676721
Ni 4.536783577175577 0.24921838834937549 1.7522041348087234 -0.1316515376014313 -0.21903407808215827 -0.7934192956443755
Ni 5.796475164420172 5.497628293593293 0.5877009784133348 1.0340575822598708 0.9448585573956954 0.15579496761685427
Ni 7.781314571571433 8.927774229045527 11.523409929723986 -1.8850382212584826 0.11744259309090098 -0.19044186826676235
Ni 9.325367339750915 4.940383614492387 5.766014321290337 -1.0316181195804428 -0.419938022222509 -0.29663537080640523
Ni 7.983187291308341 8.583134766395732 2.699903587469375 -1.3648508298949076 0.3979304076031663 -0.433064532302138
P 8.326409082927302 1.4785854469863307 3.3930283998218447 1.5207632969262324 1.1435832344965402 0.7327597729807896
P 1.919035843470025 3.1499650665313426 1.7532146797999335 -0.30028299486132154 -0.2561307258241395 -0.7759887588727539
P 4.977270324198524 1.2262490911326007 8.195036416543008 -0.6121827480259651 0.10291663156058405 0.3608944378957914
P 8.712860753351901 1.6027043632628548 12.287107496507575 -0.8374759196439576 0.8597385876968999 2.105217211578361
P 6.256736604796298 7.735558330287767 1.5518290572890032 -0.6954528090002152 -0.23681891286940507 -0.3034451946393871
P 1.8561948487378412 3.4352168356779096 5.8904158630095464 0.12301545919298815 -1.4548713222191139 -0.5821432642410812
P 6.958465589789754 4.0681160745973886 5.9687031106334585 1.1793701622881623 -0.8553345450919334 0.4026059587019647
P 2.356378268847659 8.666977285180854 10.251626335597157 0.4741209360228158 0.12074903175631461 -1.1267661629392014
