# total energy = -381168.5421783621 ev
CRYSTAL
PRIMVEC
9.23067648291668 0.00000000000000 0.00000000000000
0.00000000000000 9.23067648291668 0.00000000000000
0.00000000000000 0.00000000000000 13.51002808382446
PRIMCOORD
 96 1
Ni 3.1883586269494275 3.623594239279426 6.890546535453738 0.266406910939167 -1.873560045415554 1.9338516432167594
Ni 8.98394020089537 7.130337348858835 0.11362870064730438 -0.38243616862230906 0.4629903733272929 -0.10790714279663996
Ni 0.6092163199450448 5.064881247928623 9.84217708735295 0.728763507337203 0.9609318088084741 1.6266333546881857
Ni 5.915608056250178 7.900074204420462 6.0718114046196865 -0.3509221571744279 -0.5421790651433178 -0.13289800841402272
Ni 4.7530597760591045 1.0836444602467075 7.1941028598761125 -1.2588434752241418 0.6013424628773515 -0.8284395204733023
Ni 6.8372726109770285 5.908288130043359 7.6611178441415895 -0.08856961881029263 -0.7750755030298652 0.2763640221518789
Ni 3.0922026732338836 2.065354563492287 2.7154073948357733 0.6634078647495284 3.774279167744403 -0.1094778297178695
Ni 8.355700380421156 4.009048814997355 11.385886755772935 -1.8895224822820813 -0.31663443963615145 0.20977656403963227
Ni 1.6059345795836455 3.037990912057788 9.925965781129156 -0.34428691124609745 -2.0301196591125747 0.7325584556032609
Ni 9.133643307102407 7.30701249084938 11.198705258159944 -0.7939867381120712 -0.16940715908365017 -0.23470006675418936
Ni 2.3579577675653423 0.38286352491559134 1.7845398559623942 -0.03576661607664808 -3.6880549092378354 -1.9404280108826972
Ni 2.2818693038543674 5.590577486774156 3.5169845447956325 0.06927323247452587 -0.5138817608605214 -0.5707946719974815
Ni 2.147664502945249 1.5634919305307446 8.220122054897189 -0.06777299377991555 -0.5507403244497676 -0.7876710803066886
Ni 1.7114873616453947 0.1539704478027629 12.83866041785437 0.10062732130577509 -0.1643855374993427 0.5894971335029913
Ni 5.181612378838364 5.382942656892478 6.183377972209484 1.1246735420762308 1.2328182548049735 -0.20990383364611592
Ni 0.1749896205209797 6.155725635591874 2.311957615914575 -0.3775395026516401 -1.2615207649459887 0.44889070070111725
Ni 6.417886069639597 5.983084299089827 10.48379492680767 3.4072696180898094 1.4541174747722247 1.0778326704632921
Ni 0.920784871287367 3.058723010746961 5.195902388624965 2.293221159827593 1.272514544953331 1.0364759618933763
Ni 4.355863780246505 8.146764025198795 0.2338831806530629 -2.4857062837766284 -2.891059209096112 -1.3859151067643745
Ni 7.907237209132305 4.256310937698542 9.018822003093284 0.27460410203797864 1.2100501078705226 0.2467405428584912
Ni 5.441040532738272 0.9747040200287133 9.297371502689819 -0.0652103752590619 -1.790832230098019 1.289700312703998
Ni 6.521657331199562 7.652304394529646 12.3983008571796 0.029918641936303312 0.220007240628705 0.40222852075788795
Ni 4.092531050324548 2.7400246851270267 9.151774201245448 -0.5289504822681859 0.9584823188267169 -1.011518263506774
Ni 2.1321846589996825 6.932163962056589 9.42717604026629 0.029896016228483997 -0.7624236185938095 -0.01610898974672064
P 2.2886446201668575 8.044312750331866 3.5481925378758747 0.7706254376783115 -0.688504145596524 -0.5790887936854736
Ni 0.8033189785540924 2.3527239741740864 12.291503779969453 0.004367790050392477 -0.5903052312265833 -1.8807056553213997
P 4.8267574946407406 7.390088576424872 9.33233545790569 1.5441423379718051 0.7849189714828482 1.444306916439706
Ni 2.0598253884634294 7.130614269144088 11.971194701356971 0.46571548556793985 -0.23178340732802663 -0.014945822676554903
P 5.640727750433228 5.531538081958507 3.489235286078184 -0.6445555079297157 -1.3325516035415694 0.05578008308409748
P 3.908425214013085 0.8946731345233725 13.060967407516298 -1.337561398051335 0.2875776314795112 -1.4997165035582622
P 0.25041070634449814 5.497523040253431 6.141875005991204 0.172365984601658 -0.7837264938366437 -0.12287610540164645
Ni 4.235864989970796 4.366119061476991 2.110468570230249 0.26169664994769126 -0.1216733433427969 0.39479494729797815
Ni 7.215176493583763 8.083376971904697 8.097167602110227 -2.2213945648035938 2.0256140579327373 0.09040281536428946
Ni 0.5555851683003601 0.34542667155242246 6.347011091832294 -0.2153687134154291 0.004320481752224817 -0.3008146989950755
Ni 0.7085882412399773 5.062638193618085 12.440479508893894 1.6554279103223746 1.085654480500556 0.5573886830042206
Ni 7.555982288642952 5.746520530075529 4.566565040753536 0.30724811332524504 -0.5931486142126494 0.3501947920901001
Ni 0.5615094162695101 1.8132186437706712 1.9912026956428388 -0.12815483730208252 1.205212577272563 -0.15105950981439792
Ni 6.108335344109142 0.954691914081195 5.3751538123359675 2.2739671966939867 -0.5557902281688493 -0.6134251050734985
Ni 0.4478050240775703 6.988572624162347 4.51760461125343 1.4481897964338801 0.24247071183854374 -0.3434299625624408
Ni 4.0274547832904135 3.9606431491353686 4.924148512828506 -1.010120097607667 0.2671754136740753 -3.8375987537386553
Ni 1.7087273894690536 4.880738488912459 1.1946267260346237 0.8862163222724543 -0.7225049280220008 -0.22574619999501125
Ni 3.922760454112945 6.596536576331605 7.6685217695016 -0.445872996920716 -1.2146071311135853 -1.066201771092583
Ni 5.69518873986605 0.5110213098624315 0.591840495113122 3.105307178643536 2.1679107339528403 1.584940860045406
Ni 7.198884350134791 2.9732746413944806 1.8469558421228782 -0.9899086556567984 0.004203496558386309 -0.6055485305388991
Ni 4.490105503860324 9.186959692689522 3.321993895138545 0.13066166288433628 -1.504250386872874 -1.4525228765915952
Ni 1.4440562115017135 0.8083210819733544 3.964855106674046 -0.2653974958380461 -0.44616070336446384 1.4067528694453322
Ni 5.882322237962931 1.174760464770671 11.687092950041142 -1.209091600611995 -1.6232775508420754 0.046344905813126634
Ni 1.4500284589869739 7.203250459965592 6.9518013025514 0.07785017551025947 0.6373325078187153 1.2713601196339137
Ni 8.966724989828894 3.4031010774858967 0.34040241451034026 0.0892609884503624 1.654658893366834 1.6327132423336783
Ni 5.624361761574856 3.560548721003803 11.45012672354561 0.9092552063697887 1.350593805755261 -1.2378319059694811
Ni 1.8623258410219616 8.941949854975048 10.466569561997401 -0.384853262704234 1.3845351956977123 -0.007299876095522912
Ni 7.11000216924519 2.265355624177195 13.197135573247849 1.5723799926612596 -0.2395658794869229 -1.0792382925615671
Ni 3.2183029404613044 8.577485836879193 5.952464300081936 0.15203575768473818 0.10677122941998386 -0.7720302884456381
Ni 4.929559535202323 3.063384502215363 0.06648671435368313 0.2161909522064083 -0.7196623163668832 0.6490305129819339
Ni 0.3373645989811298 9.08275458934933 8.642877793038513 -0.5295690896887912 -0.8656881204121154 0.3355672719849124
Ni 6.496383739832262 2.7692951592781245 8.317246306543495 -1.4972680420177698 -0.5894431403366042 -1.8586065094295152
P 7.498853633795539 5.679773510653708 12.673554082314022 0.4865095394951557 -0.44170421025500706 -0.49134527032090214
Ni 2.701578918857924 5.561574702232135 5.8781185880328115 -2.0637941685468846 0.3882800289975958 0.16861654486155478
P 0.3662686152880782 1.3343680865135399 10.360299556396852 -0.8576665356592197 -0.63908548595408 -0.42243173517864024
Ni 4.193643877146096 1.6420911381613343 4.582249805710189 -1.3026291049505243 1.469947756936262 2.8078757942983965
P 7.451694109217185 0.7685460983350443 7.09974873414994 -0.04308706099746128 0.1354526565150764 -0.46560107147726265
P 5.23619336706146 2.182934916610132 2.026315264745129 -0.5302098085965836 -0.1326771506524683 1.4234670968762193
P 8.89754107189686 0.6518140443576865 0.48818646314058156 0.015919242333417745 -0.3020945941487636 0.5343688250702797
Ni 5.14402506545354 4.825742120261483 9.28107843617323 -1.6095041512070667 -1.1140379167392556 -2.2424241317803832
Ni 8.325211457014952 0.2521146891664132 12.045959486104444 0.13884059915070282 0.28671965435459007 -0.5673601923946359
Ni 9.199153415916768 8.355165001203002 2.3741576042525634 1.2552698989402704 0.8335989531870547 -0.46210977049455254
Ni 4.274209218801973 6.233595619804634 11.129695800007617 -0.4305625918158907 -0.43957919349220426 0.8328551330424946
Ni 3.9879105665564802 6.898388917932064 2.1971086198769285 0.7950254637892308 -0.1979158080463043 0.23503405305484035
Ni 4.0724820216723305 8.485197536480998 11.16528097973007 0.5150487845854291 1.7711260099183435 0.03933479304388064
Ni 8.819828009179075 2.0980403878281555 8.182051054080794 -0.24892649476621645 -0.3761104835145974 0.02922855784781418
Ni 1.05110632672964 3.8133861721147233 7.781262479100865 -1.813462308792709 0.8595292998995714 -2.20282451511089
Ni 3.7023965217858668 2.2999983518621745 11.299003939342851 -0.6588469848517234 -2.429987135837454 1.0956249614497067
Ni 7.841007107576288 0.8750265633523865 2.853803845795984 -1.7239334113929405 1.0283250506514678 -0.7675074608746201
Ni 2.697342038493574 2.607758326214669 0.08155579320945973 -0.9960985865175943 0.2221037181464175 0.7877433283055207
Ni 5.628903254252983 3.235804302489208 6.324462396071871 -0.041323798449451415 -1.2981926664457255 0.10686636023695144
Ni 7.362267318433258 2.163587419347218 10.203258985698264 1.6110588972886963 -0.8762977776071617 1.6331960955073679
Ni 8.168197655277273 8.779748413226988 4.586992527128932 -0.28264934093995836 -0.09824030913083727 0.7600769727385038
Ni 8.804911236480187 6.805399086144564 8.975940896922069 -0.0713779375223545 -0.13922215085983766 -0.7540418222880174
Ni 4.124441497861713 6.776903988792172 4.597610573933098 0.5428742914381296 0.8700597671172499 -0.38062739754834446
Ni 5.215996647590441 5.368727415582894 13.36328128292551 0.4792651992279165 1.113918617552572 0.23041249512242898
Ni 8.413825948295475 7.418934439471918 6.441864597139537 0.01450564981534276 -0.7599849272453297 -0.2882959977027744
Ni 8.531821681841198 3.7127164177495775 3.3854104865964048 0.5333750936984428 1.2806965665434913 0.8774560595813212
Ni 6.082969445980092 3.2229090478726565 4.012762316022579 0.6324597531074463 0.021085359915389495 -0.6514270382385684
Ni 3.378722861707578 8.7140629215653 8.310477451704328 -0.35523569694811724 1.030716947922412 0.9336963701312888
Ni 7.870360657812961 3.9965874021610315 6.375868031690749 0.8313746918422263 0.013690095892582873 0.0738392545786535
Ni 6.345185264084868 7.557431504802436 3.6090550012360976 -0.10213424486860476 1.0373395954452522 -1.1486017707570542
Ni 7.3634488449836635 5.460332645944137 1.4505444537851593 -0.8941844280795955 0.1867857595714138 -0.2104453079718827
Ni 8.370164849987468 1.901962364517646 4.9597198465366965 -2.1388732090699096 -0.9928196586560063 0.43186511267739813
P 2.450061454440037 1.375638439692209 6.042779081913905 0.44418326792311885 1.1913576736673417 -0.12070275189941149
Ni 7.115263654664971 8.773628474922928 10.1487324584646 -0.09682131729612357 -0.26903534970094956 1.5608766200073505
P 3.063929112109691 5.576085325179321 13.050970585218714 -0.29447435859934445 -0.36537561359559656 0.7541706345563979
Ni 2.061625370317565 7.386331691221624 0.8656721961165861 -0.4848756034361585 -0.7913109910521211 0.38190343604729066
P 1.3993982001667993 3.549693445821939 3.089135319540913 1.109883785361566 0.6295158399877739 -0.36003414677802503
P 6.200642105859688 7.633399969723135 1.3217645212641205 -0.19787158507193017 -0.34956538603621734 0.1779463069029129
P 2.5236207128790467 4.848837272051471 8.791029222580523 2.157420633054794 0.5784930690830037 0.3728410687347063
Ni 2.8883708819363285 4.3453223480545935 11.14956944581251 0.19319192020807374 1.860527637711628 0.5808068048178449
