# total energy = -340867.78820493026 ev
CRYSTAL
PRIMVEC
9.25337230583187 0.00000000000000 0.00000000000000
0.00000000000000 9.25337230583187 0.00000000000000
0.00000000000000 0.00000000000000 13.54324571479198
PRIMCOORD
 96 1
Ni 1.649478342647651 7.780670133460394 11.60252562028762 0.3533703616046043 -0.29763167328140355 -0.34944762951143044
Ni 5.011385718042259 5.346283759505448 6.456742075824614 -0.0989278221161651 -0.9733512655187495 0.8527439015466217
Ni 0.15348383162416093 2.728810166043688 3.9932390413571777 -0.962083148804098 0.9812787478959423 0.6056071516909763
Ni 4.019766608368304 3.520824787090254 8.120137490045005 -0.3576077967247196 1.5017649014468588 0.265793188614568
Ni 7.109273217168267 2.539449160282671 10.391162983042848 -0.6081772264109978 -1.339824483053899 1.1428898079739414
Ni 7.534771024435118 5.337992738142964 13.187707832538972 -0.886415582767454 0.19911497056072802 0.2279645478025687
Ni 4.147629703442861 1.7409756855407772 1.7263303735872018 0.8352758266688454 -2.167622256178144 1.4105249348932545
Ni 5.116281943672971 5.871320089982388 0.7867836898231151 -1.1408828048462416 -1.4305335168046975 -0.16918450154988282
Ni 2.7740406486550957 2.0415899835352134 13.410616013353057 1.042610099815572 1.0800911274801657 1.040950195614646
Ni 3.7273970648760693 1.6306014636527102 9.417309422379867 0.5640838356362092 -0.7872831008396506 0.35620088907486397
Ni 2.7969612512386584 4.6578976521178745 1.7177173348771573 2.246929990070537 0.4465039456364956 -1.1028587601939845
Ni 7.872315530306421 0.33360812139853524 4.348126217136481 0.6021338484303952 1.629603493060103 1.556984484041796
Ni 8.114392996672429 0.24670970441741202 10.648837008009822 0.022208160665923043 0.3400420199268144 0.035007112202804225
Ni 1.4140725575342685 0.053847222670275 13.459006522521706 -1.0999174181774736 -1.1988820070688448 0.9930258611295414
Ni 2.535673784483683 3.1272603667898458 11.016238444158125 0.07699605504008031 0.9175722108759164 -0.17440795473235124
Ni 6.119032859930707 8.799577437328507 2.8006209598869427 -1.930350572042037 0.14047324965811936 -0.5423783256383176
Ni 7.359290076758617 6.4287432226565295 6.821461884750988 -1.4645366132230198 -1.1335759867721833 1.468758107503535
Ni 1.164268525501215 7.000638629226792 3.428093044364812 1.0156595393686574 -0.5082718708729117 -0.47778013004195785
Ni 0.27386372471675247 6.638915062172263 13.240960063386025 1.330231440048825 -0.03751650888821926 3.1005946036592147
Ni 3.565453800517999 9.173330388056282 3.8818737833218764 0.2669964648940498 0.03716452486543922 -0.6774036648079882
Ni 2.0998122005137274 2.663000183978972 2.747924856700477 0.10974702421885615 -1.3611425278053846 -0.7492197183090259
Ni 6.751343532656838 7.6540284834972745 9.909809046032292 0.44660370443915337 -2.828183909728129 -0.6181939872170514
Ni 1.851155586615661 4.969578983091698 6.997252820391377 0.2429088278172268 -1.7351490776031022 0.7889620312039702
Ni 8.213866746278121 3.997345687875783 8.819781249876327 0.757549835441276 -0.11125703310547935 -0.5657370549689159
P 4.661460200359568 5.955803376856805 4.40767629300508 -0.16734127769355697 -0.09622636402460202 -0.9687011683412479
P 4.527304812286697 3.4717171415872383 0.6296345975274364 -0.362701152087227 1.8279224500820972 -1.4274479359008385
P 5.77403013618199 0.0848284376521192 0.512030716051748 1.4449635761870987 1.3724672087895848 -0.6318804835652085
P 8.493586930169334 6.488529259512566 8.88958313664615 -0.6710574108749863 -0.5208661625981545 0.40891904540418605
P 1.14130165605737 1.780154462827336 12.184613616177947 -0.7820403643834725 0.13511095690494151 -2.373406925449564
P 6.774588003262374 4.084225598112794 6.970911246158583 1.0153396941353934 -0.5652542017952266 -0.04581680122379851
P 7.972594323281018 5.63549790312647 1.6639506165437725 0.11706361248492743 0.026739729987689434 1.3728850130532937
P 1.3022825697215807 5.578423104282941 11.375892957220856 0.3910668477141136 -0.5116747259068736 0.2651416710734982
Ni 2.210695357864894 1.963038108148912 5.189107832430806 -0.5522413344753264 0.10589216924914022 0.3887538833102208
Ni -0.017053964699841356 3.6692581282460623 11.008423971456542 1.3918103892028868 0.1463032260763351 -0.491021054212264
Ni 3.025501034286234 6.865511637088007 7.653680556707956 -0.7121109863821865 0.12080533891554679 0.9228110906773528
Ni 6.468588242731145 1.9939443708171 3.514756425695704 -0.05268550331917378 -0.6274000791963518 -1.063524481370736
Ni 9.230238626202796 3.5168365837339697 6.6074378664481985 -1.3285563663392475 -0.09448469874314694 -0.8481015176786039
Ni 2.972257131474033 4.3200755450848805 4.17985179561746 0.7047995403224377 0.19775459987809169 -0.6951522470406609
Ni 8.668133287268144 0.023866297207721553 8.284538450021241 -1.9652491836914348 1.9057212035291307 -2.5606781092978284
Ni 4.418772011437842 4.69612333208263 12.138079333443798 0.7197049966793605 -0.9163113418856219 0.3574221630764748
Ni 5.233781262044422 9.133115233099414 11.306401983752126 2.466212950938708 1.6666739155498393 1.3667611595437428
Ni 6.1666044456723705 9.132957925774456 6.919691055815104 0.682509875686302 -1.8560999409575776 0.972750398709957
Ni 0.1723847693864485 7.217334096042248 7.092936388802793 2.362857174958176 0.7785338938921108 -0.9149152328690436
Ni 1.5725643141153227 4.252313101516276 13.10142383946239 -0.6336599440631345 -0.6634325473398768 -0.2031480029795211
Ni 2.594432697041465 6.279560358364157 5.342390865881344 0.1470115649972694 1.1827005122129761 -0.8674213010531383
Ni 5.951222957688914 6.670533834488789 11.928186020426962 -0.696346010238446 0.553762399105543 0.8333570123795777
Ni 3.9053209027754456 8.486961515776992 9.696327275332004 -0.910401147048774 -1.7663121334694676 -1.7509693324648101
Ni 4.17896162122564 2.1716646345312363 4.208901831851145 0.8684618265025108 -0.3205972809386414 -0.08357190848538511
Ni 2.043736765852285 8.618174331535945 5.523247097385377 -0.9493232780352682 -0.2078801183478678 1.1229388187733111
Ni 0.8441259111190711 0.5043809533727688 3.6357655480881266 0.13693438326692545 -1.0678063965755415 -0.05734202825457867
Ni 6.877550274133309 4.786130882074685 10.906862661114937 0.06431871668272794 -0.5991613960656326 1.7891013634498412
Ni 8.53643929616226 6.5647585385127245 11.380552030051225 -1.592477020521451 0.17743157205002347 -3.859292179551689
Ni 7.353034797248529 1.192990992364106 12.620787964123405 -0.07955404557524363 -0.5344642129975634 -0.683565570644326
Ni 6.166345351254792 2.1914946108479807 8.228822046195585 0.12854050277627538 0.46388486011710434 1.3200473004269717
Ni 2.0038917457776693 1.7275768028031915 7.623777359570675 0.3706337766707423 -0.42596520225319545 -0.7208519657996101
Ni 0.07941428966195252 2.5588812416009925 0.31320628668870876 -0.05836275620960917 -0.2603761313640548 0.22643371298033907
P 3.963006424174692 7.547179796362674 11.737646135065967 -1.0051624964920753 -0.7055886118826364 -0.017291697200912157
P 8.359422288724408 1.9887254689773222 2.1160916579724534 -0.3903160855910181 -0.33959490508706675 1.7757737931029998
P 1.7299919329098974 6.551831577750013 1.2568725716922797 0.4911573226798121 -0.1473560928208817 2.3080201725136384
P 1.719489355625947 8.77866481648117 7.856720822379866 -0.6988888312649577 -0.6001579556509471 0.6364171950932975
P 0.255228358732482 1.4983615235955026 5.889577918386759 -1.5738231528656894 -1.142686947934516 -0.16621513450891376
P 2.128321839819322 0.3989720909301356 2.0148421862691466 1.6893248201801359 0.8149070332045063 -1.0910864501494046
P 7.835940524752934 3.411542463104835 12.534341111698632 -1.7541256187056047 -1.3036007248351742 -0.6352856525920156
P 1.017759885733126 3.337737567583438 8.554239082649845 0.13278822230903584 1.0240976428336814 1.2228446885320294
Ni 7.4634552859968775 3.8386966239697715 3.0515502019620473 1.1450474777468924 1.8536571358440401 -1.2685928413014218
Ni 4.659498485483623 1.6346729473575012 6.578577524341668 -0.32242250707283826 0.9239886559252216 -1.0740955720183631
Ni 4.5782631322009815 7.618976710147845 5.853850648877216 0.1636661428348149 0.22084850558307773 -0.8726501535522456
Ni 1.1905295953971184 1.339425605155744 9.957901596620726 -0.7476749995297253 0.3682200250229271 -0.3089684384504614
Ni 6.392507017683888 5.989791012419755 3.131266151553037 -0.8445068583488101 0.5936826323392486 -0.4315149284268311
Ni 7.9334803195988535 -0.029974448102114006 1.0719929740181506 1.730070120418298 2.3983563963060504 0.4431967356401335
Ni 1.3871822583385336 5.673557022394211 9.227243309668157 -1.0745180042677624 -0.5510863949352768 0.27814245420854034
Ni 7.071454685573991 1.7971806674110085 6.172713521903969 1.8875540457018007 1.7242645694801144 -0.9365549226260064
Ni 3.913065975186605 8.682725855001 0.9763871339320078 -1.7152417971562137 -1.004894073322037 -0.1721034749688907
Ni 6.534342704563523 2.5389494781916286 0.6773246264314204 0.03279673481504674 0.615823687212662 1.7170811643577977
Ni 6.841295562416556 7.529478095618889 4.973526471610935 -0.6217575361985938 0.5324554100976507 -0.6650304879546161
Ni 5.031669109589764 3.641109370450665 2.760939724497724 0.15732297422560648 2.7731083089102238 -0.8527261609348088
Ni 6.808982787195803 7.359234556526278 0.9128062891956651 -0.2806881034485295 -0.7751096987019102 -0.957520726244396
Ni 3.6777434704217296 5.874484743225657 10.024438893729071 0.6338265515479858 0.037097419072929655 0.1139140111123522
Ni 2.796674396704912 6.1675482896221165 13.002396102389813 1.5475009700313929 1.035893864137661 0.29929054904106517
Ni 0.49846527261714824 8.180906235013426 9.68279699471122 2.03485717379756 -2.2839214796932215 0.6533530516166877
Ni 6.426559426851232 5.353890031335763 8.886509166449033 -1.5396498494180904 0.4961282935318423 -1.4851226649044875
Ni 8.13840549715864 5.407763163447796 4.83183698800979 0.9229473591449009 -0.24670866117929124 -0.054271873969687176
Ni 2.821519700676195 0.5262855357045454 11.492080147434718 1.28629257257403 -0.137163468558596 0.005261762619571583
Ni 8.187124501035289 7.852652114686691 2.97880944422713 0.7162252656608762 -2.534106015236255 -1.5372412399765978
Ni 5.0999127285052985 2.0306802578807845 12.259331819521304 -0.9719767537687259 1.1404601154865264 -0.09356552936298725
Ni 0.5861206154324804 4.470803722510662 1.870159236807774 -1.662168828590634 0.1932921932313639 0.5170249344751934
Ni 3.7756811602660707 9.083600439225918 7.354903053066704 -0.7699973171760094 0.5560874476942939 1.2545962699120135
Ni 3.5664068978398027 7.070705162437426 2.82934620276145 0.10101632921407763 -1.221322338350232 -0.33045180513521794
P 4.624816847016446 3.423988248520618 10.349869810241415 1.2870225087615188 0.28191606231835964 -0.0814468917225823
P 0.9949595769862952 4.6683169490533185 4.9514238671171515 -1.0215820755006795 0.537106792826733 -0.23336077911747555
P 5.626281544558352 0.5185117778400111 4.732375267787768 -0.8799708555833748 -1.1767692343302056 1.6410626427396382
P 5.082803243573119 6.846967879487094 8.230379388712668 -0.642752393282706 1.1253893371963326 -0.20020948917648745
P 8.428804072402873 8.416626634776724 12.580049993645353 0.33890790632237117 0.4896802239136535 0.11847206279667984
P 9.177596192574258 7.907450584004358 4.880741984664771 -0.24441189472531452 -0.5146870303706361 1.5130774982462007
P 3.6998405228922784 3.4200092985363897 5.99755829292385 -0.054973528022402095 0.722279442274756 0.25590009787057216
P 6.330379877697596 0.23066343193450647 9.275524629046542 -0.3442426882717233 3.23523839111975 -0.8080308749099633
