# total energy = -340889.50980230706 ev
CRYSTAL
PRIMVEC
9.09546753071712 0.00000000000000 0.00000000000000

0.00000000000000 9.09546753071712 0.00000000000000

0.00000000000000 0.00000000000000 13.31213611515149

PRIMCOORD
 96 1
Ni 6.425193002048764 1.8170106767140142 11.325339840363476 2.0014847689847013 0.2687928946728403 0.2273755080683181
Ni 4.510033133447935 0.5102784763071115 6.1308909538714245 -0.21054275278169543 -0.23681634176624378 -0.05813495646951923
Ni 2.554043710368382 1.4865723353880953 4.855148830991791 0.5864285218799964 0.028766016389098845 -1.0881692765026096
Ni 3.294169203038737 4.819169889434319 5.356563774031022 0.6187136071659473 -0.5081757116146797 -0.9225506379271143
Ni 5.355602383095758 4.359912439157148 2.653961061174926 -0.5521544311884748 0.04377225998994397 0.215174595126752
Ni 7.048214348157842 6.22982235597993 2.614689560312198 0.4391415917341534 -1.228904007352232 -0.1800903498291092
Ni 5.356884844040622 4.47495191455187 11.597054204069337 -0.8942307079364986 0.11832268170300912 0.025044601673453643
Ni 5.714191196934853 8.022366224596869 12.55302515013467 -1.3151015263859223 0.24276536026082704 -1.3509190503051638
Ni 1.9551799264547802 6.230058838139977 0.6748746074330265 0.8500666118247747 -0.05116649557148607 -1.740065798178429
Ni 2.6877107036005783 1.5195161193760522 0.3660034391033096 1.2543324747276656 0.20434408017015132 -0.9977145248544624
Ni 0.6011494749451238 8.891556403846218 4.452177772992663 0.384919340055479 0.7741087682412217 0.10836505626966499
Ni 8.802857402893551 2.0874462176620887 1.1741439296432237 -0.32831958928356364 0.958422669233375 0.5677697691282286
Ni 6.767964797567855 0.8930903397090807 4.678311109896414 0.6856579343969804 -0.0005401887741861664 0.33829469821840447
Ni 0.743826438475076 7.066296137933673 2.2867051761701416 -0.18283217424030448 0.664552776987249 2.2363319028397166
Ni 7.687562058777792 3.77485557520316 3.462367139371507 -0.2277256923188852 0.1795473328414456 1.2794884051680029
Ni 7.767302024051791 3.963750248273809 12.582670917536754 0.5466108756624264 0.3057252489228154 -0.3763529385427066
Ni 8.312156920797946 9.225987655489838 6.476939846400692 -0.3236291257864297 -0.12328439658365865 1.071684134363393
Ni 7.1834639527688084 0.37604028770372666 0.2235665959204813 0.10994371361069454 1.587376466070092 0.20328298589548863
Ni 1.839458290983003 6.348154390679908 9.478867124694798 0.07744805497583436 0.8689907024227873 -0.3719512099305852
Ni 0.10574481695814107 4.644327713951023 1.6234418427953776 -0.2668823079136887 0.6608619583992231 -0.6320974846720211
Ni 6.352865842945442 2.00213073069162 7.074721269658698 -0.5836195916762916 0.05417108672576477 -1.100248576264647
Ni 3.470994190479342 4.333544678312011 0.8583301908226159 0.9713666309885529 -0.17112902687076334 -1.6729587201172864
Ni 6.225656631776041 5.600670664645043 4.847334914695806 -0.28849731508030313 -0.8529842996922019 0.18387244257936075
Ni 5.2384345682606215 2.7828947730191236 9.615009904233323 -0.33792497358381157 0.7662769309016286 -1.0505748631886034
P 0.2901845299522299 5.798160554686597 12.507656957276598 0.5686305744666271 -0.8634705439355065 0.8952064415862067
P 4.120237769950451 6.032041410972165 12.833365655401597 0.3970852859940516 0.5264788807992417 0.1469205479453599
P 2.3739807364286842 8.39387060256156 1.2785890042678811 0.7623873660392354 -0.5965054465000243 0.6766624157665895
P 6.330172651048713 8.329765746253685 6.173250366016293 0.05969150232336171 -0.7607554868627672 -0.08387684132031362
P 4.72605049118233 1.1938347076541374 12.312062562702492 -1.6502589645269254 -1.110505478105965 1.5424677784828598
P 3.974992246343691 6.10029380054854 8.2814397073015 0.4122486239980513 2.1310226026772394 -1.5943192159365123
P 4.788545449708353 1.1489576700515474 3.856565618779695 -0.9798258174994997 -0.3456632227683337 -0.9361787702335104
P -0.21269296429220888 5.6766269153583035 3.7573104180212797 0.3730950937270413 -0.5480923453039592 0.23959698983517444
Ni 1.6664170181031348 0.9382247790474127 2.412864770367645 -0.8250628906915856 1.2570997530601575 1.5707977357758043
Ni 1.2793411994461814 6.625820828444776 5.013443622099247 0.5416956977489962 -0.10084920750859407 -0.6563990375318631
Ni 5.877291123625092 5.580742494927314 9.313649773125377 1.0870585599369345 0.31320818756342184 0.16463750560914872
Ni 8.613899061549043 2.0914118415767073 10.101488270225337 0.07848986597678739 1.8319048317686126 0.08812841750781596
Ni 2.2074609138854715 5.756839844952394 7.104314283348157 1.073845146570454 0.7234960882906766 0.07218577813563053
Ni 0.6947991389636777 9.076767412500764 9.239674515275889 0.14048739072550642 -0.04095535936643914 -0.489371434423983
Ni 1.4615234173585996 1.1746250798842408 11.509406639182107 0.4118591018691165 -0.49641651419622246 -1.102170218767392
Ni 4.308823197119502 6.715311135086828 1.8143247851039523 -0.1674369227311568 0.5006158969895508 -1.5162720939240983
Ni 5.366507848860959 7.92955607224648 8.260167227458586 0.42211266127632463 -0.12827053694434037 -0.7303239098457873
Ni 5.219634236536959 2.948914344839162 5.083305909457474 -0.731100897221128 0.3360238999063568 -0.6569600522416558
Ni 0.6015378514156612 7.405902710695224 7.325562444553417 0.006017409838673508 0.6899887005618504 -0.49076420100645163
Ni 5.2673672509954885 4.644527814240294 7.11601560253659 0.056448827016347944 0.3649601233247327 -0.4365640608149643
Ni 7.853490675920891 7.511082699109563 8.9386872983434 1.407432669121176 0.24672254513636221 -0.32967867441461934
Ni 4.785807713932434 0.12117254926083922 10.26753058071461 -1.070548220986737 0.21198745564802202 1.0942309093156575
Ni 7.811578760786571 7.459347678865637 4.752300010947445 0.8550085292110823 -0.6582186072391051 0.7161807855761859
Ni 7.116030155284902 6.356476743619991 7.056470304183758 0.09115100638422366 -0.42471975988186855 -0.6978164241363852
Ni 2.4006668386431143 4.85731628094329 2.918752864418824 0.5889985966000179 1.329485048801104 0.11345661185995944
Ni 2.5296041886743894 5.144814919285458 11.765412220633525 -1.4411390602346859 -0.11888626751596298 -0.7100947272831061
Ni 0.9020193603443587 3.461971486526815 3.9436801892600526 0.5067009268413661 -0.7249323065165708 0.2359514226627872
Ni 3.9650509001540626 2.564758171312008 2.295944352253788 -0.9309013238846547 -0.9710421577695986 0.9044328452804812
Ni 1.2849167211426522 4.000923424739513 8.156865453123075 -0.3975308581719024 -1.9741086909645937 1.499911650288204
Ni 3.6821818548681806 3.042952385328253 7.375775793052123 -0.38064128150541543 -0.8981495833749306 -0.18549840821855795
Ni 4.378712770880811 6.972940257521637 6.036454531897332 -0.2238800933205499 0.20393347499529393 -0.06562509419897732
Ni 0.8343700002761015 7.60856792185471 11.341966355308253 -0.503307841999417 -0.34140624726419266 1.0721705870815086
P -0.21962280112832827 5.687659717671223 8.388855361675043 0.4574054230403477 0.3543658927486542 -1.7299261386412659
P 8.851318054767608 1.6676358107741418 8.01433219798269 -0.7088523702355728 -0.2818530702909081 -1.1099588615738754
P 1.554933870576799 3.2834001692889463 10.328261018507982 0.916857444197079 0.20484235996280847 0.7582082949608813
P 4.304339131546321 5.9004572798419135 3.732417032489353 -0.3328110493960139 0.5677474005307254 1.6462470151540551
P 7.023565630706886 3.9481060438399918 10.368290171829626 0.10588188483649506 -0.49325277175626014 -0.057276979344598127
P 6.310744732054158 7.649824963315056 10.229391465579795 -2.119866071839788 0.3972601210090191 1.2763328902581568
P 2.443924882996158 8.429242876423835 5.771329834535832 -0.41850694620293727 0.25822154691489724 -0.07547113375512163
P 7.01541609165299 3.9927556947502296 1.3929817919095528 0.6851503986329426 0.29375856347924245 -0.5395213158054967
Ni 5.715328130396613 2.8404508925872602 0.11459106883740307 -1.098095020256754 -0.3131721921191639 0.8219076328920556
Ni 1.6366475523404118 1.1526868118061202 7.040895225304416 -0.011114364745606665 0.25854910545764503 0.23312886561232757
Ni 6.937959088770207 0.7434735343285457 8.838126897970884 0.13278025188923584 -0.5194338010270022 1.0341190316254254
Ni 2.7548716370536637 1.7879779438345116 9.316099182575392 -0.22534716478437966 -1.1742906908827262 -0.3645975977789914
Ni 6.467141299053861 1.9647301675335642 2.4790661319790046 0.06613545817649255 -0.5520114778527073 -0.7624943239307449
Ni 4.127914344684255 6.740078093617806 10.669703966196968 0.13552387607264402 0.9990754097577309 0.06289458264169168
Ni 8.198190710591126 7.283486811000604 0.6281666521836186 1.0369246193950208 -0.8961909169866631 -1.645990676168875
Ni 7.526899717429567 3.811692219364183 8.049409778691677 1.241462560743533 0.33139565710572605 1.6493431375808754
Ni 3.141929264775229 8.322816808935407 12.585613301335789 0.4922050472180362 -0.1846291182397272 -0.5940811533292478
Ni 0.0355532736693885 4.90524939569109 10.326983105296963 -0.30892730079988084 -1.0843740711262357 1.4019988997001145
Ni 8.706827454979457 2.404741608170062 5.713302569741141 0.12967821592514442 -0.2509538096088904 0.23216058816178728
Ni 3.390854024626805 2.774354128854383 11.463240773807268 0.8033460678397841 0.29897147513874966 0.6819187790695225
Ni 1.1347414540457008 3.241633781637732 12.72082470498244 -0.4675774784773431 1.1025623119994883 -0.3361321433494469
Ni 3.0346937006620283 8.337014834005867 7.932315637144864 -0.6313636918297901 -0.21750427170119316 0.6772121176224724
Ni 5.655443571098791 7.859739262226723 3.8564728450092156 -1.577098995403484 0.6651940101156738 -0.4445115977968151
Ni 2.898852890650947 8.072400392382002 3.4619141850803423 0.5385134433662725 -0.16882377577635443 0.5505467203817228
Ni 3.5371637179537725 4.579613461307646 9.487000291906845 -0.5909521207819629 -2.454105626152212 1.270912490573534
Ni 7.5917322111529675 6.574622440794801 11.487161853842697 0.11078395012380275 -1.2056548070163042 0.5192247703399897
Ni 0.6319558240249721 0.06048122197855299 13.546695900245194 -0.2548251196388385 -0.8708989751890936 -0.2547824393263612
Ni 4.538338228911911 0.2529085747015827 1.6460058790508505 0.24776358480636684 -0.5359418259843544 -0.1592531013687838
Ni 6.2060558988953005 5.893199096622038 0.20112261983857 -0.22818591978475541 -1.188948292894901 0.800158157030106
Ni 7.946482737625162 8.972415111646587 10.916963345913757 0.2848381210611611 -0.025789707369594295 1.0760380404567147
Ni 9.163319883077628 4.816459440061484 6.246320624830222 -0.7494333769817286 0.2932307160002305 -0.9888025670768132
Ni 7.995298112739288 8.559653692221552 2.639130901099729 -0.02043487081558416 1.626418153353586 0.1061618779707591
P 8.676394020075065 1.5094565321064 3.3999067436227226 -0.4494296039237228 0.376411559694784 0.7100001106867708
P 1.7492767287962019 3.1638038645794913 1.5465905980610195 0.5474729665524055 -0.575950505166808 0.9116324483527138
P 4.629083710095745 1.1256005090131507 8.37029878848558 0.42197022216118946 -0.04242911569848822 -1.8028053432994953
P 8.555233294922228 1.6028942717276817 12.259452558466394 -0.4311158932161995 0.16227363336266246 1.10059438963984
P 6.293536107176959 7.877348087682462 1.4247713610471313 -1.210247054372677 0.2028240439811991 0.3231830393879466
P 1.9488494809397008 3.276287513552176 6.10003367017249 -1.1347124143694716 -0.19144922648535417 -0.7465781669211207
P 7.0048016808539995 3.826208585803934 5.9548518148395875 0.29522152117801415 0.5736010310980251 -0.8886678691367405
P 2.4810707730587795 8.506690783838925 10.362686454183303 0.7655174270277848 0.14317984995600505 -0.6089529282347578
