# total energy = -340862.8349967267 ev
CRYSTAL
PRIMVEC
9.21337063606770 0.00000000000000 0.00000000000000
0.00000000000000 9.21337063606770 0.00000000000000
0.00000000000000 0.00000000000000 13.48469922766330
PRIMCOORD
 96 1
Ni 1.100002729877547 4.666129912824506 0.8095650451474574 -0.18054183554423098 0.8303578205419377 1.0839246422936428
Ni 8.848511807924034 7.305189330043958 7.079103352857947 0.8857182995901134 -0.4497049690722965 -1.6649211945247906
Ni 4.592008347209851 5.244480818769655 11.712593979374624 2.0401109659973313 0.5776289213104955 -0.9684954800883449
Ni 4.522604027287515 7.366273976411287 7.518367375169541 -2.8772171610066963 1.3232601509373145 -0.4518346138207896
Ni 7.533201823000014 0.6813573093918119 13.156588952645818 -1.1114007362267246 1.742157390600135 1.4683899255308388
Ni 7.421167237807448 3.6973992857285127 7.846436150340463 -2.303229435993214 2.132900536426243 -0.6873798021840937
Ni 8.412793090578072 2.4627984263215077 9.313665401320424 0.8902310998588023 -0.829848485005687 2.3589861220385435
Ni 4.845689290358876 5.249557385911193 6.630602005290263 0.4461802437484897 -0.6286293236177625 -0.3100670708312789
Ni 2.6846471744178744 1.8632383415019103 1.6428406992581608 0.9818215077732897 -0.5997728043973863 0.5198706314541046
Ni 5.83245969687979 2.4552066090354328 1.1405102345862346 0.44789414111580284 0.9627585776045678 0.09440833697925677
Ni 1.1028128078778539 1.0950827900343865 3.777603518542521 -0.2968102058213727 -0.23657105852465707 0.2237901047099049
Ni 8.125464918389307 6.0611447658818225 0.47714755910392925 -0.9223071544577406 -0.9535368018959834 -0.27658050903805914
Ni 6.816337105065963 7.970182772103491 3.1315380248234166 0.24637673176116925 1.0579624139019264 -1.3562715728663286
Ni 4.129128613651087 3.0582309211603262 5.183005525493431 1.5492822303015317 -0.12217419423861539 -1.173242966344502
Ni 6.441951795090637 3.1016074694404745 5.498049358798668 0.9764365893122926 0.24715654734998727 0.8283140506390315
Ni 3.0870042772093713 4.835416382259393 4.334238510236117 0.12383384132922545 2.0040245046874197 0.17695617507550168
Ni 2.554932131249606 2.799961719505882 8.90479628826461 0.2599773532637394 0.4593790018269508 0.2868870331703898
Ni 7.631278151895975 1.664607287047424 2.6731525733910453 -0.11691346006030834 -0.6043871632409462 -0.4498795469769478
Ni 0.6502621839785789 2.732280299865701 7.528507610733929 1.2261094753262303 -2.5638467368337974 0.45752832177145725
Ni 3.409868419388905 8.491825382665395 1.4846922734120314 0.18833073546103046 -0.6354653727029894 0.3005771290629727
Ni 0.8451129925198654 4.312935354982643 9.28716866912015 -0.9597223618814054 1.002328112367074 0.7296464241627886
Ni 2.868730316864214 5.415775802971975 8.499864048420372 -0.9298679975241341 0.3875580632299067 0.07686775699233213
Ni 5.994237269363038 5.2541732845280915 4.468762011464584 -0.46236868058289404 0.1613081841255996 -0.13013510095690492
Ni 2.033326374169672 8.030576415683859 10.821322922022832 -1.513663452656658 1.458037121541605 -0.33544077370937714
P 0.9962601781285088 1.1038170652615702 9.587324617046056 -0.2752517629243066 0.1653497011848249 -0.3236178129325201
P 3.0234965144024333 0.4842998986174975 3.400854979035789 1.794847264794683 -2.064479881759999 -0.07034821070625949
P 8.915364024219862 5.735728520075781 2.631511824111742 1.3115420911694382 -1.8150607636280807 -1.6040644682487342
P 0.8241958774900393 2.1360186016825295 0.5979597223649963 -0.5464409257434654 -1.3350813119419587 -1.652251312366606
P 6.215791189603635 6.543483137921401 10.678277053088516 0.20809223435867388 0.27135448475242946 0.04985677562112703
P 8.5310282741123 0.052030667184044754 4.147610634859664 -0.9695244355734915 -0.9566136410490943 0.44452188220946026
P 2.5736260599795164 3.8744526264888384 2.4402588367478977 -1.3323001496523956 0.7492495431056967 -0.050989860784305736
P 4.967112300083617 3.529310554457691 7.9204941436987175 0.9307786822638616 0.6087228145018226 0.8385665816049752
Ni 1.8427385921554085 8.357190399653966 8.285565657442863 -0.47109809003609193 -0.8256555299702619 1.6409348589125223
Ni 5.238630328506721 0.4150282512302578 2.6318895723019473 -1.6084731388393911 0.8351135900593682 -1.0129927911697716
Ni 7.265516556701918 4.275962099194997 2.5085722936038852 -0.4946668784949674 -0.37653702952905477 -0.6357173408127954
Ni 6.428850382249862 8.720860559746153 9.670983863794868 -1.4839229881694316 -2.1367787884347265 -1.1701918382230039
Ni 4.669004484418262 4.122780601381541 2.6692958565027554 0.6655429088146603 0.08361921678355275 0.6914657993280091
Ni 8.256810728134804 7.067272463808131 9.564791476831791 0.34413830148337504 -1.3089002826712168 2.1570215978441625
Ni 7.206127170505267 7.881264533477382 12.169307204062552 0.3798959186989586 -1.4820458257513767 -0.5145024251636559
Ni 0.4880276283188884 7.728838532044337 2.990178202689285 -0.9149501998720371 -0.6687027945998806 0.9872053977930225
Ni 4.817358176093486 8.548155929858435 5.323840185509472 -1.5297549589018817 -0.43221581114859753 -0.5873394637300401
Ni 9.17584443479258 4.636674767358993 6.751289788049676 0.25118366623150934 3.191626567967071 0.3516230398961944
Ni 4.689283112872937 3.177166320852008 10.16003325490141 0.20784540845519045 1.010336070273215 -2.6345536164310563
Ni 6.645797617244053 7.284247338913801 7.848202353463934 0.39759385019935395 0.24549844292127398 0.8231936986933307
Ni 2.667104916999565 -0.051438247461357084 6.4784542476461 0.7359674812848099 1.0057723621619323 -1.256810503954513
Ni 0.24236600284680518 4.694368893384968 11.731742127269833 -0.03285201353301439 0.8869722266018724 -0.21685661081486524
Ni 1.2323251568952813 3.347567608116525 4.478700474215178 2.4157884757395682 -0.46314515373760234 0.39523563437982256
Ni 0.9356638403972987 -0.046807607451670875 1.4213678566779004 0.6935723041480507 3.4119230577014212 -0.42163083654389966
Ni 3.6812851007365883 7.007053874267125 9.695633315211332 1.3644777628262048 2.298196244444681 1.9204189147506217
Ni 8.629537631421423 4.434432071671325 4.54381781284721 -2.5192272983522095 -1.2490557997097584 -0.7585674780725129
Ni 8.390247972982168 3.266388600704378 13.285597330297287 -1.8334647200565648 0.24944251517068652 0.9316657128545052
Ni 5.346104295305347 0.9510409557497982 10.963869426276437 3.049530695103864 2.3463401511397595 1.732572060904545
Ni 5.19740970892189 5.381925879781392 9.168314347088806 0.8614026056628843 -0.2481381945369662 -0.9093138275218662
Ni 2.4634065087740336 3.207036067989697 13.13719849310665 0.3291695959886847 0.2413168007397586 -1.159110640708178
Ni 7.707076550940321 1.4961960878093539 7.0398221477618526 -2.9433418205499113 -1.3751786941834767 1.7653911643170952
Ni 2.626114631677054 1.5972206952630132 10.90819118571429 1.1431903699334958 -0.01886212701182558 1.0108567186633752
P 6.995859629118361 2.479179799057724 11.69393137610439 0.368835547119739 0.1956205842542244 -0.847941852172288
P 5.700459737829305 0.5907530239655204 6.8984623256277215 0.27550578791664165 -1.0961121854987703 -0.14516962669252417
P 6.418181299219188 4.666691928424568 0.42098561659090866 1.3125911012592426 -1.6453003349700697 -0.19474795184128396
P 7.085920325685577 5.931899604608686 6.347948697289548 0.7151723989163296 -1.8686458959433883 -0.7866161566796129
P 0.4122937228679919 6.953155656884189 11.632805269569843 -1.7104885987419445 -0.44233952984616076 0.17793859359342903
P 4.728725551952655 0.8758451111356819 0.25746579574747114 -0.4722982809917801 -0.8704559741144041 0.1709953295063765
P 4.936910871608186 6.761876872082964 3.209115525709924 -1.6308018842435785 0.18140932575084887 0.8576004583079746
P 3.935509632744689 8.8644417255061 11.162471919282396 -1.997858485086024 -2.2569449511043773 0.18847985944438506
Ni 5.856764568239823 6.493712510519242 1.3745759119560674 0.9079424010956363 1.3113274040554705 -0.08269721918991564
Ni 7.951765244488363 0.5889951128754923 10.759481857938043 1.0195125945661603 1.3127854766582359 1.274261866661741
Ni 0.8416100690584991 7.120083503472916 0.38593611256216165 1.134513410984788 -0.21687178032351684 -0.4818208757702347
Ni 4.5881755850848425 7.589117768520877 12.904492709221556 -0.04086151410105221 0.20199383477041985 -0.5150171600165453
Ni 0.6121271221717899 2.218809948930919 11.619819023860227 -1.3994221401118738 0.010713272652446065 0.4968520590717443
Ni 3.95144876369725 1.8393112183320832 7.185038686784274 0.6965162172677231 -0.07983352448887542 -0.599520064956632
Ni 0.24642449254888787 0.5226072504525021 6.227072040435031 1.8986262443555624 -1.5278389728260913 -1.4095602569871402
Ni 2.6471579698826315 0.3562828796310533 12.977903923971216 0.9636414944301533 0.4061851914127908 -0.2890038224030765
Ni 6.191274410722269 1.8851385231633193 8.871313978556689 -0.25609884414493955 -0.7502587010965014 -0.6966272889242906
Ni 4.6297463127484 2.8175316170356703 12.235678482418656 0.6453846886992305 -0.7426148113979985 3.5928364176524576
Ni 0.21051077436791532 2.9425386278821137 2.4399483461622897 0.5326225318031343 1.242466576528015 -0.5779698495896821
Ni 2.105826386577592 7.843001405820743 4.644993519576952 2.3855613014239108 3.1621347291555413 -0.8499740521109684
Ni 8.014047629019759 6.494550927234088 4.310613585618454 0.5500217011161882 0.4684405978085868 0.44420049431429953
Ni 6.474272298779414 0.815613622875987 4.52137957034902 0.6444374942946127 -0.19319783374534472 2.3609108498650824
Ni 3.9217540705989244 0.9310203016689226 9.170188346647043 0.3409604179760257 -2.9163246685311193 -0.2514114659715993
Ni 7.182485661820717 4.458700089549386 10.293490769163858 0.3617071636050738 -0.6359173726387435 0.752547240020362
Ni 4.3859513161381605 4.9097406420248895 0.5538719018828029 -2.4994578290347667 -0.7783305196320531 -1.1402390006146554
Ni 2.510293351211942 6.384589350402403 2.497339352299052 0.4011931375148381 -0.7107058785045437 0.16514889802792848
Ni 7.074357545717101 7.999177249044363 5.4958243298246545 -0.14911472738320125 1.9823372495219733 2.210110764359658
Ni 1.0419400690318597 6.082952813838303 5.071352373839266 -0.6882179818146729 -2.2075903119306495 0.3306505514095854
Ni 2.412502636801259 5.810025139729798 11.904386870249349 -1.7674848136213301 0.9392851770729759 -0.3215339338202979
Ni 2.5963922984672494 4.153792806460339 6.7496581001354 -0.6274324750961839 -0.08465588557818324 -1.068792928858527
Ni 8.71363727727979 9.069595846269497 8.606150411762474 0.016047026160533655 1.5153045878045064 -0.3172191084950279
Ni 0.4009382437356038 9.082310297549574 12.581520770607256 -0.31279732527824844 -0.5362891820214442 -1.2710119922658756
P 2.8286613685909843 6.431973714846924 0.3361710131822988 1.843682284019515 1.10029022813586 1.585536584647876
P 2.8642157653227374 3.9953136206135174 11.020626552523295 -0.7368079749082342 -1.7375756847667236 -1.0688497502383913
P 2.3334979848254154 2.2269177149645913 5.910545775817501 -1.6013054174463583 -2.579064582224816 0.07803478071723981
P 8.195062719091991 8.238595894670517 1.1826125737272275 -1.8193761031739828 0.06321931297096209 -0.6863505895886308
P 0.7967695162070432 6.363343318045983 8.526469498392458 1.262913274418141 -0.6196032088597522 0.2579253558307171
P 3.0064886324727063 6.432194835738751 6.021646125242098 0.5908760161283888 0.21833242402944336 0.4872016804661739
P 5.68359005645697 2.461536194563993 3.5603107821548483 0.0874974687920364 0.9224112841357727 -1.1443710205051583
P 8.724435347497364 2.609853032757245 5.75322010395638 0.036510436221208094 1.6949511652279776 -2.248354381221889
