# total energy = -340864.3928140306 ev
CRYSTAL
PRIMVEC
9.28446424095402 0.00000000000000 0.00000000000000
0.00000000000000 9.28446424095402 0.00000000000000
0.00000000000000 0.00000000000000 13.58875190466502
PRIMCOORD
 96 1
Ni 8.672014698753163 4.4181887859458895 13.776548230442657 0.8328911284867528 -0.04614615953875924 -2.158664532764224
Ni 8.725233248650387 7.743577543977787 1.435081092204124 0.12046852440141832 -0.4196631712945676 0.7714044819361812
Ni 3.5835154370693383 3.3440319625318327 6.229206197416148 1.713324525528843 1.2887852570888965 -1.1717895217274272
Ni 9.125282250390017 7.322814902178717 11.635450469340315 1.948921650176005 0.12314015769631051 -1.2473961526191486
Ni 6.497305319657462 6.782598341507058 1.0352409909133218 -0.507854580829835 1.0210485715947126 0.037394124377742054
Ni 8.411111964862396 2.6210971426177876 7.370593684388435 0.8617486761483933 -1.3067701237020912 0.48627736887969164
Ni 8.47428346058827 0.980216612691777 10.127859567124444 -0.24105197711414614 -0.5634006935262554 2.1731215887298183
Ni 4.716312937585778 3.979107895900618 3.4409032786627924 0.7117091229580775 -2.8192719519504803 1.7174313486083645
Ni 4.113463380123005 8.119059852935134 6.347197813146934 0.6719141024483267 -0.7263888364574393 -1.349348106273618
Ni 1.0803959834857477 0.9721391286703909 8.953791693937356 1.0116882134257352 1.0152157669630193 -1.8211370517291474
Ni 8.210994619348657 5.425562456985429 2.105155742546492 0.5172532484359156 0.2571817927964732 0.8038268641309447
Ni 8.033457091237228 8.507196886859319 5.877013038940691 0.872345220717317 -0.2153113778149324 -1.2081539192890742
Ni 8.369981787604074 2.02589798381435 3.097284323053715 -0.2861707238296555 -0.10517251747429629 -2.5872648586474214
Ni 8.347336978951017 6.831703873678449 9.396173211074125 -1.4802041445569476 0.42409652447557283 -0.03480425216337877
Ni 7.774067725042421 5.823531738701163 5.208772070315822 2.31434585762135 0.19932425835805673 1.8864333018337964
Ni 0.8377845728944434 8.989144149004291 4.516657029952341 0.5294654742313913 1.5477747925180698 1.3356053027662287
Ni 4.409489242810213 5.321195792750487 12.184776018027357 -0.7446791501261949 -0.6885961910896979 -0.8675681110436478
Ni 4.7817312736946125 8.484830612138033 2.019288373613402 -0.6748112214904636 -0.8096452705849347 0.9729524874184341
Ni 2.8890282160535996 7.176073942456872 12.53194163903433 -1.6567931661010176 -1.844609423819475 -0.6495416482903975
Ni 1.0702759172980345 8.480606180839493 6.984115784251172 0.7483841097816079 -0.31980718093717825 -0.4374310368009499
Ni 5.233949680855126 1.2157727587912985 9.135120068860202 0.24476619274093972 -1.0925090415285443 -2.70826534429291
Ni 5.315095899644682 7.159807560841391 9.27925580787354 0.3819337750645938 1.3412871836423546 0.37985066728332
Ni 4.740359700362089 1.6928271082014756 4.712606579400334 0.3509967191661052 -0.4493858951699809 -0.5409001984308943
Ni 5.6727520369686255 0.35351712309781236 0.1460371973209015 -0.4192872760123876 1.7733155613704943 0.16230834325533985
P 0.6912005206208297 1.3601090422355127 6.579374414207623 0.4551389956036742 0.032082482356841524 -0.471176251572195
P 3.43773077717991 9.078330713957662 12.916204265967567 0.8867662812386534 1.737998117016123 0.7001257889958523
P 6.251694098620974 2.3193984721868253 7.002664287214303 1.401346096607464 -1.4971703400976408 -1.4701961255016422
P 0.26205493592186363 2.985521654483789 9.87717438629751 -1.8972309066699327 0.33128458544915845 0.2762436945239307
P -0.018271825924238625 0.8910216917204518 12.354512739156291 0.04916694864295404 -0.46029894253805886 0.2663513751108832
P 5.360283387842482 6.381193807966137 5.420118047065727 0.7308440440153154 0.48627274089400124 0.6362356752101107
P 5.875580446084944 2.2866335973460536 12.637784533107663 0.18253778292833725 0.09851875960320453 2.282490917894282
P 3.0805388630755868 4.836500329145367 7.810026455634177 -2.4973796063494986 -1.1805623828240508 -0.9433680888930978
Ni 2.2515383219427907 3.06277768269293 9.273575572558272 -0.40032436175663955 2.0568077099267223 -1.1375169736978021
Ni 1.8145371519214168 9.311296494491705 11.398598212011617 -0.6314904472156415 0.2607916216349186 0.16322468442202212
Ni 0.7012054594500774 5.330535963929239 9.458912979205751 0.0011729372621786251 -1.6062702176508012 -2.031840755568739
Ni 1.165339548211794 6.296259527704484 5.236874287138731 -0.6808227177918662 -0.41010329552027436 0.05920042161955611
Ni 6.431664156403211 6.187427036096798 11.034161630341904 -0.9869698847434486 2.509712673993555 1.7684626041535674
Ni 8.653408632110798 0.7411945760345735 1.1349598522734297 -1.153486352542865 0.3703165025406397 0.02272418107039312
Ni 3.8484847663639754 5.780953184997627 2.7276697955923637 -1.013039842357623 1.891101396733427 -1.0797501992009793
Ni 0.9343142207357629 4.440926439242872 11.76058926576037 0.9215939304408 -0.7504831584024817 0.2851515385365218
Ni 6.057658077284255 8.500753468570995 4.564652140182401 -1.0208043167943903 -0.5209265835224448 -0.668639545462113
Ni 1.274905512506479 6.0633308850280105 2.60988336652465 0.2359722485983936 0.9233625923054485 -0.15659895157538836
Ni 0.4655741091889776 4.269544511023603 3.6812065714061464 0.5340664633385125 -0.8311995997169427 0.13940161386049538
Ni 1.2921467628831615 8.947679731027842 0.3243620480128052 0.05210931910072961 -0.03535395401926169 -1.995107661813764
Ni 7.626751128528247 8.78581437881078 12.691894391586557 -0.40696526411192496 -0.2634136326387979 0.2770391938420325
Ni 7.244871823604538 2.8460040080592286 0.8636631604953735 0.015909986362037117 -1.1218818382637066 -1.10083813021953
Ni 3.271241761695435 7.1503095537679675 8.106465476986846 -2.5773694539105807 0.5578666510819038 1.9264198695290626
Ni 7.256468119630643 4.587342442710983 7.4737459406808515 0.23099664976067313 0.7442906564385245 0.2601161928344488
Ni 8.865939306517173 2.593318025155734 5.03043329292733 0.023797873750546112 -0.17734338321159135 3.293634057449825
Ni 4.893562647301043 5.695053320439165 7.590405235771328 2.7040065690165562 -0.5937983319815064 -2.2235478637011705
Ni 5.2785336788674195 7.601952324136153 12.709234057285798 0.1784834103533055 -0.277458026547006 -0.028853948117214825
Ni 8.278984752094184 8.96718639071627 8.155099358367103 1.2587372886635806 0.6007693639827008 -0.5880568015120388
Ni 6.9415947942268685 7.007997283561297 7.442694977966917 0.38230478525076744 -0.6719683527250299 -0.9819834872724506
Ni 4.184953755944467 1.1888199586601678 6.9960063977985145 -1.5576084907790402 -0.12662297403858835 0.16379521221351145
Ni 4.29838205742639 8.79316767460956 10.836513023910104 -0.32820851762699604 -1.2665930372625736 -0.030302764748599425
Ni 6.055838322263345 1.9922325159275158 2.4963083705053273 -1.5504806214850073 -0.9816695555764576 1.3757600206082437
P 0.750982258397039 3.6125572416887586 1.528992521086787 -0.19021406852667241 2.9549871180983236 3.1679670195666016
P 7.899556545770069 6.460074617443948 13.015075455728647 -0.5761117133350206 -0.7886920653720352 0.5751976861611835
P 9.413982670671622 6.4480419515914 7.28502527520878 -0.7891065272016345 0.1471519472298756 0.27325041622356167
P 3.028759405159185 3.5378637256519188 11.457097765255236 0.38564361981601325 0.014985931885870966 0.7163476501713534
P 3.0329002762781943 0.1861730084427974 5.1579637673748655 -0.4407120215450668 0.3857374650814002 -0.5451913696070804
P 3.8884636700376403 1.1078130068364982 2.575312663359557 0.33241715639170494 0.14386864849291353 0.4893819759469443
P 7.106718993445661 1.0297956525471805 4.959432208379347 0.31592687204616554 0.7522302230005755 -0.4671504182422535
P 6.963264734118725 8.599642298814421 9.676428482544408 -1.6625156704070918 -0.36503082866166814 0.5959063794634447
Ni 5.6219010254914625 3.531169626825 10.922353467896455 -1.6400632549408465 -0.819097674247086 -1.3182822381067492
Ni 1.7707237644536922 0.3563925217201379 2.4746337883812752 0.2259806846033205 0.8981282432186919 0.1701167835561651
Ni 6.469814020591573 6.175654335247238 3.5292431004635776 -2.355160834755183 0.90441099090361 -1.5368517178476628
Ni 0.9311482183779553 6.149416438874321 13.624082469976459 0.06796171275195392 1.0341606834966381 0.5310950394150143
Ni 1.5008429534954764 3.540314824251512 6.891494895919052 -1.9869035287364172 0.22371322872538246 0.3214632284833625
Ni 3.4514439310874816 1.6117551651270592 10.35560747866996 0.07861379314916138 1.1565901882791694 2.7501355021641345
Ni 6.1218230107001155 4.055064099094824 5.428203887105067 -0.8732870158052961 -0.12834304205348865 0.34123166935954136
Ni 4.970270892111032 3.2655782384160723 8.165385616467441 -1.3291227803656787 1.9165933703569447 1.969070614320054
Ni 6.128452118276288 0.9557334800890243 10.99355881066107 2.040681493788821 -0.43477328746312865 2.552047173095708
Ni 8.034961174468796 4.7613425898889075 11.061652000961354 1.989206208727664 0.8557739466221971 -1.8866772995238026
Ni 1.1826272209104385 7.979180112399271 9.43097416895615 0.4534053007420191 -1.2379656033338682 0.2711588238018556
Ni 2.6074675488897476 4.2177650531072 0.14491470557586064 -0.08406067519634557 0.6787182698543537 -0.30117182522417807
Ni 2.6790136314975648 7.629499329988397 1.5639021072022024 0.2179495867687279 -0.9842429727305889 -1.0581840429944291
Ni 8.024358316132679 2.7592406883122726 11.879178800998027 0.8737007063039469 -2.537366688265398 0.7103448956206992
Ni 1.1130401602894182 2.154218566181678 13.907952183434702 0.6430897220174666 -2.1394244535876896 -2.489842931652822
Ni 2.72724642401607 7.543599465429934 3.9675487377320833 0.8267865582509115 0.9074225240364242 0.2173957711477869
Ni 7.313354032962864 2.8807836116731504 9.356942635230489 -0.12738093525053545 0.39398530691248923 0.08615946670690323
Ni 2.066526799995482 2.2589658934567085 4.731480967063639 -0.3704206322186717 -0.5613270988266784 -0.3543928893318477
Ni 3.819025160846898 4.864446566966484 9.764456346341607 0.9633543022070375 0.6993871110576148 1.1662153700737592
Ni 5.692100860762382 4.633588359849515 1.5059466235719776 0.062408387033892516 -0.2988385491053111 -0.41658633214145674
Ni 6.031717283771897 9.164165587265378 7.225016996501396 1.289040567632812 0.5988387226188913 -0.07248993963961063
Ni 2.7455553877978787 2.8565975819309544 2.1895691643557322 -0.04432504716962044 0.4008216131080322 0.3141479257688719
Ni 3.4296161553009545 1.9652332934744234 13.053369229115093 0.6342582397687658 -0.14068330878639643 -0.20585023240203257
Ni 6.562500828620879 4.454528179577734 12.804572508345572 -0.7369756108343501 1.056788191088167 1.29033974606021
P 2.784513000388379 4.453414043850646 4.392374261149267 -1.202380764250723 0.11196665757799426 -0.4292685555948156
P 3.092385839640286 0.07435091930075982 9.008948839999714 0.040316697341175725 -1.8108824638806749 -1.5127900489127688
P 8.89527821399715 7.507037244652672 3.78259199412469 -0.4226317670045882 -2.068757940310063 -0.2762164408304211
P 6.784557363493855 -0.28578324156951435 2.1668900031844225 1.6813780545292334 0.3247226159609246 -0.31252530256378436
P 2.161943240556153 5.976159048847789 10.727558905818876 0.7386766526858568 2.0812622434246606 1.342685863762094
P 7.250173252772597 4.127176534030577 3.54006042992716 -0.1202083287614962 -1.7225727835999882 0.14266202977932205
P 6.344083803789724 4.9583496398311935 9.386675204000701 -0.2890087074990829 -0.19699561022488007 -1.3885018936549443
P 4.231951714698784 6.112974916134161 0.520771178448221 0.0157174107352568 0.18019910749283158 1.6447125807873995
