# total energy = -340857.61578377616 ev
CRYSTAL
PRIMVEC
9.45786281378498 0.00000000000000 0.00000000000000

0.00000000000000 9.45786281378498 0.00000000000000

0.00000000000000 0.00000000000000 13.84253824339883

PRIMCOORD
 96 1
Ni 0.398305585404219 3.7984100037880792 4.505150673224565 -0.23671349763979235 0.3196009784636431 -0.32696950301357236
Ni 4.898189174983519 4.145447353753458 5.3467907275580675 -0.7851678542688606 0.8023261112157021 -1.0676539301580774
Ni 4.047511187212388 1.6849087525953839 5.288057401221027 0.36486576383871355 0.8870257055476272 0.24988705890727286
Ni 4.640594831003548 8.401419289080934 2.1848371793564834 1.0791349342144836 -0.0030899517792333884 -0.5548813432013346
Ni 7.097936674625082 4.102981550975148 11.929277677217264 0.09742064144301932 -0.3704725685025297 0.3477388743504398
Ni 1.4707543712347404 4.312520495419128 2.1310588272010818 -1.0814908360411697 0.0689706136324425 -0.3036933060944512
Ni 5.518416884247675 1.773803202553812 8.92406266429029 0.7258990413052143 -0.26598627846198064 -2.5037520855347464
Ni 5.621696743120537 5.834252745712909 8.53191698475456 1.105534764364251 -0.08511714148531792 -0.3426748295639711
Ni 6.3769543557846795 1.0794258510219599 0.9323078535170822 1.1025846805969914 0.7778638644082797 0.41154182773901377
Ni 2.2787490253892755 6.501977840623542 12.170178893824469 0.07620055572197844 0.11514222709249848 -0.9569838799043195
Ni 8.306594759313597 3.775039625466207 2.4173502176821553 -0.01408656000005316 -0.9329630915096899 -1.2663971192016836
Ni 7.0237019115945785 8.387223037417183 0.04400175965385584 -0.4291348582304287 -0.1295172648672479 0.6893253559462386
Ni 1.410555076204908 6.7846166045939285 1.7033383435294185 -1.666133469665337 0.1159634374422132 -0.8271925354400786
Ni 1.1353974814990297 0.13336910273899122 0.5243722724805969 0.707867123504168 -0.7856759042535307 2.0534236239458377
Ni 4.4786573086939185 2.549707329129993 1.2366732193009067 -1.307560995034503 0.7007284555768577 1.3431162664312934
Ni 8.278325208199039 9.037224097938827 9.055441832752097 0.8132517569892703 0.37020234556027853 1.0870307920227924
Ni 6.321379955534044 6.326354791227005 5.856224306165982 -0.4883566200062235 0.27654168538032375 -0.5838569044980784
Ni 2.667022656003527 8.656403263001481 5.628098770269899 -0.2217285941951859 -1.1115658010496792 -0.0872958943041916
Ni 4.907902399806086 8.91413001705693 5.072708491822321 0.34323815826660886 -1.5030689649702629 -1.1890192553421521
Ni 8.514686650789853 6.1602179779522155 6.427782800615681 1.2862342085322687 0.41345035761563637 -0.2658273842866131
Ni 3.6873557819121494 5.015570706894791 7.612855813502801 -0.8857362973122423 -0.8867889069464728 -0.039139903424255176
Ni 7.539912048708207 5.197114378237703 4.144815568536178 0.6812487495856913 -1.1668604598569259 0.02844848514868004
Ni 2.86408667976497 0.81792068088412 7.082409701702775 0.04236123857503027 1.9091667388755702 0.9180141835093416
Ni 5.007370740077688 2.806005945942786 13.006655901000583 0.8380389912362791 -1.1086807661924 -1.9866829280851785
P 4.98118191872064 3.7627727777594204 8.87966934912752 0.38131413920272395 1.4282501200871598 -1.3326901860019629
P 2.4838144008546053 4.328910971190801 11.415345939188109 -0.6906746708852814 -0.3148691202056126 1.84647527338362
P 4.8681415457125405 7.674856831345387 12.935851504711213 -0.20478373881073117 -2.082255460575866 -0.4095821329094817
P 9.456453312627335 2.8767885891483274 8.857576728034012 0.07983635270235284 -0.8022307232884184 -0.17736703736067516
P 0.41520016524896214 5.8384331209530025 3.4808726728529504 0.718048434912544 -0.3526154857164508 0.9601381092625851
P 7.109692797755024 1.7114569727287285 12.379852139916434 -0.2929576648445019 0.3585128250374922 0.4484975790277566
P 1.1341206700569202 1.7240926770743463 4.722783656425267 -0.2093693012988846 -0.09501100356026218 0.8490142593008604
P 8.464276243482862 4.510568136884124 0.21980450843854166 -0.011982112062540655 -0.0850819173720083 -0.43494246605114123
Ni 1.5198501356494867 0.9427133938771486 9.002176096746046 -1.2600272111195978 0.08240591320174195 0.26678923397925025
Ni 9.282948824438446 0.030808987204977083 6.401661130082626 -0.5278173971050071 0.6012347336548935 -0.6024439234716463
Ni 6.809679940309413 6.4210469109188635 12.694673172731756 -0.13761058339834364 0.1313419767808125 -0.45723598734201903
Ni 9.4373862617585 2.4108469914036776 6.680339887009967 1.214492202802276 1.2924241393930644 -1.1619303695451604
Ni 1.6813715120076136 4.816652942076655 13.647261520880805 0.1359033708992498 -0.31646860348224853 -0.03828192629933407
Ni 1.5797656948032948 1.8090810298061726 11.518376110490072 -0.5676453277352224 -0.323817587648152 -0.47835168627471164
Ni 5.6839389364577455 5.1757679824981375 2.668190702026494 -0.521390667643057 1.168886489148019 -0.035227455743726425
Ni 7.755986376163283 1.7062456904724148 7.970962645778143 -0.27980801483642137 -1.6291998298637815 0.5710129586558746
Ni 0.756980835217864 8.804948451962762 4.15389606235521 -1.7050401740328633 -0.3969526170709292 0.18392335042195423
Ni 6.910425092023124 1.9886574657419822 4.8168430451135915 -0.2677996775216355 1.6428796413437192 0.053013576082553866
Ni 3.6266079308553363 8.30137401919475 10.586232823781083 -0.21041574028552792 -1.5469224718201036 1.1671769626560802
Ni 9.023670980927397 0.8726060420565459 13.082734947225244 -1.584015520017659 0.23188290902036837 -1.400230494945782
Ni 8.605557794017919 6.2024662498922405 1.8672478301774171 -1.4241376405806827 -0.8112249563672286 -1.8291046433156566
Ni 2.957728976715539 2.848736568872053 3.157095044217794 0.23656745898023132 0.16945755270561136 0.5094869742269355
Ni 4.388041527754276 3.424219130487169 10.844811731250857 0.12481394585430763 -2.0749594411350842 0.7663219252069512
Ni 0.7122054224087151 7.06808766046732 10.013484530224588 -0.4951649011773085 -1.0061266601775576 0.4049304930700832
Ni 4.824994776831771 1.2308840616437569 3.0797571564898374 0.9415261505883527 -1.7183785430129825 -0.025684292139981572
Ni 6.1643132324295 4.220429287924159 0.4584566453351273 1.615824694108456 0.7111689341838913 1.0247830989364803
Ni 4.878460073737292 5.415666665676723 12.706688441295134 -2.3294953116682784 -0.31076281134672284 -0.2781871914035467
Ni 6.94692298354239 7.74931858307671 7.746574857155555 -0.4724227223847864 0.08004101251399118 -0.271109715731475
Ni 1.3719197077529257 5.055634212589429 6.7615261790030665 -0.3818283598349811 2.254475406517962 0.16351830440304096
Ni 4.926373605335271 0.23310888366532334 13.114448106088485 0.7524400250185365 0.5770175129787417 0.40156131948753426
Ni 0.8091059530022969 8.084003964572497 7.815787495180427 0.026881397771876286 -0.2913275854402467 1.1829424530204529
Ni 2.278200469362295 3.2619316672637764 6.085483839779909 1.6791429945511276 -2.12187821717381 -0.9599205939351405
P 7.970490698437689 6.043470122830731 10.417298374768693 -0.6543418978925183 -0.5301193057653064 -0.9060012182088655
P 6.66165493378751 7.216131582714291 2.1008541974120365 -0.628702342947543 1.2193919540967386 -0.4318861957233207
P 5.330148672642985 3.2202508670757997 3.342806795579503 -0.2978137073852226 -0.11450536483944795 0.8748476754241966
P -0.056891880501641956 7.921934032187389 13.504433609821417 -0.07592981855909503 0.5367861762625207 0.8824907937917512
P 1.2562595068228677 7.150380522376914 6.030432459327411 -0.5160620563412919 -0.7529966688529548 -0.898936083831968
P 4.468386069981837 6.438402088669019 4.47502927262582 -0.10544891106413454 0.0421951453108112 -0.9919830216873237
P 7.402687921200299 8.561550359646542 5.727806394463616 -0.019516215656056712 -0.8286758048538244 0.748250412417221
P 3.517483112936372 1.3835055893572534 12.143712011308919 -0.4056884542820304 0.7730553872760428 0.1770065686974629
Ni 2.409570179961568 8.852852525698205 12.636340859766165 0.48899965290686115 0.3827804393356053 -0.7460783444665667
Ni 7.074481175540402 9.419151502792667 3.7400464798761237 -2.2071203142727667 -0.08784585327039066 -0.2587421953050576
Ni 8.079889794370143 8.163743203597873 11.68491488292256 0.9994561901359176 1.499847372709172 -1.3368288907606847
Ni -0.013083061243482672 3.503097704021938 12.232997070990008 -0.4550443790073389 -0.5774851966437797 2.10890854438702
Ni 2.585259434395844 0.6121554235912631 3.6102864974801623 0.44334663095443644 -0.7883012576915198 0.8644079681481114
Ni 2.858005274155515 5.046431712343706 3.8637988279903968 0.005359978760332704 1.2233877055196931 0.8265942397344475
Ni 7.259183772969719 3.528435317750912 9.519887196643845 -0.3357541911847379 0.959495847692896 -0.19797468630869777
Ni 0.45828262066449904 1.7570060386931705 2.476775859556695 0.38412924005401583 -0.16067466430665875 0.5518171024537142
Ni 4.015893552760741 5.550422291063221 10.420095064720039 -0.5550093841387668 2.7022119390099784 -0.9016843360010665
Ni 7.872819352047575 7.451916095690524 3.903484964969922 1.9071923887580187 -2.0895193412271302 0.893001463515088
Ni 8.5695990006631 8.678468456293642 1.9320720199864465 0.768498878253612 0.8712208773048867 -0.6744929189190964
Ni 6.1247509934491715 2.9717171554035393 6.933658331338251 0.026490590091360827 1.0730031102851327 0.09231674455755069
Ni 3.7805062700109424 1.1441081728929772 10.093175534151039 -1.9317597936847377 -0.1719227264166523 -0.16988924092639127
Ni 6.183096547422311 7.532847025395201 10.154830394224877 1.2818083115504313 -1.6655847962507186 1.4855427831610415
Ni 4.193587874052256 6.750398057945392 6.5136478972044225 -0.497609248952743 2.039624513279217 0.1951495581550768
Ni 2.710661233736072 7.620124180860291 3.244718357451633 1.205568675060401 -0.05442716860062884 1.6516599586395102
Ni 9.001265304584008 6.056739503966135 12.289474697112652 1.894135298463744 -1.1428455849995671 1.0562670284773745
Ni 3.1882454602602537 8.281815159474139 8.18968801210154 0.4561815779355757 -0.275834374900654 0.2870662390607314
Ni 8.603429774947736 1.753062110016432 10.536137363296477 0.34374517981001446 -0.9135330078095364 0.5881899846557935
Ni 0.6395406645588797 4.381666928406262 10.298474518820962 0.22895056586492182 -0.7328405056200541 1.4333766426804475
Ni 6.207630242835883 0.6240032879877864 10.63338121430005 1.3314434580790555 -0.7922664129868549 2.068138304448193
Ni 9.277425432718506 5.088594863520924 8.431462189420646 -1.8267831942713313 0.9142153785885417 -0.7790496571862648
Ni 3.339760418057255 6.87347322310222 0.638834162227579 1.3251897638598598 -0.24896686108584865 -1.091176952980682
Ni 2.6924453904953083 3.3202299319242456 8.694511828510311 -1.090541376279212 -1.3101151289149242 0.8354555467798191
P 5.746218961245089 0.7874389357228243 6.448033975873793 0.25428724485749754 1.8183376346071396 1.018472326227104
P 2.007119213408633 5.557525145826364 9.18116047048722 1.3533258599744435 0.32215896899880647 -1.7803349301111209
P 7.923012228516282 4.035282170955739 5.919179622338264 -0.24382516898390913 -0.30823541693917883 0.5534075868692856
P 5.100171287262717 8.90803915358494 9.170764387989687 -0.8131244873827868 0.9696146812944526 -2.1384026971913945
P 3.0028429810034103 0.3958068181226979 1.5990758127392584 0.9850359009455293 0.2503040918400335 -0.8465159183590388
P 3.808198891510919 4.700567137332561 0.661597345774759 -0.2527679799994937 -0.665936287598337 0.24665646778511713
P 7.749375330251915 1.5407141803998103 2.6871962767888578 0.795969315759739 1.5595447885698044 -1.640073025132859
P 0.6742122428228016 9.047693951764126 10.585928280607483 -0.046447492829261944 2.198363136905427 0.6172236528839822
