# total energy = -340891.2350456776 ev
CRYSTAL
PRIMVEC
9.05124584026645 0.00000000000000 0.00000000000000
0.00000000000000 9.05124584026645 0.00000000000000
0.00000000000000 0.00000000000000 13.24741320118408
PRIMCOORD
 96 1
Ni 6.473414892955851 1.9433296575516361 11.388364536574622 -0.09385606402021256 0.33825330345750776 1.9867366641412492
Ni 4.267617205569128 0.5456978076126399 6.20053159441495 0.4335376152838146 0.2855621437113791 -1.0080364756057607
Ni 2.66201668786288 1.6396422536952742 4.9415765989318565 0.06139922904308781 1.0757102248036507 -1.0999737253367055
Ni 3.2765057748862594 4.320956197907157 4.611080309718969 0.8596421713283517 -0.7286336666275581 0.6449401449626442
Ni 4.884378155324027 4.521957216548021 2.684747081797801 0.7489770061706005 -0.07228193739386261 -0.15627216436358893
Ni 7.105834498190943 5.998188276000842 2.7295760927008708 0.6624267317831817 -0.49971472533152006 -0.6880115222308216
Ni 5.017268548249013 4.406789163178076 11.675449239999006 0.3088537672494681 1.0233980456634957 -0.8836914989680716
Ni 5.458136635607015 7.980184856218023 12.264733322446835 0.048980543663760805 -0.4301622710536785 0.20832929007014445
Ni 1.9904866489110675 6.586980875794005 0.42630191726304356 -0.09984004951778935 -0.49592903303684266 -0.6758800290746101
Ni 2.6907091375000007 1.5164819501582711 0.2805732370934867 0.4474208010238101 1.1126366655163549 1.4564571786489948
Ni 0.8456207982815955 9.128905632494325 4.403957028322728 -0.16176815448115367 -0.6688526899141836 0.6522605898834573
Ni 8.723274045589733 2.26352653400677 1.1973223464881257 -0.08561490705734287 -0.19521332151347667 0.47371110217890666
Ni 7.401792138012573 0.48453491828207895 4.841015446263612 -2.2390536726462535 0.8220403018151778 -0.7795137413068768
Ni 0.729944064889694 7.35482522281793 2.3747582005164034 0.9367199874489609 0.9368369726427995 -0.6080831240352946
Ni 7.735565883381172 3.8500922814963427 3.9673620341740903 0.2554457839419729 -0.23706908120699816 -0.30783638172854727
Ni 7.570118158801701 3.9624544486241704 12.875438988666328 0.015325831723792961 -0.048842732534315876 -0.496437597242145
Ni 8.268973909253344 8.897302351322514 6.912858314202533 -0.12643039841180806 -0.18201713453817686 0.7436666497012805
Ni 6.739765907300186 0.6338967685728788 0.36134203025968387 0.8576737347480713 -0.14031512681370029 0.3191245530478568
Ni 1.806266640247246 6.33321109330948 9.077577827004678 -0.3714740131838506 0.9602463527056754 -0.1869870769489425
Ni 8.922781608650116 4.837076344029519 1.3482953185566564 0.8259229246990356 -0.025412012315201394 1.7785950646018789
Ni 6.449610116127577 1.5853347780414182 6.838526767150506 0.5202280147935234 1.258298401353949 0.3234020973772882
Ni 3.5417253834878064 4.418094169360021 0.4097227500705156 -0.9150908392149595 0.2165989862781044 -0.012713590911926493
Ni 6.100738892527207 5.607120143817426 4.9206320158213535 -0.4734606767309975 -0.7098065066187259 -0.17557086469220085
Ni 5.093181347967161 3.042141863702044 9.525022549664362 0.9479428527479737 -0.9092845169458276 -0.17608817064825155
P 0.1973705638934026 5.600005864506771 12.640708502021452 0.2687635840968017 0.7286424083783064 -1.4560900251175632
P 3.9454109525148016 6.358283044569675 12.504180413352252 -0.1595400364815833 -0.715439279424471 -0.3940403285201407
P 2.6695473244868815 8.587704483865824 1.696980086490615 -0.17269714268883163 -0.6878618840268348 -0.448310402717615
P 6.683168466422926 7.767245244179255 5.895310909495961 -0.6128664043565509 -1.6847641973926468 0.23588303131869698
P 4.755497464351485 1.0930284599932725 12.704468193812861 -0.09971843633826052 0.08950241503720716 -0.19803767833614924
P 4.035733335773107 5.936232497525735 8.107973061805328 -0.3258693279708581 1.3884859528153441 -1.9684982867563516
P 5.020698970461148 0.9948767489948702 4.037520051722119 -0.5570377274227052 -0.12016384867680595 0.02148439512602106
P 0.2926720375445716 5.692292368134557 3.450050744085721 -0.6458685703141844 -1.6011681205375459 1.3946128916486886
Ni 1.591037062985073 1.225049933307796 2.485916551933904 -0.23904934486182053 0.7185796248256657 0.051212775428389215
Ni 1.9133338284988228 6.449284271273654 4.783349958365159 0.1932114605920995 0.29978471506866433 -0.8705256510100751
Ni 5.896524681576825 5.518870495879909 9.163819003467594 0.10562606007194712 0.17308949303124385 1.379299915440702
Ni 8.632200408918218 2.3916288178282743 10.317085315456124 0.36939167673352513 -0.08462837477435747 0.02591826252765859
Ni 2.3866777862978306 5.116280127611934 6.867127799203609 0.4159551263153611 1.0053370743967267 0.8623929946006116
Ni 0.6398742113931798 8.969866190042008 9.046195347073503 -0.22721712811358288 0.014149294917188535 0.3439007315512722
Ni 1.3906334265764027 1.0394450840148013 11.334791116966688 0.1133689372421596 -0.3129829589264932 -0.4635179636959888
Ni 4.279845438837189 6.969577041775419 1.4128234611285682 -1.5228186367933645 0.8900156414138864 1.3644525660152242
Ni 5.5528850781311085 8.23748462462005 7.6960716768365 1.37582532662854 -0.9536823263349123 1.2895249634683985
Ni 5.374050560802962 2.949574771450047 4.95598980297039 -0.6949414165814355 -0.3318828811547897 -0.65816847072746
Ni 0.8094067632664159 7.274812208687917 6.794532281123317 -0.010708387556439622 -0.891678116717974 0.8676727549423122
Ni 5.121683721439493 4.353033813526702 7.007193114787063 -1.4848444715424365 -0.7344883256361222 0.41898568561156874
Ni 8.060396997758769 7.061800186681609 8.95420481918803 -0.372084650184656 1.3409778799320518 0.6785742880773217
Ni 4.679095897352452 0.5267101038748635 10.560215358335466 -0.5046761831018534 -0.9114380729537207 -0.426164462748195
Ni 8.34346566335855 7.428792004658483 4.464219318682029 -0.15791972726934092 -2.1419847581156977 0.9049385812723061
Ni 6.930982529077413 5.721364970101254 7.117848216930171 2.5278965439914334 1.7515056645842546 -0.02898378882685976
Ni 2.535516474573165 5.363469654296401 2.482419150501796 -0.9144298085921929 0.26231011516197406 0.0003342434109671663
Ni 2.2799726478839464 5.2111100313495085 11.445195499597194 -0.06794011548539913 0.3409213372079742 0.5043599374130152
Ni 1.2079430784768315 3.582827091311833 3.603415960456804 -0.900603958452694 -0.6410703775945927 0.13969600517246264
Ni 3.7010363633183925 2.4223940027861834 2.689118833587937 -0.017137688121551132 0.5618986550594323 0.3176502824951755
Ni 1.0997806894662352 3.39334830875553 8.356852456107227 -0.7554600427917828 -0.025367275120195022 -0.29239562169344485
Ni 3.3211465198737287 2.8110726060408298 7.328680698913571 0.8305038592014987 0.03212002046299629 -0.7218081590652924
Ni 4.024120587229124 7.106513341636617 5.9855255829275515 0.7677501730130455 -1.1302248109117632 0.39586349777180857
Ni 0.7007574172241234 7.392777097054034 11.259201446728678 0.5447283139277329 -0.4847930710246812 0.34214775341590753
P 0.05586972070349846 5.434983548486588 8.178767381943102 -0.031843883983474194 -0.43552816335128214 -2.6246790376298215
P 8.564062629464512 1.6947552902379954 7.934776565574647 -0.2528973064885064 0.1842182559545537 1.5327778048886054
P 1.7086489527594402 3.2540948899331013 10.496508163770523 0.39940159283205406 -0.547007853990529 -1.2287577115823547
P 4.1074916136037345 6.18137644262724 3.836132544879519 -0.741332345141149 0.10940506749840513 0.6530699731586301
P 6.981895787502903 3.983127494356405 10.789739568314328 -0.3874328505059521 0.49155995743486947 -1.7086859983155671
P 6.155082573164832 7.847701769360442 9.962809592903602 -0.3129973571041964 -0.6022251225926208 0.1806696193713469
P 2.288698048972332 8.53650158557018 5.868286604486007 0.17213329976556163 -0.24350172420621935 1.3557072157224264
P 6.826178152311413 3.8964165582290815 1.8945787417817639 0.47165910474588446 0.6664361100528909 -1.1740400083245006
Ni 5.377996904033808 3.0162553003070394 0.4906598964112397 0.17870761054896964 -1.2029978290094314 0.14995110724156757
Ni 1.546088575635565 1.1351077023790683 7.099791886399858 -0.5796600928079114 0.23407348891378396 -0.12694359060280072
Ni 6.732959370351569 1.0750979417815576 9.293669988005153 0.5446478383987846 -0.8815094037150882 -1.4936242746175954
Ni 2.879527179102515 1.5001897074621144 9.267347154555729 -1.0677747720066577 0.6170976688290791 0.7758082674308315
Ni 6.545091709572997 1.8723588381179888 2.6654588766947405 0.07244160290017845 0.22850447946643873 0.2771422950788001
Ni 3.9284308151270295 6.746545290510976 10.043658942158684 1.0008579555794506 1.483779777723348 2.052771592184136
Ni 8.023531273035744 7.28211656416336 0.413369497060672 -0.1363934231617909 0.08219996783852296 -0.0867032550255152
Ni 7.437562661976581 3.6583144824706926 8.521093649602587 0.24365804727842555 -0.295667093355865 -0.5138833035224182
Ni 2.9014402455288457 8.518562016112524 12.40563316290617 2.011543952992916 -1.1899793052625764 -1.144244779339939
Ni 9.121302585902786 4.958951370642714 10.214669562494299 -0.5992092185844325 -0.5322366092186254 1.8472098375567994
Ni 8.80058978842894 2.2284801097181486 5.716192183045224 0.06281410711274342 1.3374169020536708 0.2666457664228505
Ni 3.5158569225846863 2.648711356327685 11.63307040137252 -0.02364335045055283 -0.052743867360934976 -0.8192298289495761
Ni 1.004787863301699 3.1738555946545293 12.456900325048004 -0.6943215236092494 0.6632325155139288 1.7270606441680127
Ni 3.1174029737123456 8.4021358395566 8.03546986643365 -0.2671057367784045 -0.8257807426942165 0.1468305593347149
Ni 5.696691273662519 7.624416583209614 3.8431545014815627 -0.4563744106726721 2.3032623461136783 0.27903231301266135
Ni 3.164460401366412 8.378919393714575 3.9595725319161392 1.621041976643337 0.4149264279405306 -1.9680619705498814
Ni 3.294508703065512 4.34538551070545 9.287615609594344 -0.7579709821390946 -0.3729788798641512 0.6178977961328713
Ni 7.059265837817763 6.2514149837288295 11.376004155115805 0.48765548017414073 -0.9597545006709213 0.1509345542007594
Ni 0.990713175861408 8.856019618579642 0.3577903213519217 -2.0703193712599117 -0.07327052655937703 0.32592614935072256
Ni 4.705380715568919 0.5220586685851107 1.6490510238523046 -0.4840466797769599 -0.9745005486318442 0.5248786261916574
Ni 5.801260318034019 5.640130037769029 0.38728923700250195 1.3701069360875242 -0.07544619405445717 0.11029029831683586
Ni 7.7864791418066615 8.645958302750527 11.13009266435839 0.0975733649707997 0.5294863001669977 0.04371081062438924
Ni 0.25050680832232364 5.028682169382265 5.734937313391747 -1.5310608221974986 -0.5909616338636597 0.19141425948236065
Ni 8.026834977804686 8.90845348632344 2.5964268341419356 -0.2846946535047613 -0.1130776312539859 -1.6350010099265904
P 8.723871427821926 1.666126199322471 3.5435772684076032 -0.2902801180123388 1.6363269278268655 -0.724736645565997
P 1.8634343096188717 3.4056308494992438 1.5026009593811458 0.22865617455295456 -0.8893096164857973 -0.8779224576947784
P 4.735964875607982 1.21358200469889 8.223490493268645 0.35755483199959714 0.5380172204561443 0.18556602823169976
P 8.625212847050754 1.054243871130477 12.50134556312312 -0.7365320955390283 1.416871960157205 0.04730726972639595
P 6.218224064858381 7.773961268668447 1.751162654950467 1.6099312114421562 0.6773599560542464 -1.9280841446053631
P 1.7100971521102097 3.350753145351023 5.919765565782892 0.1343231708963235 -0.9240843009628213 -0.18440671781627596
P 6.985860233225635 3.792227666187159 6.100778718009353 0.9993024381668726 -0.2045381984588284 -0.20141379389723377
P 2.5237589060941055 8.52591162781768 10.188731406997425 -0.7916192663211592 -0.4568243537258972 0.05332442245475332
