# total energy = -340869.6233478692 ev
CRYSTAL
PRIMVEC
9.23548053587606 0.00000000000000 0.00000000000000
0.00000000000000 9.23548053587606 0.00000000000000
0.00000000000000 0.00000000000000 13.51705930093301
PRIMCOORD
 96 1
Ni 7.166114148946556 2.2277456823621273 6.734617719716942 -0.5890266216244759 0.6402273128680072 1.110655630530584
Ni 1.513482850177676 2.0743720564542776 4.218498774142938 1.026927913193625 1.4698341141765332 -0.5247724396310962
Ni 4.560618840108673 3.15513569977422 3.375696523316622 -0.41271965009719885 0.6557624323891287 -0.22241353607735245
Ni 0.9953077415601222 4.417745955614518 9.693204845443576 -0.0905208289993925 -0.3110533460039482 -1.7942340566907165
Ni 4.588556168847834 4.7812729420048825 11.495677888935536 -1.0927666660653053 0.5221000350052557 -1.0729866552249003
Ni 0.8949947221994135 7.040881032350515 3.1460008859375574 -0.756892147252619 1.1512114404657594 0.7116476735925228
Ni 8.019620321759215 5.800657581423845 12.882095303171106 0.2330836141966889 1.0323539693052026 -0.01997412912908173
Ni 5.004476036539772 5.460247002912529 4.684268995334171 0.2849401938566641 0.14559205894192345 -0.061181713715643016
Ni 0.8652860282859811 7.260426876577733 12.096916909844003 0.8295877751451326 -0.40177934903561124 1.441017704165473
Ni 6.005168063275078 8.727695381958464 0.44360137361917285 -0.8416223377121635 -0.08839529801595744 0.9139695811263226
Ni 7.939465585849404 3.83364798665312 9.076462223293975 -0.9719798390925194 -0.3272189000202171 0.12903389747292615
Ni 3.3314410239496186 3.3978903066862345 12.682732678192338 -2.5399681304439867 -0.6495331636499652 0.7979619207097354
Ni 1.7656299408343936 1.4167134847135676 8.128848350518902 0.20979276198954835 -1.1315075342789287 0.731946790161191
Ni 6.949828429362288 2.8167846334311126 2.7818514281564433 1.3183051209248844 0.5740987966700499 0.7474294591778224
Ni 8.34382263186153 5.118681989329347 4.328729776093064 -2.0712328842131167 1.095451669096636 -0.10571193491753407
Ni 0.821995636639058 8.450132248759541 6.020931181520368 -0.6033121850092126 -0.24537580130048064 -0.4323343390043329
Ni 2.850263250515231 4.205099015376773 4.901461639110896 0.3699848302328338 -1.431901600796818 0.20359871736369453
Ni 3.825031283276711 7.084537149028206 6.048776155453779 0.2688180914838209 0.298908226000982 -0.3815583940030461
Ni 6.299050290649901 7.103248232673012 6.389973596910079 0.15420551164254734 0.6427025138813769 -0.8697332370157667
Ni 8.328454792184846 5.946365758454504 2.1234087641149215 -0.33096731131905577 0.10225868626161098 -1.4813626836414229
Ni 6.9193790499067465 1.584983940788778 10.552430551376288 0.3352831650855903 -0.652739843512721 -1.2322919499878584
Ni 1.3951763440128329 2.5403574643429065 10.960915857205407 0.22044844193118163 0.6226006009251793 -0.3443897553725488
Ni 4.424386266147892 0.5914798885849395 9.403439795309056 -0.4567693321182456 -0.3064125047978271 0.606990148081432
Ni 3.1679637822927966 7.8909885483116 3.152948737974077 -0.16722866337509265 -0.4017045299336178 0.6864999706823016
P 6.0046970537657565 7.700109635788963 10.237766645611762 -1.0061780822407833 -0.33205797328007325 1.6290381074749363
P 4.883953015036945 8.866717071052873 5.015829212810532 -0.3310714409970879 -1.734899937706773 -0.48434415641272066
P 9.196340608252672 7.800831786939142 0.8246000421611879 0.6367118435155807 -0.5021045657199352 -0.6211659253611818
P 4.941259172004381 5.527749130434687 7.460889447292974 -0.2935685589556234 0.4175893194846744 -1.1606520170533687
P 3.071960961716407 3.992950791090074 9.68451333467451 0.9758568055494226 0.2693775635317167 0.8149150036243061
P 2.275797887793484 2.4355439952980347 6.253775194227425 -0.14535166079634323 0.28889943561472825 -0.1289891602779198
P 3.085278524705455 8.741290009364759 0.8346537863150559 0.13126021570028362 0.5564723418375384 -0.2617627272989363
P 2.289087744340807 6.151882907688403 4.534905415091956 0.5826875667803254 1.4126216695212834 -0.9805434123918146
Ni 5.735141082225297 0.2929337435197775 6.960393819140008 -1.3529738759516634 0.39378604641748954 0.13611060181404944
Ni 8.683226542990178 2.1498351682320243 5.100310771369697 -0.7483810244578143 0.030356243694354173 -1.0185078074507299
Ni 3.7497990585133376 1.3985103525003821 4.7081676484179145 -0.7810435476878419 0.9689089134766796 -0.9416557341876813
Ni 1.0409217801196977 4.552020607693414 3.1507728587506234 1.3380056846776054 0.37660722064535784 0.4651395584598118
Ni 6.052776965638839 1.4570171219425587 4.624362127036835 1.4228299775128526 -0.8231474188364276 -0.6873682322198678
Ni 4.892006354098283 2.3636642499833607 11.100830617271413 0.1760058953470904 1.5946745423934021 -0.262921780604044
Ni 3.9703700410843723 2.521212313111078 7.708684779502785 -0.4875755188658248 -1.332098575164551 0.3556005364867037
Ni 4.373748126155555 0.5409627333881342 2.4291909082105407 1.4503960600565795 0.5017649229923294 -0.43863971239707034
Ni 1.4568139413699102 6.7613507417891325 9.079110959122865 0.20977013628172902 0.7170289925090941 -0.46585123981485577
Ni 5.179811635254803 4.021008181076709 9.058511219700486 0.1614259406503865 -0.049869116916301214 0.5477552736795147
Ni 0.9862662060772664 4.810041463995787 12.228288850378199 1.49413335304353 0.5256635839867979 0.7164546080628629
Ni 8.689728321314929 7.824437675288661 10.250972459285853 -0.26359052453629445 -0.2574299042515373 -0.34866190038534145
Ni 0.16746881636130653 2.972531777846719 7.475353133421371 0.28225210550153973 -1.1271605701641427 0.27361448443119973
Ni 5.869932921216389 5.108901615400496 2.4788528579061078 0.5146433216168943 -0.5137578336881474 -0.7203439158149401
Ni 1.1412837475274535 0.011117671516099797 10.971080427126175 0.25350897193057625 1.610964023582045 -0.8704742289468492
Ni 6.910235924137567 1.7146039106579098 13.131147584287163 0.3670265189354582 -1.1838953038520257 0.4744132704522539
Ni 6.717500680019368 5.032958258632854 10.880759274199482 1.1979489537316141 1.1201841388463096 0.24561157146037055
Ni 7.881032700251827 8.50682886400903 12.446305299022209 0.30572036382680895 0.33201220764380235 0.538406228364447
Ni 8.763048801599291 1.2596641375368962 1.4736437576216037 -0.7901727636826198 1.0556965006858852 0.7654423508154753
Ni 5.425392299222746 0.1751527361996477 11.782996460265755 0.8520471325899133 -2.3054475266904557 -1.7045190114220712
Ni 4.5626414103545825 5.010700750447274 0.37534747797821594 1.1357519113775796 -1.7686148134607151 -0.5026756077320569
Ni 1.7458660124040453 6.086782005115728 6.553422208577119 -2.410409470815842 3.5349007216779382 -0.14957264085622626
Ni 1.884462869392008 6.19077351638943 0.9860279306784333 -1.3067966060646528 0.6164530932665448 -0.3063109462229563
Ni 4.877072582008624 7.713214782724788 8.280240042295373 -0.4183341680704989 -0.8157128169352532 0.13985284246530108
P 9.132809737377732 5.117739970310704 7.608996078628942 0.762256496888326 -1.7529729931584004 0.6619796169434341
P 8.717564059767765 1.3585114861303638 11.843336472602054 1.368087077444018 -1.247938912496496 -0.08441523032228687
P 0.11952928379296396 3.434832228985951 1.748634809480409 -1.1057180840196505 -1.142407469020884 -1.5359816565378837
P 6.1511440692424095 3.567112017260663 12.572148880884251 -1.3869515184486887 1.623842679316926 -0.3164927718519646
P 5.964134823080668 1.8622884805316027 8.510286627936285 0.6561185301769668 0.8975240339757898 0.8852009936340627
P 8.028948157139894 7.359034102676253 4.799393878440951 -0.06561223868317087 -1.7421342506716835 -0.503943418700887
P 9.131221234718845 5.814806337664637 10.737560377241032 -1.992574610979265 0.5108275474152298 0.2611495191949696
P 2.90723693018197 3.047634705882044 1.8413479518760083 0.44126223762158195 0.5017258422242779 -0.03557198356733874
Ni 4.927304360855663 3.2479338085911085 5.683612641905538 -0.6248760272229174 0.5384689632815823 2.0116349700448257
Ni 7.910983363756322 8.949152970664692 3.295824393112404 1.4679973180781105 1.43564512699965 -0.19425250026210414
Ni 0.9786838765252496 0.5124989822562023 13.439187803383353 0.6385208716998617 -2.5411426103680625 -1.0933829594930653
Ni 7.189184379422729 8.325656441570644 8.647363324821614 -0.4116786104271943 2.178134725673694 -0.9722888856925062
Ni 7.011937036228687 4.834543193961075 6.630414715938073 0.3789260985865216 -0.7998241707294548 -0.30541183144745465
Ni 6.690265247803902 5.858416276939452 8.759892114338781 0.08656878633017993 1.9083103044125456 -0.013162762634203136
Ni 5.034537525811166 2.7700992791248455 1.1492484259752724 1.0744344434150206 0.561248423069943 -0.328212374281738
Ni 2.937076767919566 9.360621336719513 6.361195839438599 0.3520891808993356 -0.03800219027538616 0.5749081799452228
Ni 7.47553045464841 3.9679780516154652 0.7825813761894325 -0.04812230942852357 -0.005452281363822868 -0.2615495828468657
Ni 3.701552907989907 6.590568234997541 10.086510715399742 -0.006830392658272106 -0.03760598327823201 0.6649883218627708
Ni 9.079770372435915 1.614999252657298 9.58006743775652 -0.7620382102299328 -0.545320438985777 -1.231397206087731
Ni 2.032526093969273 1.0130490997445611 1.978938141481304 -0.372984536291106 0.2938860901960422 0.8173948326233665
Ni 5.586810028711359 6.932474961361996 12.36798750019875 -0.17531915369271095 0.2384291947793184 -1.2681033032595128
Ni 4.18403288418536 1.3142273567735783 13.234512006429828 -1.5600119580142102 -1.8814394481636307 0.40667164413090606
Ni 4.3215307189849055 6.991748275691892 1.1335942864007675 -0.40415787657011687 2.3122624927297597 0.9413222621076628
Ni 3.1392506731853413 8.482197837315695 12.064637981686566 0.16934031040145675 -0.5703493569299468 0.6830482646882753
Ni 8.16781284306453 3.423564942684538 11.641986372203563 1.0496839759432182 0.3589378283900528 0.13086143759996816
Ni 0.6082792277507358 4.298128011208036 5.696062069720542 0.5433134358580772 -1.1389225957960774 -0.5700135708570828
Ni 0.9344643955324884 2.783370664711019 13.15063906604055 -1.07159003198769 -0.15325985989982638 2.889253780456256
Ni 8.554142230994392 6.999035069865511 7.460200480442084 0.5348298238670983 1.8543341073064064 -0.9285981296727749
Ni 7.701393367588878 9.181092829823463 5.792100908671173 0.7589284609563576 0.5646741609220404 0.686670691932211
Ni 2.8030884157384928 4.6713060747992 7.5955603014885344 2.1925071923452824 -2.251300094113774 1.6414583355161603
Ni 3.3618719324440103 5.282214643869619 2.5969377125371524 0.34778566842797526 -0.7169145784184169 1.054426632834526
Ni 6.318943515808298 7.380072527425941 3.004882742752639 -1.1932762308462932 -0.0873822833704108 0.17422694906979674
P 6.521523782219371 1.0330808571115828 1.7687746219701572 -0.0847589868149508 -0.3913329568913067 0.8062475577572953
P 6.668635752297418 3.78989951516968 4.748097248683622 0.9722474909316094 -0.42577956860495053 -0.7668785690413696
P 3.0499897534286506 1.3965062532156227 11.154574649381098 0.7112974893419557 -2.440989143374912 0.6925572326199749
P 6.510182612073358 6.625275170998125 0.8046652573402032 0.3597153299860256 -0.9029002106860385 1.1662212836110304
P -0.366209893497381 9.540805562736383 7.706859848541178 0.30903811534613224 0.36308373223762636 0.00036741064174775436
P 2.8685495020535914 8.545202285797862 8.30397522737294 -0.982584096970927 -1.127413309604897 0.8391797897089418
P 2.9973844560738536 5.981174284741412 12.69880426148883 0.017085751837693154 0.28011860409830464 -1.5828580093744482
P 1.0032687258157111 0.08870679092219518 3.930679639765556 -0.4218560651808283 -1.0639142606099872 -0.5824561674958098
