# total energy = -381162.0449834486 ev
CRYSTAL
PRIMVEC
9.39561741096818 0.00000000000000 0.00000000000000

0.00000000000000 9.39561741096818 0.00000000000000

0.00000000000000 0.00000000000000 13.75143580451950

PRIMCOORD
 96 1
Ni 7.0681445554755875 5.411518667174673 6.163847373189324 -1.5053549327909623 -0.8044315875944791 -0.39416991211946956
Ni 1.1182945859677047 7.120731826823658 11.453680578972136 0.10377075203076322 -0.19699278201140266 0.02590103613647797
Ni 7.2400561695287635 0.19000005693316516 13.058790296324066 -0.10104769667264533 1.148105804957242 -0.32552942813293617
Ni 1.096628291930069 3.6183180823728596 13.591479530327007 -0.7278121991675272 0.07296739349666143 1.1279768954178508
Ni 0.4219524857255878 2.969484922200693 2.757245438560206 -1.23099148600888 -1.0245033629125324 0.7191031014293034
Ni 5.993821459575591 5.021074384855509 13.604364680215651 1.239633477954594 1.5155113044986739 0.13529761899445086
Ni 8.070384473640658 2.0208094196074198 9.553094662668004 0.17346101743804965 -0.2251828712923735 0.06006096984763849
Ni 6.391913774568926 1.9326221534160712 5.6520192288011994 0.18197239734317047 0.3247863793193245 0.38982166245310285
Ni 5.942652926475434 1.4386475614695393 11.173344478117178 0.6380755566323268 -0.357250670495617 0.3063492556600595
Ni 4.481033080130778 2.263573385498328 4.561378763926718 -1.791888182166359 0.3528191170868246 -1.70537313189225
Ni 5.762463773373187 8.362710322033095 6.012664370543709 -0.0855647705456978 -0.034833819849733556 -0.8357134284268962
Ni 9.191328623753467 9.2893437058873 8.312192905228171 1.0403909806770664 2.1013626137189614 -0.43720169439896317
Ni 3.6897247756452063 0.19899448160022015 4.404530203906994 0.2669026196286629 -2.367320610046168 1.3756152675002633
Ni 8.24963406498932 5.185056097708439 8.109276692868493 -0.20787523325186136 0.9076523806590434 0.5093167671976583
Ni 1.763557411476254 1.641715043271544 10.178331668960674 -0.9792750872023522 -0.029384880920020357 -1.7771524186180816
Ni 2.4879125454014632 7.272668357995647 0.1112582050505917 -0.6662674456855106 -0.578055724435269 0.07769025289362749
Ni 8.898927610420742 7.352906931751678 9.442822057896919 0.8106210042346427 -1.077312279183448 0.7904460719486645
Ni 5.27590232366243 6.033508548046959 7.567484045035082 0.8667859814619845 0.20323387782510807 0.18407967349416038
Ni 7.8256850105373665 7.550158526299002 11.82069313071868 1.35646209161058 -1.1111652231771507 0.8638191855241768
Ni 5.968575435256803 4.032542672675223 4.606621481047025 -1.4544162369595661 1.2211724430359292 0.05388029495822333
Ni 5.135794874968056 5.6427354191140395 11.569564246535622 1.4496658667587745 1.4756499495273618 0.5473775786251218
Ni 4.568806939150549 3.729656150172506 2.425203375282039 -1.0557854608552655 -0.5853034071366178 0.1608602979549036
Ni 7.9836159456972196 4.247166764046305 3.845644109090637 1.6792370969268307 0.6137755464343816 -0.6971852183102896
Ni 1.7642620827914417 3.5527178807376587 11.494275284097466 0.21441149170848234 0.21308480247725883 -1.6142141550882263
P 5.354130235265792 8.47091964919331 3.7334594961510117 0.8958579591272765 -0.01828260035927174 -0.3810495726874276
Ni 1.7356618230123595 8.733996940196693 9.596934614090209 0.2536465259497051 -0.3252666613898527 -0.12980034332530546
P 5.31528875237265 8.07976129994142 8.265864054720721 0.8067604928379719 0.6801961399514609 1.2813411421060255
Ni 4.937162124642965 0.8846687976921498 7.4608691541707 0.6856407080057998 0.6873481776152098 -0.4163497906506185
P 2.0052596725856127 7.551971880483419 5.525726156569764 -0.1536383262851677 -0.18061794019780505 0.031734097878487286
P 3.0582735079143353 4.149997287490698 5.032213829005994 0.6124051484494162 0.10427006026468495 -0.9937442273528047
P 8.749762786421824 2.0379376303752474 7.253016484357694 -0.2835075751751956 -0.12220967546224115 -0.05690622626874071
Ni 7.4910319051459915 0.05225372692554708 3.8632458589822707 -1.6601659392279926 -0.378673102035451 0.9480698652441413
Ni 0.2046628576595895 8.661274860469328 13.362311962572207 0.33534178623766764 1.620915478367802 -0.9140176607554387
Ni 7.760921018862856 0.32838059112445217 6.337074373697517 0.5078358117767576 -1.6413660329126702 0.8476585166039142
Ni 3.1444125294828718 5.314781389025715 10.895757534953203 -2.2842017299378017 -0.49676129913015094 -0.2871166326826926
Ni 8.770151276474586 2.030693609255118 5.056224329618821 0.6073778704381539 -0.49787227280614255 -1.4106843432892544
Ni 7.421119115061842 7.343069720191659 7.441850545154662 -0.3959915387092406 0.6392610922999958 0.3477686991471108
Ni 6.67721170104456 6.575410185043785 9.850305292617321 -0.6180875435461742 0.32867620129203395 -0.3586802038532919
Ni 6.894269257357423 3.2752558992869116 7.959716313371316 -0.24932398731495126 -0.5576393655624461 -0.9710912658399793
Ni 4.504606684528188 6.110881458454561 1.1797485015843416 -1.1129066313482896 0.722727328445452 -0.0011546824297334953
Ni 4.678669894997069 1.5112944762566165 13.601366538659967 1.5325052679535092 -0.2716972128038288 -0.1734373632889658
Ni 8.469970691822189 4.415987219930191 1.14407710004779 -0.626116841608554 -0.47361314314846176 -0.7515259978446992
Ni 6.79072955211252 7.755039362285423 0.597523692808971 -0.38913929167409755 -1.58666864136979 -0.9463932488726668
Ni 6.635128730101554 6.814725959299042 4.0945997869376605 -0.9489571529451012 -0.9077307993054625 -0.2381134633111125
Ni 0.14076514192188194 8.87612444666127 4.89849540023599 0.6304203540799143 -0.3680585597443984 -0.5682683060312019
Ni 8.1465359537686 1.8596088095450964 0.8759308733838231 -2.5880665286131106 1.4265447073602786 -0.09332076034203284
Ni 5.919079322078023 0.15101670021523164 1.687122183698728 0.6726165278319899 0.10095050897314874 0.2108991076798497
Ni 4.021972602947408 3.8427981765390324 13.618321870065135 0.4307582527664646 -1.191870094527386 0.12014070874835436
Ni 7.659269832742655 4.279825930600868 10.130958025783238 -0.5663821447520826 -0.7639899346396649 0.2937084269675974
Ni 8.265709966593134 0.13465517183832834 10.798686712381723 1.0109158540360847 -0.24216475056235068 0.3686686825245715
Ni 4.404768852592404 6.247136703959242 5.38664376974855 -0.6119174101797203 -0.32773774863816457 -0.21292693674315588
Ni 6.383532883726962 5.036464406379206 2.0853093944291743 0.7411091733867494 0.7040282093740521 1.3885186058254926
Ni 0.3136388672107268 7.465457034213449 7.04147791378538 1.2400579670865224 -0.3849211398276919 -0.45152145345574496
Ni 3.366515532412478 2.070277345933592 11.693313925100105 1.909068265624493 -0.7353607009387465 0.9761010603497446
Ni 9.033040655127254 4.122355380700271 5.972674743187687 -0.4954829466383595 -0.018503458120826197 0.5234696616592726
Ni 8.672859656891013 9.250107607057652 1.984978292572759 0.47986220938196716 -1.163697231637596 -0.31984908991870725
P 6.040630426139122 2.654618987339786 1.1861985930226924 -0.18238917316561493 0.4235522219363287 -1.5027920571597926
Ni 2.9101422018443586 0.2081035328012123 0.5973310826494863 -1.408543899907484 0.8329374083436557 -2.150079105088058
P 4.541663000089521 8.296405449082707 13.748135480187248 1.375851037660153 -0.6369784669134063 -0.15571680608075117
Ni 9.351693023855102 4.7796821791248325 11.793478724526137 -0.007857034150573566 0.9469100406080851 0.20043163248962256
P 1.669986456436872 9.20891721978055 2.322727253942192 -0.9943831464883841 0.4036053465007565 1.2652547780671242
P 2.8791366639761025 1.369195156644646 8.142664959343836 -0.5287298816169475 -0.3459725264786364 -0.6182058142915934
P 7.401172219033264 5.423563848855614 11.93027797628614 -1.766564615799906 0.5850727791830505 0.527699383469904
Ni 6.828142901140215 3.180463513967871 12.795615290898311 0.252626569325623 -1.5272877283083117 -0.6045923372732168
Ni 3.9941145969536573 1.2440925091550012 2.3118912882381135 -0.0932305146210717 1.684424554665041 0.9557217253624445
Ni 1.776720671643959 3.2545197713853233 6.499795194677138 0.10282510028804227 -1.5339625692253258 -1.12833890674296
Ni 0.5141206750668696 3.151111604785922 8.637414689737076 -0.6237889648063256 -0.00819333444406976 1.0371225943384397
Ni 6.496580953918129 2.1283610535401247 3.151636819806175 0.7569875351799028 0.2931803223782693 0.5717729767503508
Ni 2.8381717715198613 3.5619631683929205 8.562194315306932 1.110969819336893 0.29049197691282874 1.2319397088547621
Ni 2.2847511074241003 2.7828315842337923 1.6265749451742995 2.2231280025549323 0.3174296818439372 0.024439106878970815
Ni 8.144318588030144 6.867651472878402 2.2354748516956597 0.9116337339042946 -0.8307267738455822 0.8335737563760741
Ni 4.3857521226998735 3.32412250609079 6.494403989335076 0.6221979661701219 0.5468502453667421 1.5512496384405476
Ni 4.158584881918451 0.7320886667189553 9.79463907740276 -0.15527689032985517 -1.1026250469166234 0.21957838062140247
Ni 3.2285878669864188 8.830790592050866 11.984843964687258 -0.030121244865412643 -0.04855271209772283 -0.8045166911091177
Ni 8.904113991300523 2.216322824910613 12.00508588310646 0.784144812320985 -0.5251341938458891 0.054922105959176376
Ni 1.2376659067604903 5.5057755022941715 4.635581592977729 0.3629117254361363 -1.246369254016531 1.2165945938572595
Ni 1.757901249719681 0.21821039858451016 6.476816332869746 -0.5944351942345569 1.2293513793022959 0.6675789654080825
Ni 0.7707347207673524 1.2280260031687233 0.8822259371328327 1.7918483300673593 0.15609707223830535 -0.5877814363634651
Ni 3.669871835791987 7.250438326905861 9.755832358294498 1.463857327767808 1.5012771631771629 1.185721558427487
Ni 7.057132891723589 9.345548289986665 8.85329779385796 -2.6194962078773014 -0.2678762963958419 0.34376472019404025
Ni 3.5307885094090192 8.394523883009434 7.16110197668988 -0.12645688077436928 0.10616316352233976 -0.8331266415363263
Ni 8.649746437752858 6.472678502906964 5.089653936811324 0.875558585448292 1.1852448759013845 -0.3809541847601439
Ni 3.2314347390997766 5.606609269688754 3.394404543944098 1.1324652702065077 -0.5759898430451758 -0.9058284400764269
Ni 5.061757408785675 3.613169283963222 10.543473553255833 -0.04377046021773107 -0.6145707886421674 -0.6137529207265624
Ni 3.0263096170574237 6.346570524340986 7.862975276975344 -1.474239185222764 -1.7496066477893286 -0.6949023358133838
Ni 3.68087410392645 8.253138630330186 2.25699551366149 0.6926305090600717 -1.6338956926775539 1.019971793590766
Ni 5.643778332660518 8.1348947836417 11.642571013474319 -1.2011278656802282 0.6563357883940955 0.2782702380356562
Ni 1.4520363164581043 7.033888133939933 2.953024739839664 -0.7245636103232426 1.5666248353450374 -1.0295635510442591
P 1.004814317369888 5.417879500246434 9.82779339300146 0.12124011246012024 0.2310136190415376 0.2964034573012573
Ni 1.018672853235245 5.120743095675648 7.598561929158364 1.1247771575336307 1.7268595839008003 0.38384076227931957
P 1.4274010072791448 0.7038886602468998 12.058702914136457 -0.7300750270597749 -0.35585250459650974 0.9387784126398864
Ni 1.9195998275114037 1.466815622841973 4.3739747161187035 -1.5013589242576917 1.2207307275128203 -1.0134684452546094
P 0.5734342690088433 5.027660712748129 2.439683901028268 0.17818310550406732 1.3539398394093587 0.609031346881177
P 5.002715348190487 4.116398559182551 8.391621576752614 -0.5941102067949704 -0.11937991932292988 1.5757951889903958
P 2.5735348080055287 5.207577392941836 13.2676464180899 -0.9135440635531299 1.1742953188684164 -0.9440869693369933
Ni 9.110122301391245 6.561561044795965 0.02832027037651425 -0.15318041281214265 -1.428012550155057 -0.22493501694762552
