# total energy = -381170.2042778524 ev
CRYSTAL
PRIMVEC
9.21907483115084 0.00000000000000 0.00000000000000
0.00000000000000 9.21907483115084 0.00000000000000
0.00000000000000 0.00000000000000 13.49304789375069
PRIMCOORD
 96 1
Ni 1.910422821665181 2.2347683191284426 7.768136432047772 -0.8873398943539363 -1.7050286040686378 1.7632198676973891
Ni 3.887969728573669 5.769979361017607 7.5624081633694304 -0.6101016971272202 0.48970027851831144 1.2504195128265045
Ni 7.766489905248643 6.908120267996374 4.239340022559692 -0.025911834769755376 -0.18367215364309658 0.3896853939855547
Ni 8.725937481054356 1.9719048329943407 3.446353909186364 -0.013577738684434681 -0.17070325218725438 0.04427028267228505
Ni 6.284910796433742 2.0535397423240314 12.93427375431131 -0.8907494342561175 0.47963158142839973 -2.3773111455999767
Ni 0.9151646708396776 5.393831880999457 11.983635004690184 -0.4665222977399514 -0.6962886746379492 -0.05263330992499968
Ni 1.5500583980866058 2.9348740954588832 13.094585171795773 -0.1824691344739309 -1.1415338081666793 -1.1576237717500064
Ni 4.694104086744964 6.537098593691076 11.573608345869586 -0.4450659276383883 0.8976903843503249 1.0829481373129866
Ni 1.4804175053619888 0.5736947415209783 4.423628410364276 -2.1569773748697885 -0.023872178631907274 -3.5853946166624318
Ni 3.5621860554068006 6.475146409535737 3.2377916968459166 2.700368972263969 -1.705045573349502 -0.3841025005811385
Ni 2.9392070607197476 7.84334933371636 5.027441869985773 0.051489169018227456 0.9888107946069293 1.6432046287833055
Ni 1.8200390101385535 0.3361966184054771 13.045713011283231 -1.1320137844913858 -0.5430468124602519 -1.0163899897767785
Ni 7.266493371369955 1.4529723190181727 1.261289311137548 0.4893827472778926 -0.20314620320730817 2.2298318969376694
Ni 6.811854686604997 3.3924075697810996 7.31957403963055 -1.6058583269243634 -0.8704860560213912 0.9026916942196582
Ni -0.1605713954001156 2.860383969272107 11.195438200791365 0.6242350512048088 -1.3989845383538229 0.5466682112629231
Ni 8.647888791908656 6.825130154638284 9.332035427466582 0.019118723107321912 1.1755114506637048 0.39530094040011915
Ni 8.149219804833297 3.795539282391909 13.139557663573536 0.7884308412908486 -0.2065917385537474 1.3551294888420857
Ni 3.4393326616487587 1.1135351957420705 9.379341267132695 -0.3445946722945033 0.15565535671519645 -0.1005969822884719
Ni 8.675435388077727 1.0496377867568545 9.019022938929236 0.3127878121965516 -0.034725833516959556 0.4026170144455582
Ni 8.594399718624539 6.554605617159973 6.522714992840011 -2.089362761044608 0.09816600424947611 -1.1157734113731235
Ni 2.272363707072709 2.9875242329158977 10.664675769745536 0.9051226722586541 -0.4320360910376237 0.24342253422885174
Ni 6.214006890430959 0.9483293713278346 6.517385445569148 -0.0035041564985165458 1.4815935687053063 0.029030325794079038
Ni 4.469997592008041 5.59148884949506 5.429507857523911 3.2477480935509875 0.030034341578561177 -1.364080527387786
Ni 9.185351646681287 4.962821685518746 4.788007741115417 -0.44579123584018704 -0.298308387633454 0.059227161092433485
P 8.947333567734484 2.1748719887032593 7.35369752392111 0.007750847590012457 0.7621418256873326 -1.929859491338231
Ni 4.688222316880216 7.479463223478954 0.36298171897763787 -0.35111421858057595 -1.282310190887514 -1.4708419866157572
P 3.3836586675841627 3.7720214220079407 4.314860841334053 0.1451094628785501 0.4508514239719138 0.18870560230194597
Ni 7.683001961839307 6.234113693056374 13.314845468433052 -0.15352391219449044 -0.01949821793392771 0.2808580533674905
P 5.160607721064673 0.306049321172386 0.48518701176155454 -0.30566457088820903 1.7918380456547138 0.20011692946268117
P 0.7354627728590943 7.536206630246233 4.516325287814203 -0.6410737200287023 -0.08479163982509914 1.1549868483477914
P 8.109494810558692 4.87898341725853 11.021890957296213 0.07433727726099455 0.662763289186994 -0.4685953782188962
Ni 4.3615075171360145 8.48430552469849 7.05100855559465 0.5338528046658096 0.9103240139539355 -0.0448166420940583
Ni 6.802193095980773 8.489929160462589 13.200073515840275 1.170416038418668 0.21025787455142497 -0.7608184788902187
Ni 0.4373787325066804 0.27263201802859566 1.9723196913703807 -2.1653445158875613 0.6497324241449649 -0.7295942307686145
Ni 5.051297148515588 2.727629288939239 10.780149293947574 -0.3871261178988107 0.13876912248281906 0.2349443215545115
Ni 6.269800732470855 7.911810184838018 5.811159125330861 -0.4726854891278699 -2.1328781678287396 0.3755864926903273
Ni 6.25608274883646 5.940458496345065 2.3555216075962186 0.8545670707982896 1.8254976426906884 1.6703233393769683
Ni 8.30068920746309 7.311021503731605 2.107748825367455 0.35386015675682925 0.007253596238619766 -0.46804541925269716
Ni 7.513813497015084 1.1689787129310891 10.899360231163982 -0.3955613931503575 -1.3982157785085982 1.5982319207273572
Ni 1.9343463213501668 6.408262020243032 9.791986143259859 1.5230749757785447 0.10026608131161442 1.6528256968128374
Ni 7.10001531460253 4.177679161175084 3.8832726098493913 0.6298174303885927 0.7312489927632181 -0.6693010903055119
Ni 5.60991778046627 3.0384504033435897 5.14643708084664 -3.7481727004653385 0.4311097225686124 1.9895209117546062
Ni 4.445557824121761 2.273912511676593 1.107137157676028 0.3338618592580315 0.039637411885963994 -0.201932128294549
Ni 2.3062714650077294 5.551063205518698 5.2770234347340725 -2.532858515982399 -0.34348061329471813 0.3267231913307212
Ni 6.572785633105558 8.870658520767229 2.613590252810798 -0.2425149348129178 -1.3225741806138835 -0.2309336577332216
Ni 6.295844619411158 4.636079228549473 12.14220493890278 -1.755886053040137 -0.34606997128844913 -0.43926423335494674
Ni 7.722256783287734 8.696178306879737 7.3871609224400165 1.3858114913069746 0.2252929145076765 1.4015571841770056
Ni 3.944113895464444 3.523115615458836 8.713378335150365 0.12296403712976244 -0.04864810002500654 0.40538017901299217
Ni 5.507051341358343 9.363353547227607 11.235715417659856 0.08411749657620998 -0.5930342001219723 -0.11875385570315676
Ni 3.023211272330379 3.6444386427630406 6.519530724327026 1.1798864398029485 0.6879387600113571 -1.4545414496835207
Ni 2.9261067551119 1.1440872103686763 5.817230808141084 2.071361696481497 0.8276141963585295 1.9654672132395115
Ni 3.7365648594690373 3.884374289314654 12.67500478552872 0.6928930186928389 -0.9171590345978978 0.7387962089828567
Ni 0.7346109303269583 4.165049028393415 7.256790294908126 -0.8028166776988754 -0.19962584875887554 -0.6796695780240295
Ni 1.399022291982899 6.0274865645632785 3.058604223251623 -1.8412081114474095 0.08846651757352507 -0.30462481676978503
Ni 5.568183027836624 5.127142478730762 9.711971947319231 -0.33098376637928806 -0.8010618997912978 -0.3308295001896109
Ni 6.88864036247253 6.798265770020925 11.029150056969415 0.8384917625029817 0.9509176191055817 -0.39151190567133215
P 2.694025760479982 7.7112584267851565 7.886714018810092 0.0702420241456984 -0.6568893469047203 0.7912546838928889
Ni 4.966721354253523 3.8862734187694152 2.7177427528844493 -0.6190349950611082 0.1287904140035524 0.9329219538591095
P 5.367483764583392 7.5927287792129565 3.950264862319867 -0.2890598724519925 -1.4218809833360222 -1.3279567850820357
Ni 2.037839657559665 8.291442475214906 2.878242239499385 -0.9394132180104079 -0.5686601421529819 -1.1293802035232807
P 6.725269133987894 5.020496218863357 5.880553868752361 0.4883064834945784 0.9883048015047883 0.4970016972757311
P 1.2795246415332713 0.7208597580224788 10.634222399221677 0.43275497148151926 0.39736759312116077 0.5810127501810639
P 4.470928718585376 2.023817444449506 7.162379591411401 -0.47608320195550907 -0.16648381478926813 0.598538417769653
Ni 8.520794623639981 4.831071884363396 2.0956460236771086 0.9205418350272018 1.717058024429346 0.07584831458888228
Ni 7.785324475520869 2.6167053782611087 5.4748177674475205 2.08785969413652 -1.0471470684539772 -0.18378553929250926
Ni 1.0304805488588198 8.548608572984723 8.911794033520371 0.4798485825352123 0.3798876911688425 0.34517008518199904
Ni 2.3578614088370857 7.195156168841086 12.651783779360496 0.7934879440987818 0.17128123617791147 -0.8901956186351765
Ni 0.20683455768111556 2.8670862368139125 1.4749653443933182 0.7546388324420681 -1.1556617629276291 -0.4451286625555237
Ni 5.812258039073616 1.273937882069263 8.837285469183549 -0.20226997124994198 -0.07351606691127983 0.5708466082813395
Ni 0.6164887658707797 4.400946720084904 9.781286484788032 0.20936364487192974 1.0848798071180608 -1.8868446783396022
Ni 4.066441801946168 8.596492448654786 2.2071387512841647 1.709471727441656 1.9391802545185248 0.9220492728106636
Ni 2.367799571712004 1.393214274718336 1.5711571731845089 -0.314354128242407 0.4869011185066195 -0.12128819208923629
Ni 3.4799426871255843 8.473205758370657 10.810563022448832 -2.2665724468918125 -0.17712175411908848 0.5683901763210468
Ni 5.001864468241641 5.225095150851367 0.7902867682065595 -1.192891336703049 -1.3779012353209623 -2.0844049028187004
Ni 4.872419435842071 0.27918678037003103 4.769293018818493 -0.097871870047825 -0.06440536285926327 -0.8310610172565494
Ni 7.654810030418618 0.18959765311039584 4.873054630111164 1.5264770594815582 0.2862820525965392 -1.0425697334959398
Ni 0.764996079695646 6.339718197446166 0.7456065211070287 -0.974601850096399 -0.7698582204949838 -0.6808237462331307
Ni 8.810421084566189 1.2622941903150677 13.138990690459615 0.3185673949928062 -0.47928396828099395 -1.1509034223070371
Ni 4.832482402841933 7.360905918681685 9.190884013602659 -1.4024221032804622 0.9785783182456437 1.1707939905833773
Ni 6.240557826497532 1.740589021589341 3.4586862658447863 0.5015512643196265 0.6835326605238615 -0.9880790586472272
Ni 3.6258898638165316 1.754030432973044 3.476591553354682 -0.1591785393771065 0.595417098531852 0.2924028207822964
Ni 3.7795810635268956 1.268747542831249 12.373948515388852 0.22829596300005844 0.5419366101152087 0.3504729854521512
Ni 7.815498508071527 4.992387259117877 8.444043980257538 0.6669328471836514 -0.6202189880668803 0.07894700811886403
Ni 9.211764296622514 7.8397538944573455 11.620779587040364 0.6275700291153128 0.5695242899254901 0.22894413810701858
Ni 2.3203950879431425 4.439685273332036 1.0458957642049718 0.7215870441934218 0.7802909857925336 1.076139084810953
Ni 6.465641543186905 6.749810311699427 7.877281983153943 0.24099618417554622 -0.7844967963437651 -0.8442708310786039
Ni 0.9738477709918193 2.672296400650498 5.263408704739935 0.23615685380537393 0.1604841455624075 1.4171087587583595
Ni 1.108962534530605 6.3086499146182655 7.687393929180319 1.6875070502451066 0.21449505256122417 0.3621031134919118
P 2.7092648914931923 6.796126944615562 1.237219228159695 1.6812101614928012 -0.02869042595615704 0.38454575876614416
Ni 1.438184922681095 3.7978163939226186 3.2994147600229295 0.4599996661300852 -1.2579312478225175 -0.4192942179909231
P 6.9397140381005915 3.567791253020855 1.668469119591008 -1.1180521801049712 -0.4801095495060828 -0.7185932516724206
Ni 0.8073254626642823 0.14367744042025582 6.449083162537887 -1.0810545198346995 -0.3667323847338071 1.7867593455802258
P 6.693758335558884 8.578828700910497 9.454471197126075 0.9178966840948709 -0.7112450388374654 0.18428253353358584
P 3.5714604448800555 4.952883522643826 10.96438328920952 -1.331530618476223 -0.652813891283766 -2.5849354391832966
P 8.930702356392782 8.21863943975736 0.30161863371627645 0.3323415659587631 0.9794193260897002 -0.9474378880870975
Ni 7.1322544199583655 3.0342280669830024 9.660037210084012 0.6563015927220504 1.5915385678675815 0.38756911897350027
