# total energy = -340886.22324170446 ev
CRYSTAL
PRIMVEC
9.05818076621270 0.00000000000000 0.00000000000000
0.00000000000000 9.05818076621270 0.00000000000000
0.00000000000000 0.00000000000000 13.25756316629923
PRIMCOORD
 96 1
Ni 6.697102574330417 2.1867444874323287 11.14440032388614 0.26829949997618957 1.5043149215622222 1.565324371366059
Ni 4.998584974356055 0.8164174596438057 5.74748547169916 -1.3919060342404868 -1.9464510771483252 1.4436790530477202
Ni 3.0143451771036975 1.8651700105098397 4.678607454710302 -0.19127464858070284 -1.5765480079960201 -0.7111650775291495
Ni 3.5418483365521967 4.544172275860418 4.181342314440492 -1.2991357470852851 -2.0137013656555514 2.4454988583198074
Ni 3.696254086633061 2.6026870920294893 2.5224633136890473 -0.3694778086894282 0.7134163354571713 -1.2228665429089003
Ni 5.1309521705271015 4.500240098933737 2.5758250568385472 1.0973208610948908 1.0932032393820916 -0.9488378537584174
Ni 5.266861115394712 3.5174093647278295 0.3812452430058928 -0.09902500981566172 -1.3239522919083329 -0.9633018517025476
Ni 5.6832475708515435 8.266251235981718 12.37022128740064 0.9838328817763637 -0.7623557414703516 -0.1272814335581937
Ni 2.0762890306397646 6.791497876547517 0.3223670677433317 -0.7721408458815734 -0.013371021990267294 -0.8015740635410259
Ni 0.7159866915532529 0.6471408941277806 0.31635334150382177 0.23049399909264176 -1.878744674940287 0.569008012410704
Ni 8.202282363104148 8.94991743258815 6.726675723037681 0.41276207329936015 0.5858189133204557 0.4478298635367706
Ni 8.701179787555853 2.53460580506435 1.588309431517901 0.47457036485540854 0.8921365444116314 -1.2395386042479424
Ni 7.03284404603916 1.0374243899455171 4.753552125274895 -0.27398755149990234 -0.6827423034120822 -0.9233906173299065
Ni 0.9066604917777736 7.9406458685989465 2.293399131557175 1.0115064364322321 -1.9473669040943755 0.4659918791577781
Ni 7.881604646081812 3.9255347592862835 3.4638564939632466 -0.2326835505447928 0.014810582650271268 1.7092858366830948
Ni 7.97532058473819 4.439332891169821 12.631832418999576 -0.13748819888786645 -0.8875869773677358 -0.28266605311050674
Ni 8.26672226138382 7.47898662545561 8.854063763260699 0.725220784291267 -0.7262996191777427 -0.6660370748422594
Ni 6.938385336556393 1.1269735654294677 0.40804568256732965 0.1442237178394871 -0.47176760529929074 0.06985970110561517
Ni 2.1471692954750785 6.612716561907953 9.12918426571911 -0.6652189498163382 1.1152877299859567 -1.2523828072004626
Ni 0.7315468345480263 5.018920590273662 0.9254281365972352 -1.221463749024103 -0.04870029341918064 0.9266381777329268
Ni 6.544979485813579 2.142513390538931 7.149989875177713 0.6679175796944239 -0.4015518064058375 0.022402021844283998
Ni 3.16299898237045 4.731984596767178 0.008117941641585733 0.7982807375017349 -0.9696722740052653 0.9065228950402904
Ni 5.8186311412321965 5.520490178064206 4.873281347580353 0.8830206981532921 0.580908877613348 -0.2145639581259466
Ni 5.000831403196842 2.869215004171889 9.328485077346716 1.61663664848679 0.1470475604415274 -0.40596921874724273
P 0.637329978492876 6.01214105786821 12.084057050899135 -0.2720875062637121 -1.4690085329514442 1.9752026953597208
P 4.4135261340432 6.400673607335446 12.408840841282474 -0.5156535080489636 -0.6475261605222654 -0.32032525822417734
P 2.684708919260642 8.586874603919197 1.2251859850397435 -1.353877104492223 2.062387775117661 0.3746547249046773
P 6.6921296330659334 7.856812405205869 5.728036651682816 -1.4324065654576943 -0.009909288693911967 -1.0714576201748838
P 5.050941259435686 1.21479262837878 12.759940458553935 -1.6718647157221593 1.9976985624693917 -1.2664845367091673
P 4.5827420097478 6.283958947603431 7.894494437373908 -0.12575214139786084 2.121102001129418 -0.4562324857781691
P 4.974653260657027 1.250056126270649 3.6346276593128595 0.869803942352702 -0.10161051115465079 0.09440088078008904
P 0.6010546818045716 5.988127820541895 3.309485164969459 -1.5188624803590938 -0.47661439186863075 -0.3787859734642315
Ni 0.982722036036193 0.2004358016830534 4.629753062331671 -1.0552604415897309 -0.12226546840084103 -0.4256178462161057
Ni 2.2415555395113684 6.548584641775809 4.600718875382582 -0.13291523480520334 1.1066557653425715 1.627987554723235
Ni 6.376080646437314 5.830479241731185 9.043872507217902 0.4653627302142115 -0.06719166735514881 0.8339607074018476
Ni 0.15637137531655268 2.7498281811010346 9.788536493396347 -0.3110016668304063 -0.23387577108068108 0.4367029003856737
Ni 3.3866182920176566 4.985740473968007 6.57816413120964 -1.985464996517677 1.3254535590442076 -0.9783931988180311
Ni 0.8654303701866044 0.15297184005870046 9.0018588529867 -0.12998057765691162 -0.09281013925420145 -1.303996417611696
Ni 1.3265071723038824 1.0887118096896127 11.229699400934216 0.3628988699203299 0.4647474652277157 0.41239594820919295
Ni 4.178058723897004 7.04902195696515 1.3838246230129452 1.301778326914455 -0.29731157093782346 -0.16990723864852028
Ni 6.070511975005433 8.256051724390082 7.870444967324355 -0.931419401171654 -0.4435525763176555 0.20705068046803693
Ni 5.093197672912586 3.1073274031144957 4.994680898427107 1.2971107462354565 -0.29408355091882904 0.13023331709766606
Ni 1.1095999746366072 7.680368101215188 6.528328737849327 0.3744431231145035 1.249100794015081 -0.21992573665849222
Ni 5.4752264485585105 4.412656548685476 7.1562998039296986 1.8737744754192052 -0.19798985581734935 0.5696669861509415
Ni 0.5917048275728769 7.6875150058739825 10.836546273435989 1.2636612083277592 0.328658203569905 -0.07974867808455298
Ni 4.914325776464925 0.7629787219574243 10.454914246109528 -0.048396389025516656 -1.6501098405435708 -0.1593996542489771
Ni 8.43905415128693 7.262559511371245 4.577478300879327 0.18688423282249103 0.7785624331372011 -0.08403907792979075
Ni 7.6809659411486235 6.122986016435589 6.646427487609053 -1.1050781364428064 1.025304261547273 1.191403696413929
Ni 2.59688985631133 5.634668547169526 2.4946229949706655 -1.357571779734991 -0.3924398168022402 -2.972757040487235
Ni 2.5077030080597638 5.573824746671277 11.127524027219728 0.6729551421183313 -0.505497136341252 0.7126429476262565
Ni 1.1681611135708314 3.89518985357404 3.59541117131567 1.3091455659128033 -1.3385854684404754 -0.16824219224127154
Ni 1.5861236924885385 1.2072652801259818 2.433823579558383 0.4592748721489187 0.748806284920691 0.6711659114283925
Ni 1.4699796981475295 3.750793393287812 7.908507443086398 -0.4326680681946678 0.6385260139061841 -0.41909907126098145
Ni 3.676461961564031 2.8209077259141604 7.320415018020399 0.6964591387775424 -0.8175521841368373 -0.9049740624959318
Ni 4.4248488600552305 7.283384269052572 5.8853899337991304 0.406873475729067 0.04997273237370103 -0.5849925607644183
Ni 8.70484835078375 7.459285082194676 0.1835323304742126 -0.7466897527983205 0.13935430556232772 0.6790751389731401
P 0.8509110121668569 5.967991484602099 7.483616261667408 -1.3301463365341866 -2.6800698556953004 1.3865319144127668
P 8.780031251503637 1.6857274486711724 7.841477810913256 -0.07358342981410552 0.9418498524763586 1.1200496701509741
P 2.2927976683514157 3.440251780591445 9.93715316012178 -1.2900970339217845 1.2492332058278872 1.4899468257660082
P 4.330933641421041 6.345273773503781 3.456936043824693 0.9686410045272738 1.9329273316302773 1.1308681009227168
P 7.177838346258824 4.272870702431346 10.522713823651488 0.026667224878541167 -0.2168450408506394 -1.130092141988641
P 6.690544451424249 7.898996353236292 10.225200592413604 -1.8278064933295233 1.315819121278237 -1.3092692359748612
P 2.8268589507060837 8.789216246844596 5.653793990130968 0.3301813250826507 -0.38501807041687236 -0.2048467308381827
P 7.070181867336433 4.211284131106707 1.4121423078599942 0.35330119892956574 1.542180072039112 -0.46576587918990103
Ni 2.9229209581921545 1.615010231090432 0.05217149819111491 0.5949404160057497 0.3016953018278159 1.286882640749545
Ni 1.7415620751816996 1.2708174766863092 6.743605462970869 -0.4522506183122857 0.013990400741821068 1.2035645001461788
Ni 7.461323172876841 0.8431255057609844 9.364599138416612 -0.8108560030635842 -0.07833277157363283 -1.535594191291478
Ni 2.7953636560310184 1.5985696329209629 9.125260261792379 0.36723374985025786 -1.7534854140184446 0.2865679592680742
Ni 6.437005970562851 2.4352013288595273 2.3330658111406026 -1.3533582558742756 -1.9989445190613508 1.2982150350432287
Ni 4.417747246300484 7.349246301719354 10.038997910236715 0.21424539844426327 -0.3939811931474312 0.49817000655221955
Ni 7.626009958176629 6.551211514210601 11.470974010797462 -1.3369898418185813 -1.3139928667027758 0.27961055411363456
Ni 8.058664906367548 4.112450320292891 7.862013612626756 -0.09251986170729228 -0.6539711448166607 0.3257582563142906
Ni 3.2125925223031455 8.362766152508271 12.299598274900319 1.0177832705798793 0.4504732146968887 -0.163574354451957
Ni 0.1511656388052613 5.248708521052223 10.124800622137803 -0.09274020524821447 -0.7372417200115432 -1.051175729997396
Ni 8.751108480178505 2.3603354644679784 5.792043568919786 0.8204133077347161 1.1954881508959476 -0.3829745576242824
Ni 3.7387188382685816 2.6889753224219755 11.31905563716692 -0.42156784451644813 0.00018357676571581288 0.9709151452734309
Ni 1.355076674577439 3.3562915026670335 12.34495258621411 -0.5625116060530828 -0.00840287935171456 -0.37716952090673106
Ni 3.272729784698244 8.443130332651263 7.830062691456966 0.6322088134389048 0.039435066067170794 0.31819149971062616
Ni 6.15724405625759 7.985429514521732 3.3426163670987425 -1.8680362873838472 0.4229994347566522 1.2830714945335708
Ni 3.1873020814826734 8.560370366870236 3.4523353937914845 0.8931143349438684 -0.16134829333491568 0.33987541244196307
Ni 3.7556032872977227 4.852820728767573 9.146220892185852 0.4259708586801503 -0.6205874271498926 0.41662078492381804
Ni 5.162764501530504 4.545721224778863 11.38143208185816 0.5601659886390418 1.0737587575042344 -0.1758601137978455
Ni 8.105948610193789 9.104286949945775 2.49992565401662 -0.4518186729811896 0.790493123136516 0.0956128988103192
Ni 4.633114553230124 0.3713111361119773 1.6875553895585547 1.3913607032599782 0.7595966906679757 -1.2715154142648553
Ni 6.247228024420402 6.2339215568110635 0.5031683567034424 0.50928411418751 -1.7768132901111076 -1.325834082312078
Ni 8.033202360111693 0.07616390170156809 11.454269819566433 -0.15159198527910023 0.21190620878812538 1.6170742502448407
Ni 0.14909040958177627 5.018078179458367 5.453300216090733 1.2867563995843259 -0.8755953522234985 0.016918373021893446
Ni 7.343856684137627 6.13020538654086 2.6977282425383153 0.9409365966334698 -0.4751555479349172 -0.8197520200016334
P 8.71311846986294 1.7501401724084142 3.6290985457466647 0.637361818394754 0.7729492007154817 -0.15547126572884837
P 1.7727765662516666 3.244984576878364 1.5033147093450296 1.624606554066144 -0.42509102717835817 -0.859558867585926
P 4.847775322056612 1.037886357166808 8.030596321492764 -0.3515003982754011 0.7104873347358345 1.0252736654196535
P 8.60154885683079 1.9226532259277185 12.512037071974206 -0.2271801042280604 2.0917451452338556 -1.8437884705800762
P 6.692491960298319 8.145369813077277 1.2160037071530267 -0.002177981487925281 -0.3688877405139131 0.03932707973439679
P 2.030454635743063 3.2313973056639265 5.81739198209744 -0.7269591071386126 2.2270350509188224 -0.25393603216566585
P 7.081549884252512 3.8300615335528385 5.693420813718834 0.21719959597658078 1.0251229987744024 0.37507972825723795
P 2.536462732130323 8.59404868312042 10.328941219771993 0.5375603354243839 -0.020133537525081454 -2.2425789121906927
