# total energy = -340891.0988981443 ev
CRYSTAL
PRIMVEC
9.07019845982565 0.00000000000000 0.00000000000000
0.00000000000000 9.07019845982565 0.00000000000000
0.00000000000000 0.00000000000000 13.27515227566456
PRIMCOORD
 96 1
Ni 6.408784521654945 1.8714177600356907 11.422419239341249 0.27859471125461055 1.0669908426527819 0.5456405413293571
Ni 4.719886364505939 0.47968651385306527 6.179888994226212 -0.00015992261663198262 -0.7131923923718233 -1.2994571349804458
Ni 2.527374510061287 1.4701612519551825 4.974836943927531 1.160836622260349 -0.65407347472248 -1.6444099619453163
Ni 3.464643464208065 4.3556725467891555 4.962702832475868 -0.23522431468877555 -0.5548849427457605 0.2217897864504245
Ni 5.078177342651834 4.308054005063016 2.586358010412731 0.9408224396531087 2.329613068193065 0.45977572304473724
Ni 7.187043827230114 6.104842172465817 2.770843125297903 -0.4359143430461073 0.36019561205655387 -1.3695392365095123
Ni 5.246520225401766 4.49050104636231 11.728039575238821 1.237080115405121 -0.013087943532209717 -0.4607954225585032
Ni 5.410019622193268 7.858728301322973 12.411032772726754 1.704594858965329 0.7716189119398323 0.1506162516293922
Ni 2.022735880343725 6.456339571992116 0.48234226795162016 -0.7035589830471173 -0.19596562629846898 -1.0922228777466931
Ni 2.487674251559323 1.5407001850988364 0.3334567748609101 0.7387843819083146 0.4772283713035459 0.2627934825562958
Ni 0.35945287056401243 8.872504379176414 4.40229245966881 0.5382948995975633 0.20629349058703825 1.222007794453031
Ni 8.766900058925474 2.295168360207785 1.3177873605505916 0.1274675814270708 0.5638336672986161 -0.3403155853031752
Ni 6.938157582474827 0.8344219742167414 4.709718672072606 -1.2683750688636606 -0.09684882809994934 0.1587998158814491
Ni 0.7799282220851902 7.3466067579055885 2.395886564567702 -0.7808085488589004 0.2805495209881362 0.29308056357561135
Ni 7.627791979248833 3.8894734179926176 3.768682864520329 1.9050946256887253 -0.17446940409790596 0.40954099525890114
Ni 7.7006619533874625 3.8274876819628205 12.719467591195304 0.21671725702352354 0.30804824062903724 -0.27222171784873117
Ni 7.827880556482858 8.747435413107512 6.580891536750848 0.4373775578551951 0.5510763676329478 1.2270427857737771
Ni 6.895890457818863 0.5596330568021195 0.5491479074239449 0.17947045685692317 0.9520666451083604 -1.6422597483715329
Ni 1.680090994479276 6.587358588227179 9.314284719775788 2.394297138635012 0.994660568519487 0.15309170975307826
Ni -0.022636494206842925 4.834533672585634 1.4072993347576246 1.0105538427109757 0.1453418906043303 0.009372442353835471
Ni 6.351587850393034 2.168702583581583 7.088731946512091 0.9550069586836067 -0.3584179513308408 -0.4141723233833254
Ni 3.8387528684054617 4.355962793138724 0.3822807459576023 -1.8729293538100904 0.539516173599174 0.3385911464129007
Ni 5.801598228555339 5.544240418472011 4.747353646393418 -0.002057139639344844 1.3267627647739344 0.052697073283399565
Ni 5.359879565305249 2.8822550935997473 9.379890371996613 -0.0887295414269246 -0.10749705184241487 0.49125425326899264
P 0.1951979262437894 5.649336807611206 12.59932737095002 -0.042933051918100255 0.3564101768721927 -0.760515088717187
P 4.086024617841272 6.232559636474534 12.602832095621062 -1.399350406333674 -0.7385498973000055 -0.31740037126789855
P 2.392119711162204 8.559401129579019 1.3637560331834007 -0.3868173284091403 0.010466189638646492 -1.3313578403437845
P 6.087581584864894 7.7257047712362 5.6695125569856115 0.7301066516286587 0.08673873624914094 0.47180308652291647
P 4.860955160594823 0.9440443923695256 12.607611183170683 -0.923447695820087 0.6818406175334193 1.05224736579502
P 3.936420765035379 5.956390234859776 8.114117878348287 0.28268507927390024 0.8284300073916054 0.0736029701981313
P 4.629656030583724 1.1966131376849674 3.7771263122332557 0.11198902617549746 -0.662719323322936 1.519014689666242
P 0.19528409312881764 5.5174742629227085 3.514530462560053 0.24088948339435287 0.0971067097470263 0.8947642118424654
Ni 1.4267784928930638 1.0980200808157994 2.5447276136861343 -0.05371908679001071 0.6305964746464623 -0.16086929681596812
Ni 1.715818506071516 6.2884501991633845 4.911368230455405 0.3254003587542396 1.1292213093479133 -1.0051049037812625
Ni 6.284958172770135 5.67054293152658 9.343343821486684 -1.0499112614626755 -0.34271211055980977 -0.4346593875930837
Ni 8.773258268020715 2.2401213259723676 10.185041908879178 -1.0236883232104046 0.32621719822858014 -0.4575334639777798
Ni 2.0661549201995393 5.281912139652317 7.010859757942612 1.0650609726199207 -0.5738928513068311 0.7644475910023738
Ni 0.5832273639625397 0.046005860446347184 8.979087373837306 -0.8467421754372321 -0.44486178204738225 1.2674425297470624
Ni 1.497698374370527 1.2286944295107491 11.22905258615927 0.3338921982753347 -0.35560953534776824 0.9482099903664315
Ni 4.008184174966276 6.908570595215653 1.5365460342206325 1.0030698756291045 0.7012617023725084 0.669897072018298
Ni 5.698533563863126 7.867580814984822 8.168506416178118 -0.4020094627685463 -0.0864991094345091 -1.499719588882056
Ni 5.518109176812391 2.9611204688966577 4.81489760001746 -0.682265877996296 -0.3118298191586565 0.37628968940493907
Ni 0.8761793537212746 7.476573631123464 7.1551475674521825 -0.8490764799973636 0.36100833776583635 -0.5765174334138715
Ni 5.2917170241486895 4.3142761611818985 7.525206221033409 0.5143363318994368 1.4951299126288446 -1.2040779494474876
Ni 8.412073896577557 6.977549454230375 9.696423063618132 -0.42115158291463595 1.1337860459004603 -0.44206159359442576
Ni 4.403835300420736 0.6794830306978361 10.40892705869848 0.4809994083102038 -1.139759746985392 0.25433712425882654
Ni 8.05999600435212 6.9621845381000735 4.764571604061748 0.23405960495671305 0.3258641857645356 0.640719164902761
Ni 7.47563940068579 6.302626919300139 7.064637871418507 -0.6627146953372457 -0.40461244760903226 -0.13174049777081182
Ni 2.3308414506094803 5.235118985982764 2.647264392830069 -0.20026708188730025 0.49499777947182494 -0.2934304907158624
Ni 2.2214820682109933 5.572485016364429 11.346577868198908 0.600309650737463 -1.0737042501172152 1.2188229689671461
Ni 1.331323724678609 3.2937155749072855 3.777152615808686 -1.1204723595106896 0.32101199987855683 0.07916760877010236
Ni 3.605077346407267 2.7627008081726543 2.67913797711194 -1.2576078030448277 -1.6090675778902803 0.30850872520522354
Ni 1.0411136559034573 3.139476850706715 8.042671018342388 -0.4125466148544443 -0.11303109428676662 0.25627547893211994
Ni 3.765710560496776 2.7017672151600443 6.928089662224158 -0.21294801978907846 -0.6231690718341397 0.4265817527912718
Ni 3.991222903913347 6.805796176873009 5.904642031791177 0.06473343562264336 0.7492359162589418 0.2066076793933474
Ni 1.0039349125633727 7.545461788153945 11.673558521385065 -1.5712029416340232 0.10906131100574122 -0.8548306088723213
P 0.214576405176722 5.710143417845881 8.157621271049445 -0.7723249368679215 -1.4051359026671995 -0.9693064060254146
P 8.39034170115359 1.5674572704497147 7.856341025097769 -0.07108560309291628 -0.342308704473804 0.5147880747248746
P 1.8884515926760124 3.3982133309504947 10.086925037427273 1.328213638287848 -0.7421491846154896 1.3012592211861913
P 3.962923884830384 6.082647396922224 3.74531894039988 -0.897310632413403 -0.033751899639464455 -0.5381437187316797
P 7.092033498738436 3.9068519181730523 10.380930077223036 -0.19503205874060606 0.07956792953231459 0.3185267715628579
P 6.328186738459046 7.6996188805687 10.172191251752018 0.3321556752002021 0.185500465101087 1.4549224871720234
P 2.2156771412196163 8.405951512641339 5.744928535821864 1.2105959530716635 -1.3209811250951509 -1.2794606372538608
P 7.037294851249436 4.0821607133126365 1.7145786099469515 -0.5327140630756761 0.2922218151197419 -1.9741318308930453
Ni 5.572104068030621 2.9167853390000165 0.47835138064504856 0.06314680786181383 -1.3358207612111446 -0.5647687775183757
Ni 1.5357659971561661 0.7749205655352852 6.996244040202135 -0.8199808481829879 1.7406226991231635 0.6380141072667722
Ni 6.7599735344348275 0.7182835255161366 9.358783113244062 0.5268352356973959 -0.06025277414347042 -1.0999475000844605
Ni 2.5961991757028 1.534731994535827 9.068030646603153 0.9037211639254371 0.29708068587394 -0.3689023958019324
Ni 6.520610998024767 2.1826162679640397 2.5889865539160137 -0.39017184670366994 -1.4729641751650826 0.200096617747707
Ni 4.012664852987745 6.98695524999609 10.50541129443406 0.9751014154406367 0.4983088461229289 -1.2249306245267806
Ni 8.062626361895088 7.207388282295206 0.6581181783100417 0.6746351009239155 0.062332025270002325 -0.9143956129201477
Ni 7.882537572186042 4.036292719882335 8.098652283015479 -1.0875912925119529 -0.6657807358570792 -0.1927373491691584
Ni 3.0386888058189325 8.532571482640748 12.287852221969736 0.5789029029269127 0.3562083452740317 0.9329263247344837
Ni 0.18930139024832976 4.671614768493271 10.176851519702284 -1.0679118118051545 0.6556693584546901 0.5691828474256714
Ni 8.886300150979357 2.1647026260765876 5.72129885488759 -0.14619395419198047 0.2477000785582831 0.10282510028804227
Ni 3.718509247898142 2.682093954778331 11.679784305583317 -0.5431440001597485 0.03723651575395522 -0.2875740319350854
Ni 1.2748617394890442 3.5845424171752707 12.37110122416498 -0.4060851754998168 -0.6099775128445302 0.7089133053804952
Ni 3.323892125064021 8.210379894222479 7.831543102606481 -1.0474437737587896 -0.12747632317781918 0.9411741665655726
Ni 5.20767256555166 7.83745868601863 3.5397129614645197 0.8777049423673335 0.7057025117526814 0.8832063318015371
Ni 2.686864879149369 8.473334016733432 3.509764073288227 1.5936463582392038 -0.9561819528283148 1.0473676691052156
Ni 3.8147803339707598 4.644195558657438 9.853043621924853 -0.6574223365900549 -0.5318424591040002 -1.0055533041725908
Ni 7.218036695245012 6.066384531147945 11.555117149304598 0.6127597035753576 -0.07639724511381682 0.8823023319300288
Ni 0.5080989104163283 0.08850155410259612 0.029869070430161654 0.031113947795985124 -0.12784836180525724 0.9485048958990311
Ni 4.840429301561252 0.5031057661839017 1.773613810429413 -1.3439937839402403 0.21954495628030576 -0.9954792077660404
Ni 5.9900950922034575 5.745789297652305 0.49032585660444833 0.3948016321661975 -0.11946245173440716 0.2682928151079702
Ni 7.813404519798112 8.869384230918548 11.418608848983315 0.5214102080270826 -0.6379246328767595 0.05144854558827914
Ni 0.03563136748894569 4.704784484129934 5.784063720962012 0.23252259948689633 0.03984207169760236 -0.137035427621164
Ni 7.73931006887224 8.899243324130444 2.6884576059926277 0.2185388836132946 -1.2712441628813396 -0.587851113259136
P 8.600879146972092 1.6689527908145712 3.504666621773924 0.06135577739966208 0.5400777025295989 0.26510104764354986
P 2.0587445680871097 3.527817396231409 1.4078961538139254 -1.5209268190872902 -1.3293359248177494 -1.1938225902680664
P 4.7612464693195005 1.054056829054543 8.267406045754019 -0.17546493524195586 0.02652529998403819 -0.3991959045791512
P 8.338550868152398 1.6882632432593236 12.468116066508367 1.226786446788597 0.09304796629662039 -0.4762156137683154
P 6.160651103368852 7.861612624421812 1.4627626911007041 0.08854904998500233 -1.984256578031873 0.5069055866530043
P 1.8445699727005722 3.143975669125032 6.082568486195935 -0.23155843580141414 1.0536375612743274 -0.9524052593947017
P 7.022274602659248 4.2397463407316724 5.774598061886697 -0.22908760566341838 -1.1775207677842494 3.3859484880145296
P 2.4996469134790376 8.60751853221848 10.120152802333852 -1.222949332430694 -0.165937712477811 -0.17947148529818768
