# total energy = -381167.25975264405 ev
CRYSTAL
PRIMVEC
9.24208783472718 0.00000000000000 0.00000000000000

0.00000000000000 9.24208783472718 0.00000000000000

0.00000000000000 0.00000000000000 13.52672975067640

PRIMCOORD
 96 1
Ni 1.6082434385326345 2.012584783350566 9.762065305735856 -0.22588761066888194 0.5331048707561915 -2.0890822536897122
Ni 4.105067416437156 4.590554292855121 12.76192873336299 2.698889045284332 -2.554532658521723 0.4397997941434426
Ni 7.456895428439883 4.545480630256788 4.9192796472525515 -0.7102276533165445 -0.8743113433047524 -0.7876163158093532
Ni 7.7040843109198915 0.8681675398679013 6.581254736310958 -0.41895868902837524 0.3983898637380881 -0.020673212078635365
Ni 3.7859288797992585 2.0322242200988656 8.433902416244889 -0.5188861560536482 -0.1355184767560053 0.1677824789960336
Ni 5.048083853431388 8.10988590562311 11.282537559866173 -1.0900328120739098 0.3821685167832192 -0.143161852233876
Ni 6.827426064915208 3.2425772911548925 11.937393090383898 -3.696172139028331 2.111308154967448 3.816613666846556
Ni 6.058780099982231 1.2111571327017217 8.944144225053593 -0.6313379807981772 -0.891238200967078 0.2922601245568451
Ni 3.2436031629097446 4.387773642645972 8.699540354554054 2.13782188498726 -0.26013547610815846 0.41367455781130047
Ni 8.861341587096398 8.806702363540658 -0.2987024319142078 0.7230309757287999 -2.3542180112259388 0.3193616087593274
Ni 5.728643478765286 3.9886725616568808 9.821975292010446 -0.3438999602203238 -0.31534040341507624 -0.8294743894957198
Ni 1.199863301310464 2.579124770489748 2.1208965080696354 -0.3834484119369074 -0.7850459839790157 0.3813653041556336
Ni 0.7287229179110337 6.832130287646919 11.804993712019137 0.34325127089273144 0.10815885379612984 0.2494828814903187
Ni 6.868229882912264 2.926460917254263 7.822413534693776 0.8144303506784037 0.9980767932898876 0.016542477739713447
Ni 0.1664370638237304 -0.04992391031857151 2.1996899283038127 0.900243746899798 -0.18825000282176613 -1.0526754544713743
Ni 8.628588845887373 3.0881327605662645 6.29508272714656 0.5599435882155904 0.35717302318014615 -0.9359609977957494
Ni 5.531287934142609 5.849918155947021 7.578215391852237 -0.6271810212070101 -0.3607933935415528 0.13603346871921085
Ni 2.7417577909414312 5.059571768668158 6.463572458688782 -1.247285338072897 -0.49700375415826015 1.504374314045248
Ni 6.841021176188972 4.980921600796144 2.2800655939833123 0.19483305535592252 0.7639500825406649 0.45067941717042387
Ni 1.5086322153452592 4.799166700517528 1.6301471868119146 0.8616360618299289 0.1312825842977868 -1.3672401560626903
Ni 1.0544298064063504 1.892003262759948 7.257590727482986 0.9362168225602974 0.35967239256323214 0.7419409252594255
Ni 6.291366483609386 0.18647021351578408 12.835946766788767 -0.10618578923015906 2.400053581502815 1.3833015804009274
Ni 6.272891549934163 7.228347837216965 3.050425966218318 0.9652263224187698 0.35260417286254114 0.9971015738608118
Ni 7.817429276699254 5.28594746923891 7.365385819489476 -0.9373231682505986 -0.3465224854448355 -1.4398727919277525
P 1.1830981538933274 3.3560978566040043 4.544818896764468 0.1688422877191157 -0.2724919407909823 0.7268778602787159
Ni 1.575526447431938 1.8205896496991898 11.998236527534523 -0.5226088563208742 0.1310712396179291 1.4398769056928105
P 1.3464150888482458 4.119873241223403 8.037177476050145 -2.4110715298798735 -0.644574019872477 -0.5339780173897641
Ni 6.529156162713856 6.547473980895094 5.470966674957291 -3.1752139309370024 -0.42660694960225237 -1.2086465426547766
P 6.559719747338152 8.06442407533375 1.1338988232646696 3.071434694265807 3.124638531982296 -0.7960099391896872
P 3.3815690508055636 0.10033857550365348 7.154909282701359 0.2243971421662845 -0.15689180022545882 0.13367808111315688
P 2.46973541832369 8.314431794617633 0.2141132983695083 0.7118713595675547 0.3375354514548768 0.34293271121104807
Ni 8.066475818843456 6.135970017968959 0.5380078134312525 -0.14108825753429896 1.6622207648744922 0.10733944321862804
Ni 0.990197295629559 4.29634166723377 10.384605875975732 -0.312210599536843 0.29905092222643337 -0.5722321757749564
Ni 5.893115674705398 8.153351444930053 7.071003139451106 -0.459597288485344 0.7992518431657525 0.8761219141509297
Ni 2.6317954293267176 0.6177984549478498 2.8498652655183183 -0.3435657168093567 0.13741595088903433 -0.8879271343159741
Ni 0.10199198502566326 4.848685807386888 3.451318163838854 -0.4216290367716867 -0.5537138052557948 -1.0402814516823955
Ni 4.552144175619388 1.5476153420296486 4.419778068771001 0.49431566580313585 -0.2755194147633965 -1.7326756763619449
Ni 1.604324793270856 8.920472465362572 8.406186318896902 0.2607520266462348 0.23808183874222866 -0.33758481663557344
Ni 0.47656918582105445 -0.14807026257672068 6.136333232022705 0.6953252822834154 0.7877908937140046 0.24633045190426608
Ni 3.5357085924941 3.0308965103158085 10.820707655798618 0.2547328170353484 -1.1237530871444905 0.573089124458613
Ni 8.505031372998896 3.94140852423062 1.0360204915550857 0.9434398226712977 0.009292481045519479 -0.30206914022746684
Ni 7.1404833077270435 7.528567819961324 12.152738359068016 1.5100214850286962 -1.278715017337088 0.29528631297767854
Ni 5.5148092914498 6.516670101985879 0.5788578418677156 -1.9199257771642868 -2.651025388833834 -1.0235749375609922
Ni 3.196505483065352 6.515237578364239 1.9188210291658492 0.9086491973546738 1.2484976132134433 0.3048099361973976
Ni 7.235150013897788 0.01578271347532759 10.470635851021166 -1.7914156134053147 2.184177589433664 2.05783923651503
Ni 0.7018792736590639 1.24334732479317 4.106782747947972 -0.4927951153935513 1.1324817252667398 0.6145255372265288
Ni 1.0276554778134923 7.010659699254872 1.168725783028725 -0.57447469195223 1.142019489553846 -0.3443550454798715
Ni 4.270158832265332 2.100550975807185 1.8643481631919776 0.3645289493245851 -1.7532635278156259 -0.9218389565720705
Ni 0.2880047151913105 5.441926186415876 5.902469591850318 1.632164311808744 -2.253002678627178 -0.5069580371574947
Ni 4.1776640167467525 8.625659104028921 9.01161516342408 1.1016835089389607 0.9264849399845141 0.04357582770842173
Ni 3.02888173515763 6.847407458915126 7.987439331697993 0.21026841607438626 -0.22467739241086465 -0.6878060910882348
Ni 4.215380977391369 8.397656795991017 3.6563695950405 -0.16598193545218512 -0.3706893124990261 0.6209916045668467
Ni 5.903494539396383 5.862441185026525 11.292993133886574 -1.73407332804042 -1.0654759486701522 -0.11195688738598139
Ni 6.4727609424606225 7.377986482107185 9.221239579709518 -0.6116176195511144 -0.5615703251857361 -0.16360083681451826
Ni 3.8510024205732716 1.0839397930121484 12.96052826301452 0.43462802013451596 -0.13869636026335472 0.5821432642410812
Ni 6.520995399114446 2.42568762748021 0.9294998834674615 -0.2725359066550403 -0.24953044689880252 -0.254817920549987
P 4.51829040770926 6.1853504935200965 9.477557796598925 0.9107515884096573 1.0317826701827648 0.5956618675528064
Ni 5.188351021209713 1.3612301557223747 6.644911465012728 0.3009458252563011 0.15945107631220282 0.24545756238100952
P 6.808461300582262 1.748427427520026 4.606229798111022 0.5461079678840788 1.4290592462520164 -0.2107366139600564
Ni 8.380753017255657 7.3061477330038755 6.061110954545958 0.8896214912992615 2.1907027921466913 2.2776783269969867
P 8.506334507390195 1.2224602061808605 12.026669810902119 0.5241648879540843 0.7578241721485852 0.17011909754901025
P 5.0357179398458705 1.3807679295039772 10.891317207213682 -0.3979692312609017 -0.4814588644451257 0.4366648480588867
P 8.355318791405624 7.691265535028179 10.152866067598525 3.4316652733253545 -3.615715636243476 -0.000254282102651175
Ni 3.4451546154306465 6.586956180325088 12.727015822181635 -1.470251918440242 3.6516542591216146 0.5693553684477937
Ni 8.02001584306289 5.240263828840395 9.46982032062449 -1.1820037432562676 -0.5647901176746144 2.8419207996982476
Ni 8.357878849748813 8.82963198357479 4.134999766459141 -0.433328327486486 -0.8940440458469894 0.21281535086595607
Ni 4.100816056011642 4.407644131591311 1.6872429573265708 0.9133432603962335 0.9100329650760779 -0.5565744146330415
Ni 6.221967645706807 9.028983819179883 5.041560787804588 -1.1685730716726586 -1.1257819446490611 -1.090934755062889
Ni 7.808427483102622 2.397379112299014 10.441661905512497 2.2942100061034227 -0.7490973337985486 -4.6368097163641435
Ni 3.0820791930038474 5.344237317507864 10.827876743368341 0.24919131839182887 -0.31529643755101827 -0.06671652749094317
Ni 5.611158057614988 3.4392489212743342 3.2998320255811113 0.19379895766445335 -0.9195717578044487 1.6468993040260733
Ni 3.067356547008534 2.7998073449254646 5.738187782920566 -0.4500914058774378 0.059081636653504695 1.1702383751902232
Ni 4.730091335690804 4.660803402842803 5.479001746161513 0.7586366407475515 0.788139792412991 -2.9066843172278776
Ni 8.628413246217624 0.7202673317082012 8.79978743338768 0.25698921716969286 0.5505287226595938 -2.0115148995271936
Ni 0.4493835843174671 6.295469970628796 8.465662851249846 1.661547135846235 0.8803264391505806 -0.6300483154524762
Ni 6.527825302058914 0.6275303734871249 2.5711201981755356 0.08453581506055119 -0.31683652834462855 0.173137829770676
Ni 3.854948792098694 7.13927259421456 5.607627580044235 2.6167590114517965 -0.00350518493978106 -0.1625104319638169
Ni 1.7821795324634568 7.183449774288382 6.040820874810798 -2.16463463430473 0.8823835787899253 0.695516572358615
Ni 8.111004198256776 5.392702826358725 11.858181003568685 0.0381230321239666 -0.3248984794171566 -0.8258313934264938
Ni -0.09796335891809442 3.4699973476562604 12.369179739374887 1.3038380376569612 -0.8152127373703832 0.44859219562409197
Ni 2.437951878099031 5.458968596469459 4.292667013092065 0.4379416578887813 -0.6949732982606354 -1.1323043191486113
Ni 4.579094103881995 8.858337908534894 1.4313581943588087 -1.1352456611651223 0.17860425220188594 -1.2025669121195999
Ni 2.720168273650124 2.993484538571283 0.2707173898088661 -0.9740482915857741 0.04296699047982923 0.10469994871325194
Ni 8.8087356228746 1.5820143931247879 0.6428740877880786 -0.45025415670754715 1.511198793166249 0.2554630103331536
Ni 3.1228922530887844 3.283778518930854 3.430000363931265 -0.4685894646816252 -0.09146262408737152 0.4631448966272862
Ni 0.6681826212429226 9.327669615335905 10.600465004746066 -0.9028181924951936 -1.6078858988773534 1.0922321337180738
Ni 1.7943975726428694 7.524769321842006 3.694434058189463 -1.0483369749970204 1.7675588613923754 -0.7497542506562571
Ni 2.4751697659980434 7.384169438899945 10.114125083616633 -0.9154351099282556 0.3420454235100883 1.0506365696644744
P 6.187032553514538 4.410814167734682 13.79293631645112 -0.08680069983532793 0.36603433022551796 -0.7316022623375787
Ni 2.937181739196864 0.2169986782061291 11.039989129711492 1.0109402795161169 -0.00022548574724477296 -0.9393759370145692
P 4.753113376603752 5.8043454206030844 3.5723959845487117 -0.6789005610684888 -0.2550871150509736 -0.4961105529200294
Ni 2.580788346308428 0.5186077467590852 5.259408813887031 0.42694350700606465 -1.343707620158389 0.0724284902740559
P 8.488700603712193 6.621706430759726 4.086979726244169 -0.747016797120436 0.8213515032782693 -0.5756010922471892
P 1.8752011469912848 4.761911844266989 12.605925062548742 -1.223991400541963 -0.3702460543140204 0.37568548016203684
P 5.012048952781214 3.7738771972017138 7.2381527682505045 -0.7173138707393646 -2.5093912860983947 2.3608193185925406
Ni 8.019932664271957 2.67186912238113 2.8656378126969764 -0.07039757588695618 -0.8143863848143459 1.4831035775919295
