# total energy = -381172.56578541955 ev
CRYSTAL
PRIMVEC
9.19598930908529 0.00000000000000 0.00000000000000

0.00000000000000 9.19598930908529 0.00000000000000

0.00000000000000 0.00000000000000 13.45925989868853

PRIMCOORD
 96 1
Ni 4.334934103824065 1.0514326141080037 7.02129219965171 0.14797829978591287 2.144335517736062 0.01193017577868268
Ni 6.079091383725361 5.808821262952952 11.551813037659926 -0.292176049483471 -1.2606548174012677 -0.8359980495468506
Ni 1.6934873797496806 6.154847942246053 13.329862135530146 0.21519876349646808 1.2202568732001953 1.2683863817175705
Ni 2.909114379920678 0.6892688130751472 2.0122268004729285 0.04310274472674512 -0.9080465307736683 -0.8601967582802411
Ni 4.429275756393108 6.110265786903941 13.080166201256686 -2.1610340614376655 0.39570434648612496 -1.3625216675410987
Ni 5.700179847273971 1.1489928628754245 1.0882643898044195 -0.6976552159681727 1.066583322801718 -1.020185966484101
Ni 5.987122296353982 1.202862967247142 5.23248931208325 0.761662829168385 -0.16426109610633646 -0.49157384139194055
Ni 2.2208405728702862 2.5654142858795477 6.029290504547308 0.6400625051553686 -0.9872280235008417 0.30689355819930375
Ni 4.547269493025663 7.537161441536502 11.170082010938755 -0.8795425097967046 0.3383499769363721 -0.7078617241875294
Ni -0.5666697250821696 4.416272627751659 0.7237234255793319 1.6025531738105303 0.49194767979159143 0.028580639851170132
Ni 7.381418169491536 1.9518486945880895 9.917294018660195 -0.5763099453887558 1.188660586451153 0.03135048928682342
Ni -0.21385824500288708 6.075357812135243 9.498791909770919 2.1081662669043566 -1.5852200818487217 -2.2738820931793486
Ni 5.636047019023995 5.958899805688771 5.858452016331948 1.3903865122721668 0.5687766131261882 0.4992015331405273
Ni 4.827268970306314 4.818413232766204 3.9095653498452805 -0.1998917008257525 -0.5639874192676608 -0.11558214284339449
Ni 1.485823553030301 4.4066352311348 7.069489298324057 -0.5612466232977301 -0.5003076217205126 -0.07075650188827169
Ni 6.492092451912149 5.631044400932802 0.6193066473104512 0.05786499063758421 0.26006065700616504 -1.5752886816676224
Ni 3.906226286189191 7.000317987625249 3.9165634975794688 0.7297047882045496 0.5235627355937112 -0.2687450721540404
Ni 3.561321517570953 5.587372648515375 5.839191936680851 -3.1884088323607216 -1.3265223666283543 0.528556846374193
Ni 2.177067664572339 3.94703808598463 0.8384351136884547 -0.358524395001718 -0.9348932186528673 1.9732923657108856
Ni 8.046361752098253 0.42876023477296255 0.505902628856784 0.2683257252284347 -0.05225484353965839 0.40459239300437416
Ni 3.165618104953166 1.7589260384572838 13.14952143173826 -0.46372108084573044 0.18733469009634834 0.9938774104965593
Ni 3.803350755699877 1.0877475752148513 11.032999240053075 -0.13328213122631885 -0.973820234735368 -1.8921241815709864
Ni 9.447683360937411 8.569024990758365 8.540815374477948 -1.8801425837290782 0.2697688854328644 0.8302369786933572
Ni 0.34329455092013433 8.372129667319845 6.1368707030797385 0.1704566833940871 -0.21885487219181662 -0.6299673257028957
P 4.584246565350462 2.003419801675251 9.096319329548486 0.5203776529975103 -0.5279680637502585 -0.21540368041842262
Ni 6.577891030571782 7.907778195785214 4.721212547174088 0.10253302296892018 0.3246056307670861 -0.21957092442223475
P 2.783598324173055 3.306114427006955 4.190634320662706 0.7028966668727701 0.6354180644048218 -1.345554957779773
Ni 3.470465144885298 7.6283120858745805 1.5787306312937803 -0.937567937271553 -1.0480734369229885 1.3848069613018603
P 2.7915068748319283 4.454040555142345 12.447594339614346 1.7024932392412937 -0.6942706157666558 -1.2571149225688092
P 4.657759302521427 4.907356839711109 9.659158925154586 0.6706887146816578 0.23672403916275356 0.10877566144452235
P 4.931523899166361 0.33992238170314754 12.598917099680568 -0.6457107045800814 -1.0387663005894499 1.2285008583765422
Ni 3.117320769999212 8.127645100091017 12.83387554176111 -0.28074955281408426 1.294704450786809 -0.14951916191047152
Ni 7.644717730497172 7.324053589247295 10.334988719703132 -0.9746694701095409 2.639930050251621 0.7255601699085569
Ni 5.270957054247356 0.11251936429857003 3.0756693763954535 -1.6978292581067211 -1.1005375682599756 0.8548642903237342
Ni 6.6598364897824975 4.463484835987302 7.504088986199792 -0.7869915377411607 2.1493136876769436 0.6228394564088628
Ni 2.560347295864386 5.831783647831098 10.722830481206653 1.3873448972323654 0.7120127702414254 0.5080798094667637
Ni 7.616412475929718 0.2875300727859427 6.683774569108209 -0.664392854370617 -0.17820984497694467 0.33092077435183653
Ni 2.374974546816062 2.1280438464764657 8.747024395715659 0.8602219550912217 -0.20209950711034871 -1.6479675973895878
Ni 0.5527966558682446 1.591761347902644 7.265254434697488 -1.6010408509310619 -0.32637429263173473 0.06674660939793021
Ni 8.570717052759798 0.3479550782153864 11.093632994435955 -0.5057732728207741 -1.5523189602453267 -0.5566780300904414
Ni 0.8263994031043468 6.224544343924654 4.985901622138509 1.4310945315144903 1.299585433028194 0.22430175423900078
Ni 0.6632239326378687 4.572861930797341 11.913342315442245 -0.4634310604091374 -0.5677201468372158 -0.9895389310222055
Ni 5.9832048049810975 3.4653797628918603 2.324320279845982 2.431546509904774 0.4047325181266642 -0.994664168063913
Ni 1.0025191478817892 -0.0305270055432491 12.966920353816196 0.2635720125935332 0.9876846514222861 0.057615079410307225
Ni 4.120033033652904 2.4403948135453892 2.373917008065167 -1.879189990007822 1.1208171444446182 0.9409507377008569
Ni 8.770251625080986 1.1385646111926784 4.930194159136974 0.3752383653222892 0.6929899492820194 -1.2116182236885906
Ni 6.044100645054418 0.11141308680524166 10.61550685077118 -0.9095675954038851 0.4308063323955806 -1.2273389768579575
Ni 6.668535895507258 8.703516331904893 8.605971716319008 1.5812675249588766 2.937879254773444 -0.3973827626298124
Ni 6.748449041118426 1.3873161173816433 12.306527866233989 0.5916069807571424 2.3851342411888212 0.6556513607325611
Ni 1.5339093802340755 1.5754108792148813 3.6206889842495014 -1.079682064967205 1.3288561569678532 -0.25023132962056904
Ni 0.7931779727435979 7.479815253270536 11.491744836609046 -0.44493094472242084 -1.1557967458435965 -0.8877296735931872
Ni 2.033389530276724 2.5897376771501506 10.947021339605246 -0.38759971510111957 1.854190639750007 1.5902625293686354
Ni 1.2096955871768427 8.395487479730935 1.6927976805643135 -1.3726566990925715 -0.7453509793822389 0.6468790138565699
Ni 5.284797017900383 8.2048914088521 6.842499180831786 -1.1209585551184889 -0.6320319215414083 -1.2954536702480077
Ni 7.155334776528295 4.531737467371202 9.801019012397575 -0.7643624874877353 0.009158783681132614 0.6609812575859069
Ni 8.53792415549289 3.026013793845784 2.7355538789204026 0.6313757760146481 0.3677870512505666 -0.4833915626914642
P 8.584244352782125 5.495366777187441 6.9945346300562194 1.9425733393604738 -1.3831308591510179 0.573619028820154
Ni 0.6970936802328622 1.8099269942178753 1.1193946522351361 0.7982925645762767 0.1729113155821667 0.49706648907539547
P 0.5956867492089223 6.220544088649526 1.893542445056093 -0.007046108213503995 -0.7031712606903955 -0.10661850589220348
Ni 4.396096627582395 5.1336149564679765 1.5575320371323458 -1.435630985932263 0.2704180889810891 2.709583548883701
P 0.2979574048697752 1.9585985506155463 9.481280907253915 0.5026984905501923 -0.5184053597624877 0.8633676998090549
P 8.219715343342918 5.999941505212666 12.02333186312889 -0.0708806861709618 -0.05298040885177327 0.20951971083381982
P 3.0783481680314178 7.659661212846786 5.834857867000006 -0.27809437457942426 0.7532182979454576 1.261937026547801
Ni 7.25250879375191 1.1766819861706175 2.931332809277541 0.5018232870340906 0.13577918661655972 0.5629299245374241
Ni 7.460034680634216 3.9064561859176465 12.209607658310587 -0.8560035461345 -0.9130869214110532 -0.26483596690762135
Ni 5.725045801903729 6.913213578507989 9.25118162583401 -1.4541742961520892 -2.943894864839904 -0.5452314788163964
Ni 7.420528711296404 8.133098321649983 2.404792541596754 1.0053483872506361 -0.39919821857199633 0.2815159986664636
Ni 3.7031880420063383 1.1495722101911328 4.69554562189039 -0.08985234217745815 0.0693328820678677 -0.6973615959871537
Ni 5.1100640282849845 3.029269174000715 11.022178319634126 0.7071960655790724 1.1894974805301515 -0.8078596394394216
Ni 0.4504535731500335 4.01684483953289 4.477060874752063 0.8612506534660521 -0.8500069622314329 0.30826292774300457
Ni 1.3792880188639738 6.6284137948971855 7.429000056490536 -0.911454785124269 1.2505179860775817 -0.4464620366549666
Ni 8.58070389696391 3.489859485977813 8.245290308735234 1.1961178140601465 0.263163721411521 0.9944749348712421
Ni 8.570689464792384 7.318379663949009 0.3105669451761082 0.3740217193063688 -0.9403922940942256 -0.05344423586206925
Ni 3.349942511239732 6.139260740656763 8.352655321121828 1.4130201905112825 -0.3931388997517939 0.5914138909097298
Ni 4.1359145068946175 8.809159855124813 8.875843650761732 -0.37138659567636684 -0.10883839636165771 1.2317723300389625
Ni 4.056415180794669 3.6651534309306433 7.625787786856138 -0.42940636672426047 0.47568339541392907 0.9181095714366253
Ni 7.597873361827058 5.6420519999312555 2.5210537538756674 0.9704171225910899 -0.33052970956100497 1.7017746159077143
Ni 1.6243795213759253 0.27265188195920975 10.514952387940351 0.43610177646656506 0.3994735837205701 -0.07416989844519484
Ni 6.697806728934225 7.968057904586274 12.262367806793321 0.6080517565767269 0.25714631157284745 2.151607625917443
Ni 0.07608209653618422 2.1382973743655858 12.278855295719241 -0.024989322955485994 0.7659033496122939 0.7117425472991742
Ni 5.531893246044468 7.991507676888746 0.8332973145569287 0.9120823914059389 0.22935782860566953 -0.9618563775052726
Ni 4.995325671807361 3.702562714744939 13.415409663686306 0.03891313212542976 -1.1602928339417373 -0.8150777544544155
Ni 1.3244155516761897 4.488645062269484 9.430593534722936 0.46515189975498605 -1.7305856266021356 -0.586793361418583
Ni 7.81846674927478 5.81664704970958 4.975309681849103 -0.6332123150027547 -0.8090078941112518 -0.15735511301512253
Ni 8.107000104475704 3.1255419842887844 6.029317172915809 -0.4584983989942104 0.14530975181481426 -0.8705063677363654
Ni 2.1217629858950584 8.54637526951092 4.042825348046201 -0.6473089023051368 -0.5437803481921667 0.05478840859478952
Ni 5.528224046378316 3.5126103631057797 5.820308892584421 -0.20098184856613774 -0.7150638983629233 -1.700616591043871
Ni 2.1383249623330003 5.256519351300343 3.196169939667088 0.8187433762314609 0.030675574706985877 -0.4180415765307446
P 5.634566464772742 6.8167292604697405 2.6014460105209376 0.006586909188898333 -0.46082961823054824 0.771898133743148
Ni 2.236243854676812 -0.027628429766880833 7.39480017288548 0.9045575437838035 -0.9703402466065676 -0.7108210639261694
P 7.08990531380983 3.771422281411962 4.127941584311777 -0.24399306202034107 0.6487196666097343 1.243220166864588
Ni 6.630648420257773 2.16235408195118 7.618815387891536 -1.40524543166187 -0.9054689998544793 0.5980709912149313
P 2.0657042361084437 7.733964805083638 9.349945629579624 0.6006361808389463 -0.9511454188456715 0.07865955878543227
P 9.022525195109893 8.371522732036723 4.009782319874733 -0.19806261803681371 -0.15736076944207736 -0.5397871678723736
P 7.355255580393289 2.591769990749698 0.7758306588332518 0.6402689647392199 -0.04774230038128552 -0.762952494514086
Ni 7.339438479075542 7.133485106335874 7.142425446976055 0.5336864542912744 -0.29081979256589263 -0.04633667828301052
