# total energy = -340889.65051903983 ev
CRYSTAL
PRIMVEC
9.06967871041759 0.00000000000000 0.00000000000000
0.00000000000000 9.06967871041759 0.00000000000000
0.00000000000000 0.00000000000000 13.27439156987255
PRIMCOORD
 96 1
Ni 6.380645991610359 1.9056936945379819 11.230653087070069 0.3906030207038176 0.3266612277445342 -0.2887834788621543
Ni 4.4765122818211625 0.7849280935804053 5.931542707856845 0.18755734763011567 -0.6835948812203647 -0.9874211133482541
Ni 2.838020393585305 1.4510669764123143 4.22902251536212 -0.7739897261648542 1.4359477458417333 0.22995123921529434
Ni 3.755436540731447 4.681759112431701 4.917724038075153 0.7175357569421836 0.43146813434929565 -0.10518511587978659
Ni 3.9332475930566617 2.577902006404119 2.051968566805048 0.6845379618599243 0.7412333576694395 2.151005730667386
Ni 5.229594919297293 4.77660981302936 2.64987353533151 0.35049946781471253 -1.0984899417023275 -0.46218176138306855
Ni 5.2808839527529985 4.3507521159685005 11.568141275983745 -1.126907573613072 1.1344560753842914 -0.3510828511220083
Ni 5.682779558498212 7.866848903585432 12.389401595756938 0.7940487016982584 0.24720308431720653 0.11637352839643829
Ni 2.0294857400971176 6.490497940896918 0.5974487636842302 -0.2305719035184287 -0.23163608311688494 -1.1182748376387386
Ni 2.9603431511833755 1.700247330994459 0.2332403941403409 -0.3850329828152078 -1.1740580060466297 -0.41981563771203184
Ni 8.106487956099423 9.169626632075417 6.685819822027249 0.3363535153316336 -0.29239125081807066 0.9122119750052677
Ni 8.30959434251977 2.305838852280198 1.0050573600879316 3.4462292871824585 1.103497679329564 -0.7761723356384697
Ni 7.012875159449485 0.8333565503514186 4.714333770709245 -0.8749505195506478 0.49125091083488304 -0.656894746221359
Ni 1.1535905823692276 7.564946506301605 2.653856031280299 -0.5300624843854419 -0.23554210303951048 -0.9525073321902047
Ni 7.715766194601324 4.058436369146687 3.634727278986917 0.4133205169059914 -0.8318770853999415 0.05836532731277045
Ni 7.795534019401133 4.077156186132111 12.546636267852099 0.11413101221916475 -0.5043285699544475 -0.8247366177004184
Ni 8.242242907958838 7.206612567698346 9.184936249842567 0.08711308886942416 -0.13291497769488722 -0.6260535924707863
Ni 7.160221160779525 0.6425441135065306 13.309436159164559 -1.080263648502288 -0.6149690525218505 -0.47928191139846493
Ni 2.2198310884852472 6.354371132207852 9.187366016785587 -1.587218600335989 1.1476172953565977 -0.564097462482964
Ni 0.06135093508537017 4.76531806295821 1.4406431945996456 1.1634866582886867 -0.13694235368672542 -0.1653386454412314
Ni 6.231377218380653 2.2784393527099622 6.896245439216603 0.8678874420562795 0.00466629512741777 0.2290251278565991
Ni 3.553500142872691 4.180913311283882 0.2532354079611095 -0.14468548796725403 -0.03568202678264177 -0.2815123991220378
Ni 6.202200061771103 5.6865978932612276 4.6840419505786155 -0.6848048423680657 0.9275054108292284 0.361407630086784
Ni 5.745324063309978 3.101322238015466 9.130299597952114 -1.2849273167953872 -0.25418388651041385 -0.04114896343448397
P 0.3038623548664576 5.667234129082991 12.349246499961751 1.2142150378814895 -0.09655675078082725 0.6986841714533193
P 4.0123079829122545 6.058518210664954 12.617933012678852 1.5172781665911095 0.6084587622071586 0.9460443501736803
P 2.767830149568736 8.573939200008711 1.341323863271019 -0.9666923654413351 -0.6315066451655575 0.24351175150854837
P 6.486325888661795 7.958416380467623 5.699173909846492 -1.903486143551025 0.8993317766084898 -0.2504197914822913
P 4.926604160560826 1.0696144266192065 12.551720729771686 -0.17629643000431575 -0.012083927747727576 -0.4036251439950984
P 3.984264536149206 6.494270927266073 7.853395849062913 -0.13475460200678727 -0.5465823364173361 0.5251390789418957
P 4.947546048845392 1.181552402023328 3.6703693026251534 0.02496489747545378 -0.41843598375568575 -0.4385574370959092
P 0.15819696501287042 5.762483895546617 3.457222781804196 0.9772287461962846 -0.6099847119333818 -0.11026947238122943
Ni 0.36326693688735484 0.17336600275905362 4.5124436282122256 0.7708871759801305 0.28532225978643116 0.3416006226631859
Ni 1.919706348240734 6.587017462388626 4.618333034843296 0.5412534680052549 0.07289745949067444 0.09877201326459119
Ni 5.8910738011761445 5.8352045799405765 9.208551879429121 1.0778295851394986 0.8518851530907522 -0.25323592077484774
Ni 8.507295200391997 2.3746414354446497 10.038546299859755 0.4243832024780562 0.20861931050673746 0.01638255512308146
Ni 2.3407661852312005 5.375716513993113 6.928980630808412 0.8221032938426293 -0.11257266659310936 -0.7015573792360562
Ni 0.6633009803441479 0.10727343961167772 8.933824960649861 -0.06205717434206086 0.09697249816200719 -0.06767452052883828
Ni 1.809264869833994 1.2118904775156942 11.44593733117759 -1.4064409946318681 -1.7186546794925046 -1.5020783189222195
Ni 4.386005957355295 6.772864250105839 1.464019384666619 -0.01763879612768575 1.0314391708004174 -0.12200424431965438
Ni 5.514455390168518 8.019990429650786 7.7336742753366545 -0.11438298032897076 0.5313632054747365 0.16191007937565663
Ni 5.591248360331108 2.9848494232253406 4.625740241496395 -0.6483561126227285 0.8329176108493139 -0.3058172944159894
Ni 0.8426720174181479 7.479773152953679 6.8119001475405625 -0.014485080990052473 1.4014494549545475 -0.22257371580430055
Ni 5.208789076194308 4.98394266975746 6.856846754631002 0.5550952589843537 -0.32129096457155637 0.3707199086266454
Ni 0.8648383123369352 7.584727475703355 11.391936463769053 -0.09448469874314694 -0.40230231141861683 0.08575348951773618
Ni 4.678666351970446 0.2834147640749658 10.070803519380279 -1.5091254555769882 0.3678446439613794 0.2801995938478852
Ni 8.151446353772267 7.239354108065294 4.659298052952823 1.2288068196527353 0.48962983029169216 -0.4201167138922184
Ni 7.366492865091301 6.479342236007349 6.877316112651546 0.021171748981608698 -1.3459056562509724 1.0174793661862154
Ni 2.7622522971239514 4.851334896431933 2.494775679555035 -0.24920417390763533 0.9322542383681235 0.09255739981344704
Ni 2.489989610067046 5.230746768501339 11.41583053249391 -1.1408529800495708 0.47707924732019125 -0.21939017586999635
Ni 1.135550991291704 3.4906019205888166 3.536975188150093 -0.701782607872985 -0.48163421368072534 0.14422860293549353
Ni 1.3495409922384582 0.9190396196463315 2.2795313420341117 0.3367389236955104 2.006248508921932 0.4048186500825673
Ni 1.224279658718257 3.548412053081595 7.992537418975794 -1.3390091862414553 -0.07121621513350959 -0.5062800372538636
Ni 3.728735406426656 3.115180707179094 7.2673712527599035 -0.3613392387426938 0.3905595690603919 -0.6671825013006122
Ni 3.956520388785634 7.317090324820174 5.66606776839291 1.1216098155492424 -0.04055683837643983 0.6522721598476832
Ni 1.0990364645556001 9.07983681223254 0.10009841673514229 -1.5796906673900601 -0.8820123114934358 -0.3407580721572325
P 0.21249078304574126 5.754384672403214 7.742275958684027 0.8333719247779131 -0.898472256821672 2.2942092347724747
P 8.41859374200176 1.9811987703149476 7.7778508666993496 0.5370797962435396 -0.6818563012627031 1.4402718271383839
P 2.064530978872156 3.5556224477053413 9.968471240763591 -0.14551646850898164 0.4294241073360733 1.3491742996999152
P 4.050872257050832 6.404599013247232 3.629643724035206 0.35700410170244967 -0.6356553772266086 0.03146336071560388
P 6.9911351394329815 4.2571802400776955 10.413839630798794 1.4271926253569227 0.039360504075493505 0.13159523044219917
P 6.3076532168532395 7.912804965923196 10.217140065462994 -0.4679942542997875 -0.9295957176993538 -1.183796316380316
P 2.2225429224380773 8.823119554590855 5.554947878014024 0.6174722785596785 -1.274677614042921 -0.9424738592136027
P 7.0614886376674475 4.062127728406894 1.497085619533605 -1.2405647315196118 0.49489339268347676 -0.20096950727096358
Ni 5.705798403221568 2.991143780293114 0.10679093270100691 -0.34199117323338524 -0.602053372901447 0.9865559371344815
Ni 1.638147240442521 1.5320410684888008 6.558120558853132 -0.453248977669813 0.7587132596217578 0.8052638536877873
Ni 6.75737323876325 0.7724863082409648 8.895740472518323 0.5345881401699373 -0.010568005323833413 -0.149822037862871
Ni 2.5702562671993157 1.762419978976573 9.057993397878036 0.51305900784891 -1.4485242969551633 -0.19986444713224288
Ni 6.556126136491168 1.9513685968338137 2.245084702058026 -1.4322782674099461 -0.11119481240897625 1.9554982749522583
Ni 4.186436745656034 6.935148012373377 10.664194508781913 0.2352842213924335 0.067787906178251 -0.873836974771495
Ni 8.409796153592913 7.012457954225972 0.6265669673817614 1.2988171874036019 1.1195238795544913 -1.640334249214046
Ni 7.7446712608477135 4.286076236645313 8.34866289079807 -0.33862354231273295 -0.38366618437466826 -1.7188200014257755
Ni 3.4767978694978208 8.37838785600545 12.621901904109484 -1.35721388217494 0.3596726496735483 -0.7221226049819176
Ni 0.24711246782212698 4.871732603990178 10.031364928208081 0.15202418772051238 0.3316005740276805 1.063336019509014
Ni 8.556743089056983 2.58400590021768 5.721819990772319 1.101098068749136 -0.2535655362001246 -0.9988152141178088
Ni 3.5511420263919695 2.5664470021150727 11.360834721324084 1.6588407926586657 1.4300810026483113 -0.5852640692582501
Ni 1.1382628252445341 3.5330661565993573 12.318701635793381 -0.3330329355988329 -0.8544153757117736 0.4457403279975936
Ni 2.8557878942996684 8.74743308523845 7.62842156015538 0.8030763591181653 -0.8917549927024965 1.273490278603039
Ni 6.035064021360542 8.09630270683846 3.36706291906742 -1.5948038688824147 -0.14180868064009125 1.0816965242940726
Ni 3.302224692494213 8.422266961904423 3.404615924022919 0.8124279755363945 -0.4508776492241589 0.5794369210535117
Ni 3.822787975292378 4.736603459966033 9.39578723496633 0.4441822394818544 -1.3741916476798592 -0.5443598748447206
Ni 7.52038717449473 6.39664490496418 11.485004065520137 -0.2128348912499818 -0.3232061793163982 -0.7397650006540292
Ni 8.204204675189038 8.800273033764169 2.3667970702747403 -0.266380942797238 0.6876929625491383 -0.14795001765113874
Ni 4.828080240060505 0.31964540986550566 1.601183764607203 -0.7046378179335929 0.49448767260462584 -1.181522689854791
Ni 6.331452053950988 5.767036874290165 0.2766705509401007 -1.114045115828107 -0.2711128010552686 0.11564333509863307
Ni 7.98925328829245 8.939147955121152 10.917775471504235 0.9322210711373429 0.7048483912825022 0.585395709740108
Ni 0.2970283519117496 5.230846534967831 5.655249455553659 -1.1825516453399374 -1.7186279400196274 -0.7385946344950118
Ni 7.343709832016017 6.303163725861095 2.508886285788525 -0.7277720899582112 -0.7764497576695725 0.23370607827203624
P 8.544988785368462 1.7832167524007874 3.2675848683602826 0.2327336870564379 0.14799166952235157 0.7181271106692794
P 1.7793439995651399 3.1946220235431113 1.3018780163558021 -0.005985785269789691 -0.12213228525708643 0.3994342458422024
P 4.516282823236417 1.250654284587256 7.993785406774823 0.8824064616080609 -0.260176613758739 1.5046851604174474
P 8.811610132229179 1.4937126059982955 12.191706179691973 0.5991791366774455 1.0332178599673947 -0.322306036099632
P 6.473256481551332 8.101671956671488 1.2144435920900145 1.0700779662185378 -2.785874607436957 0.08026726959218435
P 2.336340181990461 3.2708798826581535 5.3814249698122145 -1.339728323795667 -0.22073023483765858 1.2018683433906785
P 7.105186349990981 4.070952525852057 5.87916168507699 -1.0001143925452065 1.6894598030961032 0.22780951028194313
P 2.453302759434274 8.26853590671889 10.143838921627628 0.1538077619834964 2.074559891703821 -0.12043587139127002
