# total energy = -340865.17507968296 ev
CRYSTAL
PRIMVEC
9.31779685473145 0.00000000000000 0.00000000000000
0.00000000000000 9.31779685473145 0.00000000000000
0.00000000000000 0.00000000000000 13.63753755423755
PRIMCOORD
 96 1
Ni 3.6192745148123224 5.286209715213158 11.53956573327333 -0.990091718201882 -0.6677232042954308 -1.1556388801094934
Ni 3.1665786782111627 1.8104944947058341 6.7648462202831325 -1.711902705480652 -0.9149867095369274 1.4608319106779228
Ni 0.36591919560275243 0.7927152843977082 1.2789272358567296 0.5386268290156853 0.1338133211394405 1.3734393428948668
Ni 6.654304538710642 3.9997294733225712 4.866800775670165 -2.5802560314297565 0.29490578970980824 0.4769360368741077
Ni 7.205722431725215 2.890101013473192 9.720646086759187 0.4720655961556838 -0.4139823188597064 -0.41288754313363085
Ni 4.636181579345998 0.8038006671740214 4.020782103266929 -0.2013736846879177 2.5010102611235503 0.5830030411382153
Ni 3.509268606552128 8.038220981065134 9.998715231179595 0.09400004579724455 -0.1606553810329491 -0.7712859540804459
Ni 6.0459549076417085 7.998266268662989 3.4592981944389147 -0.9655461676520338 3.7143878907054098 -0.4224163085596725
Ni 5.760904869907008 5.358226966182414 0.514532462857127 -2.5237915206841244 2.7654641621014053 -2.0910319212169153
Ni 4.084847546502045 8.163079457321833 12.39604456429192 -0.5398853840131348 0.7912446565905599 0.7567921313396451
Ni 2.6393218321319356 1.4159603453281318 9.500685518120843 0.266498956432341 -0.937933548141088 1.202021066918459
Ni 3.4729385170801224 1.386711781375163 12.803002132057165 -0.9170515624857561 0.04423968654466574 -0.7742100697057763
Ni 1.3077061828542254 8.66325878608748 10.217406715902554 0.5039647588571257 0.7053608121425465 1.4497437711845613
Ni 5.2308713204005794 4.499070200382017 9.850474675794644 -1.1359457725559403 -0.8860571709867708 -1.2242541672850464
Ni 1.7034702814010236 3.591321124605598 11.666517918456512 0.633172977124387 -1.0408864322562459 0.42633158445367875
Ni 8.734297668399503 3.227200263772812 1.064262902882887 -1.6984316675774105 -1.5902483883012484 0.2983641805720539
Ni 9.050748681133088 8.838135195220746 12.197249370938437 0.8133440595927605 2.0598326127959754 1.0923912850037574
Ni 4.980213270416885 0.46444837362373953 10.921308488935457 -0.13006259584775662 0.6072883960481412 -0.6269403659511138
Ni 4.216778230481047 9.086249486695628 1.6805540921095512 -0.18560922276480937 -1.269113489691582 -0.8135057819816055
Ni 0.8991869523560991 0.48775684215777954 7.972299432720289 0.5438124869816828 -1.3830205588253988 2.0724700990543274
Ni 4.1513300262103705 3.775105347418073 13.362740817556604 -1.7030406271043317 -0.011076055308503505 1.533984937822829
Ni 1.3094579286405135 2.8908743906022445 8.241722593549756 -0.7120893891156317 0.9859136755647924 -2.017603014702803
Ni 0.9512352331413457 6.7710099428237145 1.151839010841206 -1.7619327734548493 -0.7632366014134081 -0.4845117923388365
Ni 1.6861019082859123 5.778701861671957 4.1670994654056575 -0.4575211226826056 -0.40919466766307594 0.019277103062057124
P 6.898328317418607 3.5418622595331684 -0.012893967122688211 0.24146335361995186 0.11989773949961284 -0.3131292546963704
P 8.44207292717841 7.074667620639358 13.34191647363227 0.17709989974221757 -0.28622754520952 -0.32940150949383273
P 5.557543956153092 4.654304693996691 7.021067926697637 -0.3672967418777094 -0.043460642286796115 -0.14602194739049043
P 7.9677877555409236 4.881276904678555 3.6494595173372164 -0.12646022320847897 0.5263688375839386 -1.0288960926635893
P 0.9445916440688811 2.603718530805305 2.9333933606660185 -1.4179417961826162 0.1388053750373932 -0.3391048528245257
P 7.024071984365187 1.213848016336782 11.184525997139033 0.514944654907397 -1.5585752255676835 0.003928645630444847
P 5.117101022259213 6.373065479840792 12.357804326489124 1.9727035830869506 0.18409458589249586 0.8664586800295531
P 1.5395516012287942 8.493721474483701 2.2602449757588783 -0.48317533291560016 -0.3751635462202958 -1.6487052468865604
Ni 5.627474020653579 2.797239851206455 11.916697965467671 1.3773813582617505 -0.5924551876900506 0.03783378301832194
Ni 8.675036481161248 5.57590933351891 5.580766700957164 1.649733945261391 -0.40092188613132246 -0.23764552253575844
Ni 1.4751563079892378 2.6489564339565197 0.36086708621272384 0.71653714047434 1.5476603784273926 -1.751012784108236
Ni 2.2689021407059005 2.110769812306463 4.589358718970062 1.273094071605885 0.7647445534175022 -0.40139599755426353
Ni 2.4706603934212983 7.826474050249199 7.568178202281355 1.0072702868636976 -1.5449447792684425 1.225311662015283
Ni 0.09442096144027225 7.406390502222552 8.875527513520607 0.41679330594594033 -1.265134450439176 -1.9597861036943347
Ni 7.656340399654342 6.4593762310024205 7.421438743950504 2.0295727854701693 0.28091693162988396 1.3683683561298627
Ni 4.510913120032932 2.5682456786329717 8.656071969465334 0.7322949175292292 0.3759001672760042 -0.9149216606269468
Ni 0.31339943430268585 4.666026482290044 2.5557290822780745 2.102542750069992 0.37888778914941845 -0.3886854919661306
Ni 0.7108071921936393 0.4418871923878926 3.838707696155432 -1.5095154919265552 0.13773733878419506 -0.18395960297652836
Ni 7.697776641737442 8.208401220643669 5.459897173482964 0.8592572771851072 0.1777231351485133 0.27190470082894463
Ni 0.60946963023655 1.6777717980043085 6.192601188005203 -0.7871218926714378 1.925880966306457 -1.9865001226504109
Ni 4.639750295495723 8.451921838327912 5.48329881998436 -0.5653565317010457 -0.9386071771693448 0.9508428000035881
Ni 5.9841220085044355 3.9253455019824783 2.0553270581704464 0.452873082387633 -2.408327391475833 2.7436123563336365
Ni 2.5780480007987965 4.254664392007894 9.59764837451058 0.10048899595569791 0.23550507915398797 -0.4709574506931696
Ni 7.466807096256017 2.4214251554705224 6.063985776104719 1.1638581826954926 -3.144562524599733 0.5201706791930267
Ni 3.2600454972657125 4.49150414943273 6.64581788944388 0.5058527199084579 -0.1980263654822396 0.4595376388920021
Ni 0.14145626758177957 4.800128212908434 12.960351765530813 -1.3535186927115401 1.1786584809331184 -0.4345547436944194
Ni 3.9104929339859726 5.818731116447985 8.558700061798904 0.135657830547347 1.5374137609987202 -1.0153337805981224
Ni 8.05835673981071 4.108430890039785 7.4711883242810835 0.6738128621329363 -0.702278573672797 -0.10877951809926428
Ni 3.0175405194256464 8.51643826292503 3.6005960594761897 0.4017425822604049 -1.051671181576576 1.623693041112939
Ni 8.686450782162327 6.947274703670581 11.070789243065914 -0.16526022679481217 -1.9933019760635928 -0.0884894003916605
Ni 6.001182894327272 1.1522480621178979 2.2678268669626154 2.2628816283037865 0.20633025736224464 -0.3026190991936659
Ni 3.268077438051778 6.6701447931611195 1.402975063797435 0.26271095014481854 0.7076328960061748 -0.6691018298105121
P 4.622353968990406 3.1606152883003955 3.929383835087677 0.2419950577537058 -0.22075954541369722 -0.25586358820568195
P 3.885101937881532 2.8228917456194917 10.749952343408891 -1.2593785217920053 0.2660127608245419 0.32844583044878267
P 7.855620118438076 9.141196534045312 2.8816665438681497 1.2880872025806076 1.6608861052234685 0.7555520882849568
P 4.37224566901411 1.8673796437765173 1.12373839944606 1.5002677480760422 1.5721524500314858 -1.7272845872533609
P 2.0045469295209117 4.944814960618437 0.21750626097819278 2.1056442718134507 -0.0031604000058526216 0.37031316010653
P 8.44773814759364 1.7498822269409209 7.956875683783893 -0.439934519949094 0.4149076588874532 1.051151818737996
P 7.360761251608442 5.03541189827843 9.18831849569646 -0.4151172037950979 1.4148068500980602 1.3116053403072057
P 6.682490873835755 8.098609621708393 8.78554741400451 0.1446564345015315 -0.8133348036213799 -0.3677392287317667
Ni 0.3253867798030027 1.9502241745525115 10.16353866941485 0.037881091316489604 -1.0333950089752073 0.5110412060879327
Ni 5.664242046572157 6.958334928395708 10.337853215404959 0.14191589564191687 -0.3578579650623127 -0.6665181282437359
Ni 6.774168675917076 4.838088916809165 11.27753438059419 2.440758772531661 1.0724256405151078 2.703345281283473
Ni 6.522867697958627 6.3186029579213585 4.575053105641934 -0.7957600279624102 -2.057577498213211 1.4617269116883664
Ni 5.099658106770217 2.511668016854563 6.03898799102252 0.5394346696289612 0.5562887650718226 -0.44649854631985686
Ni 7.109544133820614 7.958264967277167 1.3417767066178543 -0.4141512403374029 -0.5884766626582769 -1.8638037373597383
Ni 3.4353877962357564 4.482801327281704 2.249075732811945 -0.3547150485579568 -1.2655116312729364 -0.5904571834234154
Ni 5.668397783916223 0.5246320227388163 13.411468235585293 -1.8803148476408842 0.9376514981242949 0.24168215449897734
Ni 8.354793125156283 9.181570547300558 9.688924579552598 -1.4712243096558404 1.6596584034639545 0.671456703195934
Ni 6.323215267305469 0.8999351714339658 8.734924756119806 -0.41456004574004734 -0.18110336447465583 -0.7536880384930246
Ni 0.9436132754116456 5.462884459116388 7.86978596481517 0.6882046120782341 -0.41256384124562495 -0.5690620055770909
Ni 2.1007718164091913 6.881705368042342 12.380224808994264 -1.2984562045197574 -0.9563907264050109 -0.5417592039970798
Ni 6.600363813408401 8.202009212083064 12.286221284847745 1.0390691765418492 -1.0702875111261825 -0.5212603127127797
Ni 7.917518242152499 2.336213904323692 3.5428275832749736 0.8408921444143581 -0.5365118395552114 -0.5767444618230131
Ni 7.737349324473428 0.8825733207765697 0.3433962173335213 -0.16138685988233495 0.3315779483198612 -0.49191682655365604
Ni 2.5825391788253436 1.6050743478733551 1.9836210216121584 -0.5053073889279491 -1.6733256165384018 2.2122488937485834
Ni 0.003352543265459762 4.277399816042696 9.888496877153829 0.11547544206220113 1.3861832728240966 0.6314937896497511
Ni 2.0434207775017295 8.776805457107194 0.08683627489751447 0.1344309001187814 0.8377407432695702 0.010392913198549843
Ni 8.593449852944556 6.995773835679247 3.5076156294112373 0.7241905432545399 0.5066556754257275 -1.183365913711117
Ni 2.1489355077353767 9.145948610380454 5.800699316205301 0.357574629493939 0.8133718275069023 -1.7536427655319153
Ni 4.0321367703689 5.284467287223605 4.365361680785868 1.1535454879155747 0.45637389645203985 0.34772010529736247
Ni 8.408202736044595 2.5822969161102183 12.181852643612572 0.20563297418490395 0.16962493152141112 0.3468359029201962
Ni 7.844643753883569 5.489151328113973 1.0843325052716413 1.7097866875789134 0.5808489709096899 0.9630820223822576
Ni 5.687238368915555 7.0363807938528815 6.978641202821545 -2.3040077089201354 -0.3663917135649367 0.31572581177895304
P 1.273435326460782 4.004062248804614 6.068008268955467 -1.1703448188611003 -0.2528587399410871 -0.10619684497375259
P 1.1820836472652079 1.3399737129495204 12.216669522894719 -0.16495632240114816 -0.3800375864831455 0.038008875143605514
P 6.363943356836665 0.5960417533609134 5.570743547008706 -0.810809723206681 0.2569827894117897 -0.2029034910688828
P 1.5521026734316132 6.161048332919527 10.224225479553647 -0.27993142778816305 0.3824212562239736 0.0025356219376601492
P 4.063873186050267 0.28277742711089326 8.231931452740016 0.016482313925739355 -0.19455100533912945 0.31817658731229076
P 2.905298339948914 6.879021842582496 5.48897242641665 0.8171829737228764 1.0858413997003815 0.6078447827722435
P 0.4361017723947743 8.1772145549697 6.617682802200814 -1.640519882862291 -0.8596462850934098 0.3740690276045364
P 5.111659428965638 6.405044158237285 2.474135931603668 -0.36810792492509503 -1.2145189422751534 -0.25971098697623013
