# total energy = -381169.19567811326 ev
CRYSTAL
PRIMVEC
9.25007676427557 0.00000000000000 0.00000000000000

0.00000000000000 9.25007676427557 0.00000000000000

0.00000000000000 0.00000000000000 13.53842235660439

PRIMCOORD
 96 1
Ni 1.6102903818139682 1.6675391075615764 6.98536574969465 2.3319427447675065 0.7840658794539336 0.5758882844703049
Ni 1.708285696173342 3.323376867882771 11.365262347453797 0.8631591833426747 -0.16054765181049124 1.0605016353840122
Ni 4.823850337097675 2.638621427437109 3.8009527866278945 0.587057413713247 -0.3592090797735685 0.9106276612372833
Ni 5.872596302372614 7.257351309945479 7.90099663375839 0.7663262960823255 -0.4587673363848809 -1.081521175058473
Ni 0.02978802254403347 8.941364804412288 2.4203445885157913 0.3321081097917184 -0.5601379636145838 0.685876992386322
Ni 4.203900935202303 2.1421605517544644 11.085003518450558 -0.6035698095459735 -0.33145607803001625 1.5244723703467036
Ni 0.01913378400532038 6.931350850820747 6.456880182880838 -0.0025916719865761817 -0.511869358416183 -0.7116826405955162
Ni 7.781312664162238 8.24027372821444 4.182519382517605 -0.45213620422160844 0.2728297837463753 1.7705541965752731
Ni 1.8925102271136176 5.782139800662181 12.731939004792192 -0.174891322126673 -0.7375998746819104 -1.2688419811977503
Ni 3.6237453640011004 4.883605833677017 5.538811903561888 -1.22742845124797 -0.699331575229331 0.39715367733814183
Ni 6.917364734593508 6.091323620037494 5.627867943634223 0.36689307868138754 0.425232437852229 0.3183694200493872
Ni 8.37126406676863 4.173875185682714 6.248104097912561 0.24339373787344531 1.3751907783683348 2.182169043644068
Ni 6.22887226309242 4.840740977462053 7.702387308277783 -0.8415212933579248 -0.21489922997817829 -0.7316786241014689
Ni 8.15114923757327 8.324736180113199 8.228761082542205 -0.30108157950321696 -0.05434772151294511 -0.6717333538960883
Ni 8.329333468317522 4.537403206668497 2.158105834262742 -0.5148047868954231 -3.2885409591976327 0.43440304860790346
Ni 2.5928797973156152 2.7306966925997678 4.831009896594953 0.66236708218984 -0.8229108773455892 0.5362678418652055
Ni 2.7424997906857183 6.392080619384358 10.362538289629507 -0.5088043463376141 1.6078591594044762 0.19350328080090545
Ni 2.0783165211986407 0.3024950887907114 0.7872703423636526 -3.30120801314234 -1.1374377837204346 1.2549469683832128
Ni 8.466650859450702 1.149063048928648 6.984011538440901 0.15550366162868057 -0.5260155680095779 -1.226630637937023
Ni 0.9646812666815844 9.04292139836656 5.6034579157823305 -0.7269814757361157 -0.06165145426320995 -1.1603879647587048
Ni 0.28475066633124513 1.101619404663099 10.210028572245259 0.362401361458621 0.518739603173455 -0.7433732868305778
Ni 4.390687737435533 1.890817463046432 6.366998110944025 -1.0447289459307878 -0.1095289946707791 -1.0018545151647649
Ni 6.077790757576878 5.409213701576614 0.757285293182291 1.271748356211268 -0.448414275285331 -0.5697384628188252
Ni 2.3401861973845826 9.099920372038682 9.92281091041282 -1.335905350505151 0.4582963102857333 0.2157651775228994
P 4.198082636851157 5.732596388947173 11.890579762939678 0.7000517412248072 1.8250502707406246 0.6476662856445556
Ni 9.26746701438259 1.9274200172204965 1.3742043698950948 0.4112155547478466 -0.037480770554277384 0.9397351201262009
P 0.9841896788001344 9.10851369345079 7.844338062915079 -0.09482614124296572 -0.14084168874113162 0.16277011338310676
Ni 6.46851400456007 8.678144617003346 2.24203085669536 1.5571873440812214 0.3796835455778364 -2.3745338399651557
P 2.004306656162833 5.0082968698828285 8.902717983249984 0.45093215661117825 -0.20721137441561735 0.00446754885305037
P 5.832783971524704 0.49209668941544116 10.26645681617451 -1.3602022753793024 -0.012479620524249476 0.3080760085431791
P 7.967026457478562 3.5614460962825443 10.172622186391203 0.47448731822329904 0.49125888125468303 0.05159869801289823
Ni 0.22773874255150536 5.377384187067401 10.383699690484704 0.7555613442563374 -0.2308362129234089 -0.38985431546325117
Ni 5.644739158837174 2.626059823047829 -0.25791526832407324 0.6260841885984055 -0.5144957402954365 0.8955203732821996
Ni 7.891814082449672 6.604656635930776 2.3042255985452864 -1.1124206928508067 2.7182882757465507 0.6135130368016143
Ni 7.676426042534813 0.6954365042072977 0.2748993344648365 -2.0676256264778328 0.2685501825344149 0.9627590918251999
Ni 5.97175712641759 5.8767958372715325 9.933763001426744 0.4307600525386775 -1.143319182201876 -2.3298534663386454
Ni 3.6508018388454615 3.9029866845486523 12.931806340727102 0.523444207737976 2.264972449394544 -0.7075835308254782
Ni 7.419403406628683 1.2621174884321655 9.087314367280428 -0.46063781393471637 0.22388857796098213 0.9097241755864075
Ni 7.470537831565308 6.169727271586489 11.957405093270658 1.6270699280049723 0.24070590662863708 0.5893235840396044
Ni 6.396354154898236 2.5234117200229127 7.2709183976905125 0.47746002769837764 1.4443051166674932 0.4542393666075403
Ni 5.546595843247882 9.666422829779963 7.752696626357618 0.7000481416803814 -0.796437513645409 0.34708992791253124
Ni 3.88504153542111 1.529204207972712 8.941546105918938 0.6266470030804111 -0.7008531540801801 -1.1242202565888961
Ni 3.0947982183514817 1.9564005080537905 13.62804667661439 0.842295452519788 1.3037709318644515 -1.7066877369386158
Ni 1.6457274263024295 4.416513952056202 6.855992324577313 -0.6743851896966386 0.005545612408577546 0.8731720874939867
Ni 6.904137124669599 1.812783814572232 2.4054528897629917 -0.19943584423525654 0.819271223710473 -0.04714451889628655
Ni 6.038801683570388 5.01306990954768 3.3240345483482185 -0.5304694900158735 0.6010501284479133 -0.8722917417715622
Ni 1.1124327445239737 3.8576705579631727 0.6728552165525779 -0.051736766252659286 0.7292761853075633 -1.037987513441896
Ni 3.077260072606214 0.4618295128895486 4.770696620380357 0.7025773358601384 0.25126311331919304 1.503513251596533
Ni 0.9323614980982682 5.829398443390333 2.3706050751711407 1.3900098456590384 0.5327040357733471 1.006921388164711
Ni 9.443218474910065 1.7787435316911204 12.457352322925557 -0.26582635584534864 0.028467254201757428 1.534876339288847
Ni 4.881792818610524 3.5048263757620868 1.5889365793598798 -0.07143475890221891 0.9486385932634178 0.9625734581769552
Ni 5.658309021605269 7.35062908510122 11.435770133386672 -1.163435493335777 3.2002359069026367 -0.44344973219120404
Ni 1.3212254796306169 4.463532092785737 4.574457164593811 -1.6102515708960525 2.128847706513108 -1.604911646740378
Ni 3.648951823471488 6.297914836849109 7.512349104024795 0.08553828818313655 -2.0504082341582817 1.1049246415840777
Ni 2.2169104229398617 6.934708628724509 5.097460210846853 0.5017299559893359 -1.100856127941659 -0.3682943299042883
Ni 7.482701682649185 3.5926096052571266 4.379652395729781 -0.28165560956812136 -0.9710742965591147 -1.541124634191404
P 0.4447640460723305 2.7035477169867073 5.584883761427637 -0.6033029290378319 -0.5817480856851917 -1.3909385281208946
Ni 5.259639958590861 0.43006567392611145 12.39741737485494 0.9028266771356257 -0.574018835361734 -1.0861116226426328
P 9.78010627451063 7.386066129589681 3.9374200956967327 -0.6260466504922508 -0.2029808812740375 -0.23844873516334417
Ni 2.6922626232054694 3.2252428023703494 2.237224516753777 -0.48959897705375677 1.2955775974203816 1.0380937000024575
P 6.272264373688968 8.607631281024348 6.036769441682078 0.23691378657605652 -0.9607513173665518 -1.3510134097911828
P 7.787574966203138 3.313821538476198 0.5204694501983849 -0.9497940470240996 -0.7101780310255318 -0.8112103010792093
P 7.958164883837229 7.428810734805338 10.098308918834062 -0.45444685463265605 -1.2498281590994087 0.8126727445573488
Ni 1.7461925111860577 1.3803797212134181 3.0516826850533434 -0.10482593276815497 -1.3223240122762903 0.15938294207842874
Ni 4.770431143174192 6.645800977847945 4.703640963135316 0.08020941977105542 1.3933324822743682 0.17308152261144386
Ni 3.7733561072943327 3.692584436066652 7.760033787330795 0.7666672243615118 0.43155400919488257 0.23553310417844597
Ni 2.9771464906436402 8.019668644944977 12.14231320489162 -0.03556941246417745 0.9352344040423698 0.29543389429913636
Ni 2.9488690056524565 8.29760570465388 3.064679043055507 -0.4136529605447456 -0.6443917286583418 -0.9656580106395498
Ni 1.1615044023186196 7.254252534194072 8.787411150028653 -0.3679192059530567 -1.085270614798576 -0.04090856528890374
Ni 4.242529256210869 0.0389687238373767 0.7801921835428303 1.3244657412096414 -0.9675644836336433 1.40870022297969
Ni 8.79279931980535 1.4387569563391502 3.8431109369700014 -0.04673365661111307 0.9952753192853506 1.3231177118221795
Ni 5.834347234515713 3.1868827335910104 9.758684946495393 0.24358811327243857 -0.6687603873106934 -3.276336189601325
Ni 7.95464985462668 9.248615357721798 11.714079046185741 -1.0571949396082825 -1.6251097189548076 -1.6961341297924857
Ni 2.38982210986829 7.28649830216243 0.9323846232904429 0.49559658939808837 -0.4607424578333807 0.47281944360257283
Ni 8.318316626765512 5.704846158337571 8.36681292977885 -0.38898939635979457 0.3657936749696216 -0.41994702108357346
Ni 8.955230669640219 4.122972012667835 12.24649127063081 -1.6740478394164073 -0.27176663258918354 0.553442039651647
Ni 4.925138678822722 7.417673642254017 -0.00826956872166131 0.5670159216813395 -1.7386164673264122 -1.0182530111274464
Ni 8.909516789749336 2.959395593130365 8.299675871857355 0.4826382294652075 1.4533623417737551 0.8271020326088013
Ni 2.0228900605943965 2.7897306831832607 9.21522535524464 -0.8744455548897715 0.23527085165599482 -0.5576208536196848
Ni 4.143266681320323 8.191507322956502 9.16139638291582 1.5159414500575568 -0.39020064305907637 0.12687185682460086
Ni 4.847965287497419 6.946308225119322 2.167853565268208 -0.11324115341504369 -0.05695636278038579 1.2459956727271961
Ni 7.070842010018345 2.2103798686697353 11.665449542065476 1.6377567182948567 -1.4649415619709223 -1.1392164728874123
Ni 0.4455752778138179 7.616263542573197 11.347513299955894 1.1170823599925341 0.1602306347907047 0.3290610954352784
Ni 3.2792355010597647 5.491141632413028 3.2236878644485247 -0.14362156547911395 -0.4244693344339593 -0.3319996092383121
Ni 9.023042983173216 5.993457806754298 0.3146136144979245 -0.38460900790391184 0.7151826833289747 -0.8312625917443942
Ni 5.201438474925656 8.901348971873244 3.895748499397981 -1.0595654967229882 0.7596164881623176 2.397225110915084
Ni 6.830451012324236 1.4555735960885687 5.263237313485552 -1.0024060167928608 -1.2879000262704658 -0.8531786750911952
Ni 0.2037551432433136 8.458233289499123 13.805265199333428 -0.5745703369898297 -1.516412990377337 -2.04460653987484
P 7.1214861808808685 7.716599126380647 0.41377073851215335 0.6894425982503933 -0.7698157972928226 -0.5214598303180955
Ni 3.8580220608842275 4.401251325220921 10.347944443351919 -0.1182756305151576 -1.710271854745448 -1.5238769028545498
P 2.9879228301970358 5.1500542979135435 1.0653970286483858 -0.2595780609427916 -0.10247594447873964 0.7123197599588829
Ni 2.9359281481115116 8.202329912894246 6.828238393936964 -0.1917323049434117 2.7988579070705026 0.7475801258230738
P 1.903157065590835 0.7680560826895645 11.836277186675122 1.0922709573758094 -0.19018270106810473 0.2167483673717751
P 3.921884591593791 1.4272406106361653 2.1778316231877333 -0.014113299472930533 1.0702911106706083 1.918170227925761
P 5.56837977427642 4.27453452218061 5.425332885530044 1.7335249117361178 -0.5265030491689577 0.5574951266750978
Ni 6.124300144078571 4.270492238588478 11.626743520411203 -0.7836645302504568 1.4355746787730308 2.3297498508812455
