# total energy = -340869.8096063903 ev
CRYSTAL
PRIMVEC
9.25939044144494 0.00000000000000 0.00000000000000
0.00000000000000 9.25939044144494 0.00000000000000
0.00000000000000 0.00000000000000 13.55205386458452
PRIMCOORD
 96 1
Ni 4.762669299739742 6.867393550831761 11.532119796856591 -0.6655796755898666 0.4696742131053717 1.052516560296007
Ni 6.7158358489489585 9.107416014283965 3.131107305024356 -0.009318192077132338 0.6287033713888075 0.503761641707384
Ni 3.0685990123880886 2.6005275688471836 2.0421724393209244 0.4497448211712964 0.7051443252563663 2.1994918511932315
Ni 9.015368414429558 1.6585883033820246 9.095908443908845 -2.4709219263786024 -0.7853586301234281 0.6122969050063262
Ni 3.7777294253093023 2.366496476771925 4.840875036902031 0.1309228869655229 -1.3084701371123337 -1.0349551543734756
Ni 3.26427770947321 6.142003648387931 3.709223825518252 -0.016426263876823322 1.1972539845471186 0.15000201508416103
Ni 8.90342238462976 0.44091550340882574 11.37507868398558 -0.7289946495114026 -0.39041918682778565 -1.687315760169907
Ni 8.306802824322057 2.5482583101027783 6.920072074631349 -0.49409789336537485 -0.01513454164859329 0.12601850768537004
Ni 0.02934856377613211 6.951015105432421 1.6187794062837393 1.3399887765459053 -0.23831529490927345 -1.049196237673522
Ni 7.446503603914368 7.828221972689938 8.982517949208408 0.5252393519651857 1.0835086378021468 -1.4283879312166046
Ni 5.869110894851154 6.8526711201136745 4.965540691278833 1.091762393170507 0.8026325867125274 -0.2352358846530013
Ni 5.830582571443632 2.5626103652053165 12.17752338136638 -1.5026177363654574 0.09154721338137782 0.4545514985313204
Ni 6.922773964746781 8.049012136509306 11.247662990663324 -0.47476139782029203 -1.1047094402494781 3.4380776046096018
Ni 0.04006167845589765 4.828994313094246 11.032035862924713 -0.12871019558492028 -0.7292820988448344 -0.22383895566996936
Ni 4.298903472729599 4.780660295265053 1.9925041433367148 -0.36565586384017673 -0.031193651993984984 0.18697884941882637
Ni 1.829331462150284 0.8960478748205142 12.23441492779284 1.4115808869615947 1.28129434802849 -1.065229894097617
Ni 8.173958350414887 1.417594149734438 4.302817417046917 0.5107619842846172 0.8405339897439912 0.21617244026364707
Ni 4.016825403927198 0.1871146869145808 11.242187913126465 1.0754986230134767 -0.08353102794512064 0.9234767492858097
Ni 1.1714239968595488 1.8477946865854202 4.913201987106512 0.3516184119105041 1.4546841459089719 -0.19290215688179682
Ni 8.164800813320428 7.494856140524338 3.7467632460322586 1.1830602095452398 -1.986288520860237 1.6026385344354852
Ni 5.407882140807524 2.5241746357016805 6.403467536367892 1.6933889629471803 1.3917340274389967 1.5813372018545477
Ni 6.9668208848259905 3.44167836993097 4.189238030782547 -1.1414106523252534 -0.15658018252231098 0.425058631278526
Ni 4.707751855344161 4.651806618615427 4.891180378944986 0.5514062401685407 -0.3610127086412105 0.27326738550442614
Ni 3.3361953946225094 7.7064332109069165 5.824510263226699 1.323104856306373 0.754096843895669 -1.2305328012049064
P 1.8266277201567738 6.172328151911036 11.674240328055195 -0.06714667304982629 -1.1252353281169718 0.2346566151107636
P 5.053525270630663 1.017857007262391 3.2023499806143167 -1.795008987183528 2.805440702494342 0.19310938779659645
P 6.904579262632918 1.6209766596229858 0.2674537876224336 0.22734516905101493 -0.17487563839738915 0.6798855506895775
P 0.5958380677588943 8.1712360896406 9.007277559107882 -0.5231197345190216 2.0968449283542663 -0.3698403342351695
P 7.87363928254668 5.3348348100308 4.40738556458497 -1.3122362890229853 1.6786406009934123 -0.4285165079201394
P 2.2782359675865096 0.37435437559940954 5.984804199941273 -0.399119542815261 -0.5022097238392319 -0.4385255554167093
P 0.33328897922537304 5.126081853716785 7.104867284253551 2.384069804480049 0.24167418407917737 -2.7135577030401006
P 0.6039918869352136 2.6296205734485865 11.487100640786563 -0.7985699866073794 -0.1902680616930594 -0.28355256948051816
Ni 1.5681610968456456 2.98709785818645 0.45547682073414925 -1.656558424382392 -1.0454915351284253 -1.1568128458129368
Ni 2.6225741773627593 8.344682990402369 7.99645676260189 -0.9657292301971174 -0.6253264844967746 1.2219365748954634
Ni 2.3337923099189153 8.004761509841545 10.487812415009742 -0.7727782223552562 -1.1326465329793782 0.6359515683107886
Ni 1.269332790830025 1.6441158762044328 7.635742394984125 1.4756977720461617 -1.5326662190114055 -3.8393455612264327
Ni 8.134689275776266 5.137535719627649 8.505662122005708 -1.5814991813537085 -0.30052262167595334 1.046478581632043
Ni 0.012120542018853148 0.039521855996234444 2.4494930225213443 -0.09187374348286112 -0.4970708599507697 -0.7698955014908224
Ni 3.2037675932828313 5.358585146377902 9.95432245243339 -0.4173293809550684 1.0216576659336212 -0.7685662411564377
Ni 3.946444777582429 0.7290436578912253 7.103010776480611 1.357131863984095 1.10465287597993 0.5430342140547616
Ni 5.121526233645528 6.581685800996977 0.6431128113276158 -1.8630491185819011 -0.8675714534777575 -0.45433295476261115
Ni 5.89006489530086 8.661094878766196 0.04500248916732626 0.3446890317805225 1.3082551928880501 -1.125723837717616
Ni 2.388283822356617 5.066108782168953 0.1423409046898563 -0.5509390707241351 1.0808524311262224 -0.35115381356925973
Ni 2.7514371134027744 6.947302089886539 1.3742055723118678 -0.5367370681921401 0.6355810723452473 -0.3217097972765298
Ni 2.444182762133405 3.9966769704413125 5.883258317426102 -1.5455183923837255 -0.24681227663669109 0.5356011548154841
Ni 9.085230514912558 3.8705362951755857 5.1510405405096185 1.847087453046322 -0.1273899341116 1.065253548246701
Ni 2.191336588788239 0.5891111206414787 1.1336132762071525 0.32300074817381147 -0.6678571587701336 0.2482425813253144
Ni 5.3621222335063985 6.017437069488288 9.11417629520678 1.4406371808976028 0.567614474497287 -0.7788005172899362
Ni 7.032034771333846 4.877809819223654 1.9337699782228956 1.7807542770367266 2.0789803893690197 0.07923959965861838
Ni 1.021551504027496 8.319710414523954 13.166836465877418 0.47554327029163906 -2.005319569349759 0.1545361555090887
Ni 1.2193413421212485 6.795336974826632 5.246921527984962 -0.5755085325333831 -3.3421083509011282 0.6968072661455805
Ni 8.022835839880354 3.6358014894307833 13.139272186629196 0.4016055424619084 -0.06214536318049296 0.24917486333159666
Ni 7.639061886438487 2.487229668050631 10.620690222722311 -0.7239133783337532 1.6961099614227693 1.0521411792344588
Ni 3.8299709058825413 4.626732189442736 11.978050186099953 0.992409310591465 -1.6038672646362637 1.0992530451205973
Ni 5.949463884644591 3.0608489026327184 2.113984567419792 -1.8416032900032993 -3.2425773479833246 -0.2980106538873771
Ni 4.6470750701267844 1.527864229873874 9.356242686261382 0.15774746335753476 -0.7699276402803384 -0.1997988840016301
P 4.290171867593022 7.79097144515606 9.669797126751247 -0.19600162174272695 0.82281651785957 -1.174722379103506
P 6.740234342623274 0.5535282093166118 10.353864221768234 -0.4636580888182789 1.8881842230866321 -1.875521797127615
P 4.861142916523932 6.22877339572076 6.751877100098068 -1.123838190659129 0.1582303165312243 0.5116641843839124
P 2.834049394451061 4.026519985664203 3.789479591712606 -0.1550678596428426 0.042933051918100255 -0.9453167279790365
P 5.519818911216932 4.305014670386163 0.14998453145575644 0.5174067432946444 0.6309065496877134 -0.31041828352311057
P 8.202116156587028 7.973436992156458 13.454804432906093 -0.29269206988794105 1.061051337239895 -1.1604494141242594
P 5.393687495341594 6.643566306964888 2.9375156745328557 -0.5628394217061468 -0.40084295326427094 -1.2915826173283755
P 3.5056977950786785 2.2192536508102725 12.32299118219051 0.8578092318846711 0.8954357839881933 0.48757346198329576
Ni 0.7656793619032911 8.799291280318055 4.715152886081875 -1.2230940855386743 1.4129739106543795 -0.0026896310170211745
Ni 5.230092585953437 3.673829805757315 9.802511969192974 -0.13577610129276618 -0.10912558858477335 -0.49181809619226263
Ni 4.307792487502784 8.54198208080552 2.2419030456401554 1.2398173118306262 -1.6569294345685657 -1.3384175754040433
Ni 1.1799426360171843 6.135031327425214 8.946225768579762 -0.43292954938617056 0.020310686532894057 0.5824505110688549
Ni 6.693900353118048 0.7875093006837711 8.038482357759237 -0.647849091079323 1.8247024004829029 0.8978605913796022
Ni 0.35247351017179157 5.025737840074072 2.951691801218008 0.3672592037715546 -0.30829223831904323 1.7929775585757959
Ni 7.986529770166128 6.901458848071915 6.785838692165868 0.5224859575897647 0.14414581341370014 -1.283971894860653
Ni 2.6257038513141517 5.971473455598612 7.123095320172813 -0.8998794215818438 0.15154570542219706 0.4593751451722089
Ni 4.647751005625162 1.3277410254021604 0.9435346584291378 0.3844917655997572 -0.3445103401108131 -1.4633173961039379
Ni 5.760433429858581 8.134772610289764 7.101791314766413 -0.15473387334219157 -0.3373588166676964 0.4797490808428705
Ni 9.218223139065948 7.285964293354494 10.975279503597928 1.2497453695776155 0.28595140872999786 0.5161988390294723
Ni 6.200847074308337 5.006385714161618 11.40001514824148 0.30950117102547986 -1.08525441684866 -0.11182807511760094
Ni 6.5678893093177635 4.973024130591008 6.484616833734759 0.8686351188555814 -1.6461140891206167 0.0655163365352549
Ni 8.235357368082584 2.322523631815826 1.96045368944515 0.05672007839986361 0.7363932559683188 -0.028292419186789985
Ni 1.7955439466217928 0.9314761543258893 9.780788513401964 0.5785254649828359 -0.39088121406586873 0.37370650205879513
Ni 7.148129008027795 6.070354485559905 13.118536707792664 1.342537768220004 0.3605843628545403 0.27748168069608986
Ni 2.7833727508535184 3.0477653840134367 10.338862157460406 -0.023552590508959435 -0.20868307386513738 0.4360858356269651
Ni 8.655742951121509 9.15001846946253 7.2209948547529015 1.5116052845760484 0.474121450243448 0.12111952772185593
Ni 4.216207857167813 4.356154283503143 7.575855435766909 0.8485162366185194 -1.056086537035452 0.6827587584723144
Ni 5.569328871625494 0.5192749464515672 5.331431984062939 0.14864961482132463 -0.6883609351504403 -0.9851449157195679
Ni 7.067498236522698 7.4483369632113385 1.6565354965328418 -0.4155594335388392 -0.4567639328016069 0.2885942456694836
Ni 0.983291702941246 3.70049685007687 8.706964046873908 0.44799852790415107 0.38589250260202573 0.15975575203681522
Ni 9.147712881255737 1.1660442910436941 13.463016586241862 -1.3138208599012857 0.4903404832054717 1.9137836688222911
Ni 2.9306526143767258 0.26205278520868497 3.743822463644796 -0.874526801749668 0.3789901190552376 0.644714144994767
P 7.539551217930759 6.225902984700252 10.267659297249116 -0.5314987026113362 -2.210916548090405 1.0854151107962402
P 3.6064492218984956 8.086457111241348 13.189794198407245 0.2919685614583552 0.9197666474240741 0.34485615348600607
P 1.568392581605364 7.36448392385096 3.1282341161867318 -0.8980086869216922 1.0502928131718106 0.5573449742504788
P 6.9865896833059375 3.272222266426744 8.546900668980014 -0.492662446470429 -0.9284600614330139 -0.6080982935439463
P 0.21328450197026044 4.86862450395803 0.8840236304617037 -0.43788329384702007 -0.9668047226494834 -1.7084314591025997
P 3.0506543138147215 2.620546370867627 8.0644206880552 0.8841792372377676 0.4518407844683766 0.9271853084856483
P 7.590737127999682 8.960210225883868 5.377468747136687 -0.3829483323720373 -1.4487011888526597 0.24814462229486942
P 1.011764328386604 1.9148789699517998 2.6514995869981264 0.4019022477667208 -0.1082508992893039 -0.10950045542568884
