# total energy = -340886.94294960983 ev
CRYSTAL
PRIMVEC
9.14154740293232 0.00000000000000 0.00000000000000
0.00000000000000 9.14154740293232 0.00000000000000
0.00000000000000 0.00000000000000 13.37957866596693
PRIMCOORD
 96 1
Ni 6.931358909077299 2.2375765539230397 11.204834855089704 -0.47804675343978326 -1.3963440154071822 0.9781384024947476
Ni 4.568853968563125 0.41965461681316024 5.887389626704917 2.566829216500889 1.138423801782788 -0.04769062120774367
Ni 2.937307157115772 1.7652328004352615 4.57414326788126 -0.7784837573804658 -0.5495966977636277 0.16042603863096241
Ni 3.34131784388551 4.732844187139034 4.70947747786305 1.4627913483971386 -0.23331167104709494 -0.17984609502878704
Ni 3.6728817676130445 2.7872395152103073 2.420753966309584 0.5383504354258469 -0.4867332254701875 -0.12358470143289683
Ni 5.095983015541366 4.680289431211006 2.630813012942425 1.64691678752757 0.34630085635233265 0.8226391117414413
Ni 5.395112729139723 4.091838884360574 11.643551426514298 -0.005783953671628749 0.8783803711678034 0.28601594341934616
Ni 5.6081747740892025 8.24813481934709 12.355947643611758 0.17036669478344207 -0.7259355509701046 0.47151563718948475
Ni 1.9544079820624356 6.657222186035081 0.22721864523303306 0.4639380819525429 -0.21928193242690622 -1.2512623204427742
Ni 3.0311085748540747 1.7424429227993987 13.361235382370666 -0.12381250117298676 -0.9206125403641371 1.811726814158841
Ni 8.278082528586996 8.901325804792458 6.860004560947847 -0.8023574786742698 0.7126059237407341 -0.22185560669135343
Ni 8.888545921545392 2.4629156970132997 1.3217662809883686 -0.29633455173653483 1.5321643396743225 -0.14083371832133165
Ni 7.109573375387426 0.9710882958292955 4.661953315462104 -1.7893052519305312 0.4011751397927091 2.1900864987189315
Ni 0.7469494379109524 7.585098387365891 2.0959374187084157 -0.19869408097322555 2.422064024335635 -0.68348560933601
Ni 7.976384040172885 4.103192686215264 3.7031329762262004 0.36536172963852565 0.2709572493140108 -0.6152809273353145
Ni 7.8097884805916715 3.9866745232201954 12.709837054367895 0.9953851053903373 -0.29990427136566417 0.7375456244052072
Ni 8.08423601624505 7.173198545201147 8.752398113846155 1.4273299222657354 0.4268098096416778 1.0567462821066382
Ni 7.087569670826848 0.9132433264283933 0.2565858662138631 -0.6724110966894032 -0.024982123866634395 0.4722509726936125
Ni 1.9335104047356877 6.624705701979419 9.057212041609766 1.2723960170975956 0.09377533138094818 -0.12118097708741066
Ni 0.43276816653985306 5.15971788392373 1.438665646509477 -2.265510067065569 -1.338338899647308 -1.9609500420954489
Ni 6.449489663212237 2.076758452290429 6.896477506712614 1.1943465810923364 0.35149936983413654 -0.043810569427047134
Ni 3.89506707685478 4.542891973983963 0.6764196573558091 -1.351031664623628 -0.23028625395720984 -1.5874440860832337
Ni 6.5249805615343215 6.157270959438475 4.681072861822074 -2.281459134195658 0.0021748961641317385 -1.3357186884156416
Ni 5.613851675016547 2.8246558686654164 9.30869509607219 -0.6189547766424759 0.16655323457462282 -0.41511488980225286
P 0.13490638556407752 5.765866466515449 12.419874484489249 0.8026585548544564 -0.18667185970136885 0.028726164290098916
P 4.26211848753876 6.218930696563985 12.62505103066268 -0.9447603412549342 0.3564037491142894 -0.7578316283477529
P 2.35498144701465 8.728093481808262 1.077960298021572 0.8764366171778712 0.5704336891136369 -0.07637359096473298
P 6.551500190504092 8.163145853289883 5.645767559408882 -0.6247780681924724 -0.03555192896268071 0.2826956207968615
P 5.083285406220783 1.3337974715044374 12.554834805182912 0.0065308591399823 -1.1923413777368497 -0.5017818922731939
P 4.248031363015349 6.131729476039116 8.245299111347633 -1.5092306136962848 1.2481294312407472 -0.6863799001646695
P 4.850121098567226 1.2998914722459474 3.6898868740623953 0.30588825686324095 -0.5156391098712604 -0.628694115417427
P 0.34493983586423516 6.079988317828533 3.304354911180798 -0.7114898078584198 -1.6956705598925057 4.153889951102775
Ni 0.7957826698977215 0.08794625663691058 4.789246620362262 -0.6244795631154471 0.27015635067927024 -1.3563777594268898
Ni 2.0178228962862543 6.877167816166994 4.761096139338647 -0.23231511146178052 -1.338500364925837 -0.8492140340164922
Ni 6.182986132238187 5.62566255424059 9.07597049684795 0.15926184311953215 0.5142625412387078 0.33655688959169133
Ni 9.146758069039407 2.4302895143889938 10.04095863810588 -0.2583063933192197 0.2291040607236506 0.6487795733133923
Ni 2.5577501096063364 5.397324983607383 6.84424361909787 -0.29929260592359425 -0.19552468210630844 1.2935358844000047
Ni 0.5270961374076485 9.091789944601203 8.79976229916783 0.9101718046467874 0.18687189152731687 0.9127907303268731
Ni 1.420303934427891 0.8331743411748854 11.393527363014842 -1.0422737995220759 0.9231764444365714 0.13468801043490997
Ni 4.263462295004653 7.146048149461672 1.4064746015407936 0.09925023845259037 0.15994344256758908 -0.2138137102234834
Ni 5.782312110264714 8.315416608115621 7.9897224719652975 0.15255460630268566 -0.47473568678867917 -0.23074750986434456
Ni 5.080670923668093 3.0025869470065447 5.006450700432806 1.3003238538561155 0.4120074545215227 -0.8869799399113563
Ni 1.044266382662461 7.47621341643899 6.894764380732285 0.28454964328646476 0.37702682468127974 0.2472871593905806
Ni 4.990699814284955 5.025986187198886 6.644111378772603 1.247121044580891 -1.7491500198678844 -0.4261847744631692
Ni 0.854315997816867 7.379779233053223 11.06654426868295 0.21160667526983556 1.4707275725250801 0.8012097382230718
Ni 4.662426847616751 0.38335444629400756 10.335804622598676 0.9369516438437929 0.2601658151254616 -0.18339935959768414
Ni 8.564267811085319 7.259869555977567 5.090407585790017 0.3256728956893359 0.27672654769762023 -1.135090880754813
Ni 7.082633235237852 6.365570258199313 6.900637824928451 0.27417472781004393 -0.45161838404492544 -0.20212136148721965
Ni 2.4689674013835123 5.62879810499434 2.451259309940099 0.36769937663276675 0.293303735330011 0.31781817553160746
Ni 2.597269018960462 5.195324210996208 11.446148852238798 -0.02939413689140099 1.2982425458470546 0.30961095713046677
Ni 1.603756507390785 3.598606695093436 3.5654164789953504 -2.111144118585758 -0.36899778372921616 0.09875761508688798
Ni 1.5405518487568677 1.2724851131796349 2.3717040796497426 0.3953832157012803 -0.07186464735078592 0.24953661754638956
Ni 0.8926693598791464 3.3088013598298485 8.048271340515 2.0400047794367704 0.37192395623707564 -0.9869536867935325
Ni 3.8226203138125765 2.9055677045880084 6.9278659238207165 -0.9561241030071858 -0.26305393530653404 0.9224588495442564
Ni 4.2710589208832745 7.1358918903146815 6.153656391601643 0.6081551149238106 0.20798090559179017 -0.5426688602955428
Ni 0.30252305598842155 0.21552386366080714 0.4071782329393433 0.6484358168207284 -0.3818736112506197 -0.24858479515608156
P 0.3910488867296697 5.551268641604949 7.729944377403885 -0.31459144106419373 0.49555416619592724 1.2367476717663668
P 8.56420382025361 1.7066903309687291 7.84296224190446 -0.11450922149418988 0.07909613210221861 0.18618720675546643
P 2.2136074166742503 3.2646659690452737 10.163823777451764 -2.127718220894355 1.0662439371844283 -0.969709555001104
P 4.124081121994625 6.339845943852215 3.649012273230774 0.9805197582427306 2.047539911471551 -0.46673801329518333
P 7.207113686007023 4.073811752913354 10.148905686270872 0.8667443295907719 0.2959465722694967 0.6668909382021224
P 6.685606690671804 7.680051640074959 10.324713183153992 -0.6979534639348819 1.54493166664232 -0.440344610903319
P 2.7927153020951376 8.62124707594867 5.6238653260242994 -2.099842063309377 0.19228663478498498 0.21991288114268578
P 7.195010277266597 4.2439176666911855 1.586243130906715 -0.23582106773251 0.05878775956216972 0.0944949831557921
Ni 5.706062463509507 2.903903942963569 0.4585500726354904 -0.5188216213643 0.9460988575606996 0.050124427460216905
Ni 1.7840552465051538 0.9937044840648047 6.699302556967051 -0.5690632911286716 1.5366709692954246 1.2290384760475672
Ni 7.1537910400984845 0.6393717082603975 9.290337954764297 0.4215025384961515 -0.008548403790643342 -0.013542514571125066
Ni 2.7412026825692304 1.43307467612757 9.011507047138839 -0.5596926485470489 1.758484667005249 0.7474729108212482
Ni 6.498012996742586 2.275120889041567 2.620056154132109 0.4281221006951982 0.03462144672861134 0.04241780284457856
Ni 4.4558918675016095 7.046094470331899 10.183183746508012 -0.41203342266345167 0.4688185499732958 1.1493569037555238
Ni 7.934680300993259 7.0857413613494415 0.25881457546682074 1.4585390008786883 0.7145663899012145 0.027067545640753383
Ni 7.750514687334176 4.073190127691036 7.931494471728879 -0.05135804275700188 0.020761658027383598 -0.31865918337566407
Ni 3.0551142782924128 8.545207684783364 12.316263272249929 1.2704527773282959 -0.786000377472485 0.5948568551530078
Ni 0.20704325014986052 5.380102308330221 10.210518801504708 -0.8977698314380087 -2.1686882355488133 -0.5323325113665413
Ni 8.652648291223114 2.763562907477903 5.666465851002592 0.4362323885071584 -0.46095688783703187 0.4958393015365138
Ni 3.737411950618081 2.4414513437485557 11.252840777037948 0.6022929997160789 -0.010772150914839513 -0.24962326372292493
Ni 1.6286946486625993 3.3615115220634566 12.429922873377071 -1.9910334917443906 -0.23186259730539424 0.526517447346661
Ni 3.3643088355638877 8.661625290757176 8.02401424452352 -0.023582929526262612 -1.7860083263468145 -0.5197911843664209
Ni 5.374891626319615 8.267725155397493 3.5000041366674655 1.2552963813028317 -0.28557165679307595 0.5353126770407878
Ni 2.955955913785311 8.544960863003915 3.341295904171781 0.32450150108905407 0.3471156389441441 -0.7963202713412544
Ni 4.008175442674487 4.587712980822565 9.708289501299253 -0.6731541455030149 -0.6422890804930422 -0.5841309840950714
Ni 7.0610957495940125 5.938093219287072 11.532434089715485 0.9499814804445575 0.34718043074380855 -1.3236136776219913
Ni 7.976246916962079 9.078470710058303 2.942544349613801 0.6415961681910757 -1.998199156254894 -2.3658707649735193
Ni 4.908581294107276 0.48346901665779224 1.3359109972603183 -1.111201475731725 0.6442402906821422 0.2475175302338318
Ni 6.115174133721207 5.645444862786119 0.21242122247764955 -0.8368146319108749 -0.1969084498277125 1.4326963287839714
Ni 8.048922218688958 8.723138763124494 11.868408810057261 0.13882465831110286 0.0358378356342157 -1.5297441602686042
Ni 0.49211326386696663 5.085378820572413 5.600344124597474 -0.5545057050294708 -0.3435091525398084 -0.7592891867298859
Ni 7.338651411358981 6.425941037143251 2.5739361334098096 0.2960131638413741 -0.3240438447263451 -0.8758090108962012
P 8.811117015177258 1.7883974815139925 3.532931076200805 0.5151140906057258 1.1577060470511675 0.4901900736705364
P 1.902200604935114 3.5582284802849293 1.4111303916250073 0.7688485482835469 -0.9813679651756388 -1.511138886462591
P 4.86804767299319 1.3089690288012672 8.043013122457982 -1.0435770917145315 -1.7486828504234786 0.5771093013615997
P 8.643287346698797 1.8428262546563619 12.43738877512806 1.7559361895517822 -0.2967922080992437 -0.5571948218258597
P 6.512849728151735 8.220344515290522 1.4382515344128446 -0.026338895004844962 -0.6993755410933891 0.20870724223485349
P 2.020675059071007 3.4368104478904127 5.7298981341664454 -1.082735507081548 -1.451763115607435 1.780575585367017
P 6.855136686964253 4.3216848103126395 5.649098739276715 0.5311109802546143 -1.3850702422655758 1.0466439035653137
P 2.608677670099474 8.62696968461295 10.164666628120848 -0.750579831881346 -0.8090284629365422 -0.8560020034726031
