# total energy = -340859.13665223855 ev
CRYSTAL
PRIMVEC
9.37079493628150 0.00000000000000 0.00000000000000
0.00000000000000 9.37079493628150 0.00000000000000
0.00000000000000 0.00000000000000 13.71510560371944
PRIMCOORD
 96 1
Ni 1.2943597859569047 2.6377288291955474 8.647922402632382 1.991502460961009 1.2411959373457075 -0.3819062642607681
Ni 1.7909369488390952 3.3543603685112084 0.7868037997800138 0.3637943851514057 0.2660700964250386 0.2644698418174542
Ni 5.045667026065516 0.09861637127754366 7.971178588851224 2.414304177884558 1.257458679061473 1.2585953637690777
Ni 0.5023701882840201 2.8775274704650835 10.701375610796104 -1.6301863621467667 0.40661765096451913 1.1680670785705172
Ni 6.165551981940456 8.554579914719689 5.1306704436044015 0.515938386279234 1.9813987968681037 -0.2439933191306572
Ni 7.064867167662901 2.6849576354479296 6.439749874176632 -1.5664651698387217 -0.9830157851917071 -1.4524637412188857
Ni 4.172243346627859 3.0073973168642434 13.257692848134617 -2.0371626820022852 1.1043119477007433 -1.0218083325788725
Ni 9.083177083745607 4.179918027643871 5.161021511177982 -0.19113966566473534 0.7141231317162089 -0.8784251083628097
Ni 9.234337376137905 3.8759294413686174 12.88898955233973 -0.012654969759849173 0.4130816614223079 -0.7897400470205753
Ni 0.6297633335933973 0.6882567723846661 9.505432598185557 -0.008278695069024452 -1.5741036602205858 -0.5289923912497149
Ni 2.6383754140430504 2.466149574735008 11.058091785765981 1.749283460121955 -0.5503608296231618 0.25226764332430746
Ni 4.162310304043033 5.762223599022047 9.194277227977402 0.02939079445729132 -1.4843778163186627 1.4047692633564
Ni 4.314838732489466 7.16179867001898 5.344776239440846 -0.06261664638995668 -1.5727268344777174 -1.0758560063528957
Ni 3.40597470677274 8.570641457163456 6.88200641323267 -2.760569038792633 2.284262150862092 -1.7968349846486733
Ni 1.775484508063266 0.40418581065096754 2.9836938911865842 1.2024661248756774 -0.1601599294537693 1.1576898491012513
Ni 3.2843136766983996 7.226400929999917 0.21353605150705054 -0.23930105586131045 1.440385984118745 0.955129343194084
Ni 2.363323842392272 5.526904197710573 12.64420283694953 -0.07502247625347724 -0.7997490945171453 0.2949199307771953
Ni 4.511550458848594 2.09771803199197 6.792446915217612 0.008782631288636489 -1.0842002645525328 0.34914861021377286
Ni 6.058162672485635 2.0121814162237666 12.152762743826775 -0.3098906931544147 3.5694596905997305 -1.8095300636178386
Ni 4.134038615855843 8.837699740771916 3.423139191775218 0.10213218798607572 1.7082658800590127 1.6861826750067284
Ni 6.631355454399467 6.206858445821507 8.912350304114844 0.606926127612716 -1.5895336216224107 -0.975391950097862
Ni 2.7920564502611196 4.08666924768009 3.1222710801987823 1.1577957785514965 -0.40969937521363636 -0.8748451043210351
Ni 0.0028402879315668757 6.762462245724284 7.136751472353902 -0.7984046646741089 -2.2352075594272858 -0.4806019157614691
Ni 4.8571266328516405 6.755565340684254 2.763593597858146 0.7054508007531916 -1.8147190640179458 -1.688087862449241
P 5.870296976503935 1.5845264497674236 9.363233596947852 -0.9700263149105746 0.26515041282424656 0.4184411259620084
P 4.818050418154729 8.500463574222167 1.4787076855363919 -0.06194841667833847 1.0273801702396952 -1.630517006013308
P 7.674240588652219 5.0499213669461875 7.220070020971324 1.2519567754066374 0.3850661500459885 1.0600151826658968
P 1.41939430219213 8.52388119065564 1.0259877169046776 0.7026662960295188 -0.225237892900025 0.16661262705764854
P 5.074810198177602 1.4601385183797013 4.601912096906352 -0.10783746590096913 -0.84237901337253 -0.28041865183722675
P 2.545435870310684 4.104876702153975 5.1519974356976155 -1.4331503856022545 0.8583905583094378 1.3545268222610802
P 7.786802576887062 3.5336705287571077 11.237183606490913 -1.088505576796106 -0.3846630010702988 -0.26470072688133767
P 0.931069998370748 5.369334281612596 0.48445603969023465 -1.1248270369349596 0.9278147145395311 2.1429946874374513
Ni 2.756203789006831 0.6907681454155469 13.147286142724782 0.06418604775960558 -0.2728729782794849 -0.22426138791936862
Ni 2.7262640993289815 6.411479123068931 6.9822364353905035 -0.46713216340980834 -2.4302727853986723 0.9952058994999957
Ni 1.8529716110198033 7.187783884252681 10.573811917019704 -3.140632850528023 0.3361285438050211 1.5977804350122353
Ni 5.624444801734591 5.405346246380038 12.662553664585253 -0.3176680231069884 0.8073755007141513 -0.19395090986128533
Ni 5.212842006927122 4.800901863503566 7.344315516276699 -0.13639830825779736 -0.3742173802569426 -0.5976143632934869
Ni 4.215761318103269 3.107186911662183 8.87662227443261 -0.031758523358519496 0.22148485361549597 1.2626787898098317
Ni 5.082306834090677 3.4614029585550496 2.346078768553728 1.4333342194782863 0.009335161357996826 1.2362036263374385
Ni 1.172164620573757 2.386966357903137 5.508397814879655 4.629099492204079 1.1320590359070246 -0.8547285360768182
Ni 5.112490164435702 1.0728997902897324 0.31833339909492586 -0.1556414727581255 0.6476308044209298 2.1915062618845935
Ni 8.558375086650683 6.368251646235154 1.767246642274284 -0.7234811758923412 -0.3123610090717782 -1.2019321067490785
Ni 3.8187863341211914 6.823944031006404 11.464265142013403 2.209999178482459 -0.3534094423726558 0.6224185668213603
Ni 9.156306767077668 2.869890272628637 7.117440138241817 -1.270914547456063 0.7055197063179139 1.612865868590448
Ni 5.881972986938552 7.894904066753627 10.166747398178115 -0.2522977252312945 0.7136101966355323 0.928981995374755
Ni 6.85623579020198 8.12444168761714 7.354478143336363 0.6460706590226615 -0.9798520427517446 0.18648365494996272
Ni 0.6224063225242018 1.2451350003926658 1.3313481875520246 -1.3201020649243072 0.8828949712087052 -1.4761466866581223
Ni 1.4268815673103152 6.251575879043009 4.965073504602497 -0.022502809088206406 -2.1400947401818367 0.2409401341266302
Ni 7.024769536322832 2.4000573583663467 4.1203057159425756 -0.8106901669096813 0.2903636788650806 -0.06388625713099964
Ni 8.836940706385716 1.275149656429646 5.177369799945423 -1.4165251183407475 -0.10956678988725001 1.0084080000125664
Ni 0.4587163402826863 0.04826521616736506 11.77777820421622 1.3727086353764295 1.0485115529016718 1.4649163651599417
Ni 4.579563688169982 3.5115085988390753 5.096052853116793 0.9457430168831775 1.2322407850349488 -1.7649756740462315
Ni 8.343915074767347 6.7555372282995805 5.066236857931509 -0.9836508476725447 -0.7598653709483301 -0.26169613572705896
Ni 5.837958363333901 4.198856404119281 10.432120812865112 -0.29922035792476215 0.26691933179921123 0.6819627449335804
Ni 6.519683691679299 7.436269252386495 0.6730320419246969 0.13130263890244487 -0.6511218482933238 -1.3614333195729262
Ni 6.307585120108582 3.453297220974036 0.2691779574128829 1.5958693340324515 -0.005985785269789691 0.7017085601019399
P 0.8367819972535169 5.043389922906919 11.194899768702694 -0.7180548626704473 1.4480039056753193 -1.8388264985891107
P 2.290803260728148 7.977385803387252 4.269841112500714 1.057733842830888 1.7300145845900143 0.9044878668881325
P 2.723490344041143 0.26458907915459096 10.846508607914286 -2.034994727816689 -1.1593415257720616 0.35343695317648166
P 8.854192339780685 8.351055620474552 8.408443305468642 -2.5420756637052926 1.137832448055692 0.7151145490952007
P 3.807766279328969 4.342323273905783 11.465389637400365 1.309804539653041 0.5717930313550088 -0.48521987414945467
P 9.069074037434133 2.6725413322168965 3.37251722069268 0.6491464697345078 0.5144222067450237 -0.07983223893729477
P 1.106287932487597 2.0334718622169037 12.976779844279303 -0.6220578410478319 -0.29941499043407144 -1.4254100795352032
P 6.279519589409002 6.645224230838659 4.222579508466211 0.8199556513720072 -1.3171069868517251 1.1438953664203204
Ni 8.67450734773913 4.634111085232505 9.268161260298216 1.7807475921685072 0.09564709448236432 -0.36206197584133126
Ni 4.826699661839441 8.711409538021249 12.795589902578199 0.8467156930746709 -3.882840913405907 1.3721525057626431
Ni 8.734367985505047 3.5731028336598905 1.3981038561989927 -0.19967418549830773 -0.8819056107122425 -0.5335522427062553
Ni 6.713518584006786 4.7680572274093995 5.446652710261089 -0.7568561518083611 0.6710188443275669 -2.1254214544403784
Ni 1.8830706042108056 5.376231186652626 9.15771332339086 -1.2249085130395938 -1.0338112705770195 -0.7730669572402686
Ni 7.804363446513444 5.772269091145569 11.086454370663617 -0.09558384534459669 -0.49860272321426385 0.7103438671794348
Ni 0.7388581277184437 4.969266935316375 2.773619411312397 -0.5475385296830183 -0.05243867741569033 0.44537240313521365
Ni 6.998343894729237 3.3287780984578346 8.52669524036151 -0.8445541666469777 -0.49011114080348495 1.2104689405754958
Ni 7.372023082611429 0.36632217681299617 12.207280154345646 1.0326357622116795 -3.4906934310331046 0.978612771028005
Ni 0.12018512987895402 7.042948878412043 12.482844308476983 0.13118873903239986 -1.0628822198010468 0.7031311514810793
Ni 3.7613995862065903 4.976351256254232 1.0544327647973575 -0.15350077226603887 0.31244559836578445 -0.4953842162769662
Ni 1.4503366669233535 8.019404447680046 8.311683288659074 2.2692445944073367 0.5398393612665476 -0.14356731520241084
Ni 3.5001793078154386 7.9872626212027305 9.437707052267333 0.6614319719700802 1.8001902742741511 0.8091876142222258
Ni 2.9762394238505188 0.8232861784510009 8.779492111224833 -0.5845282195334901 1.301438427076533 -0.33304013468768445
Ni 8.689575585924414 8.605051016004476 0.6729092845116202 0.14718048647496587 0.7068700496982213 -1.0571550875092826
Ni 2.5988962551658106 6.587312718410142 2.6573428399826233 -1.1816900686705907 -0.10360157344275062 -0.6852100482262844
Ni 0.3156074348610334 7.770413056622099 3.326914247353946 0.3246082018702474 0.057331743841933513 -0.9038553755104562
Ni 7.374984253797094 4.444361859477646 2.9997957280483836 -0.6956692958863955 1.5412115374782553 0.3005994976604759
Ni 7.984835585325872 1.475422284847486 10.311140102499882 -0.6459559878216682 1.441809346828833 1.561763393487678
Ni 7.577871333989619 0.814269599606548 8.298667254554996 0.44988906005864454 -0.3379555697114309 -2.484063605966883
Ni 7.448685555617528 8.465651071200819 2.6089970349791924 -0.5891124964700628 -0.9864554070008754 1.3126018998925202
Ni 8.329221668377716 8.140868691061668 10.588939191212804 0.638027734113527 0.3230308300807985 -1.949759315585952
Ni 4.7892071114791674 0.471603994496754 11.07810218117696 0.0434362168067639 1.7574289720472247 -3.3372397099549174
Ni 6.173760798265275 0.9567956415859593 2.417698816828794 -0.5651050778118719 0.34511994867035406 0.15315444467021366
P 5.907217908375838 5.396350283284345 1.1413806222761975 0.4219964474134345 -0.31269448115179693 1.168970307111077
P 8.259624774719692 8.853620721292312 4.629822072410736 -0.4089789521078441 -1.6860939719476642 -1.0494170954350763
P 7.388347007312154 1.5648477804955978 0.2576218931528754 0.5337810708876097 -0.4571449702901094 1.836624348731469
P 2.6910580229221956 3.9476628762618686 7.527906255628964 0.341592909353702 0.6009585971753715 0.30146441676393243
P 3.526726769742621 2.3025167543423297 1.6499823891629624 -0.9750512789289918 -0.7390057538905015 -0.03924197621975822
P 1.5273739717251065 0.26273272468661535 5.939230417883652 -0.11706721202935323 0.12080225359175324 0.08425839302944844
P 7.009973051189397 7.483057631278984 12.116184783047897 -1.1728866114463476 -0.09921784255275815 1.452610551209395
P 4.70203997739987 7.3433671918336945 7.9362320834629285 3.2126273385884545 -2.1706443308339196 -1.9080768482455008
