# total energy = -381168.7617323243 ev
CRYSTAL
PRIMVEC
9.20642887880500 0.00000000000000 0.00000000000000
0.00000000000000 9.20642887880500 0.00000000000000
0.00000000000000 0.00000000000000 13.47453926422210
PRIMCOORD
 96 1
Ni 0.9488053401536582 5.285548839619223 2.064541646333245 -0.7502844121281143 -0.2656335231082522 1.6608225989753849
Ni 5.888183252487368 4.625908219954667 9.668224132742408 -3.7499878992972064 1.9259465294370701 2.333650214376916
Ni 4.953436129029143 4.848528873466301 12.566678571048351 -0.45477749849919746 1.430920467830471 0.4972235834785501
Ni 9.062513852030161 6.641057376064599 9.008659005793568 0.3610972979352168 0.3472436798815762 -0.0819665116714782
Ni 1.3973793743830496 5.582861249548703 4.685852198163988 -0.518373735193604 -0.4218702062482154 -1.505052313948879
Ni 2.7230959074057517 5.0060416628848765 6.4857136212586255 0.42219107992274385 0.576720036342981 1.3477427094597112
Ni -0.03930684753186082 7.49678572159427 2.551039722496819 -0.2587481088423286 -0.020627703552680603 0.016919915683790213
Ni 3.9542900364913147 8.406325643145426 9.53304798074784 0.16979359588879148 0.2474895052093738 -0.6611501790636033
Ni 8.010255872055557 8.837600797760723 0.7522913566375958 0.38186409816892297 -0.036153309992105476 0.055805537005394215
Ni 5.374860404886019 7.404251906266307 4.1421269609140925 0.9536525015382414 -1.2313298431849051 2.546284559580318
Ni 5.151576888504658 2.3195965483177097 9.550443527863768 -0.14788342607926144 -0.33934319408757685 -0.16040315581282696
Ni 8.988558609912012 1.264806800437905 4.839960450232222 -0.37875563444692834 0.22178053047904386 -1.1583979309118693
Ni 7.21204008690334 6.422846601922389 5.840256425720449 -0.6568335539661204 1.1957619733826246 -0.470040595305855
Ni 5.851062931782728 3.0146635057976083 11.814678137559135 -0.17540708542082695 0.3446725767202903 0.6057107671483762
Ni 5.131902750274048 5.009834711528306 1.638260979312754 0.9555057526968963 -0.839434071811593 0.20842647776964107
Ni 3.976661658344558 2.1809661442575714 7.301610352817902 0.08432267060848059 -0.1330910982614353 -0.5814346682098309
Ni 8.632656487441775 1.679372286878868 7.255311222653311 0.24433810406458562 0.49863306223156706 -0.17714540826817235
Ni 2.635441499313271 6.5104825971573765 8.574913766345668 -1.92211121485138 0.3314712475386678 -0.18575011921804782
Ni 0.24052347485147746 2.1095887021883555 9.639604107699125 1.045139036885013 -0.5684534254588145 -1.097155282051304
Ni 6.662535974329461 4.38434073608337 4.695351391344307 -0.8777694770566817 -2.1903178980034474 1.3763009807133781
Ni 2.7358007790754946 4.183419635126507 12.033921873006667 0.16609866353570749 0.43602490048204257 -0.7539353786171403
Ni 9.127023298254718 3.7873038318929093 11.210627775949826 -0.8131651108127349 0.34941240539812085 1.0578891374618298
Ni 5.691303773750082 2.1913049637395434 1.2422096210803801 0.7344371606832126 2.1532927269293496 -0.25531542901169574
Ni 6.137152705070601 7.454979328657817 10.282528614689225 -0.07584265816192745 -3.0184056915642854 0.6597368436558444
P 7.108292841362518 3.389981986493561 7.060159790591684 1.429868886637505 -0.36032236744240526 -0.5041791888607768
Ni 6.171879354301232 7.389401936698702 1.6157181178848317 1.5297608724391525 -3.128552265214405 -0.36133255387447444
P 3.2398803722156693 4.764290050438657 0.7610890199474556 -0.540275934583334 0.6632571981042771 -0.20832697607729928
Ni 1.5752107520444676 1.9713541745643035 3.485741734454188 -0.10839976616234234 -0.9525772661961918 -1.232791001111464
P 5.233348388628323 0.8416894623346051 4.255380764778231 -0.2592345615604439 -3.313034830573939 -2.07582975955518
P 4.748215625847808 6.17321428646943 6.056913154690303 -0.09316932236583308 0.10155497532636704 -0.5111041981153843
P 1.2428402614494942 7.875786773788698 10.70895750521253 -0.08171608622356895 1.2621321732777424 -0.9692346722472145
Ni 1.492251622612544 3.07367671406069 5.617710344281658 0.45418768743399845 -0.5407438753586881 0.4558720171149568
Ni 4.663350765665423 5.231194084301714 3.90789884203926 -0.13237016093501075 0.6645918577553006 0.4016610782901921
Ni 5.729832678052889 0.08297293907504288 0.6139242564395987 -1.4939047819724918 -0.11784471362532609 -1.2102023171776706
Ni 5.247167238176354 4.286724972087511 7.416454106926508 -1.008097410750683 -0.24756869518674135 -0.9080501303180942
Ni 3.58073919011463 1.3087490848434726 2.2567295289814724 -0.4377166863621687 0.714157327388254 -1.4559421866857893
Ni 3.147134809026545 1.0518528971097698 5.17016743007184 0.6910392533135518 0.3774574844607951 -0.6122938196825326
Ni 4.460864571821707 8.461711518482508 2.5794710157508054 -1.3513859626392533 1.0781306613196853 -0.7332845351360081
Ni 1.3914136085555182 2.29709603646202 12.323638058577664 0.26096337132609254 0.9921221183683494 -0.8417681192614085
Ni 7.600155503556498 3.5415566293708434 9.193677842377138 2.543671547437503 -2.968227785158314 -0.38790696192889323
Ni 7.3552737053365735 8.752257203283536 12.069441195752345 -0.7541282113542368 -0.5371579577796427 -0.12721921286169058
Ni 0.710502455915762 9.043051461660713 8.471523730240197 1.7127216018375213 -0.25467059633884526 0.34317876578358314
Ni 2.806561390418716 0.13347296267652226 11.452590215614332 -2.128811968179166 0.21203167862239614 -0.577352013500025
Ni 7.0345769663917705 8.73272116148412 3.187226964930456 0.9116563596121139 1.5743612847573467 0.512933023794007
Ni 4.88007009835075 6.428895225608635 8.312254354216849 -1.0301281652984775 -1.0745989940173428 -0.10036506878332392
Ni 8.211269037299884 8.691872237137272 9.832896761796896 -1.0681483532959928 0.551854640559869 -0.05468145070328002
Ni 6.7902475538966165 6.386205015512549 12.751724106275285 -0.6408785732987609 0.5726504942592976 -0.34897968873607643
Ni 7.709923753497328 4.235362306112514 13.341639837830567 -0.6260078268345155 -0.1353994346796378 -0.7249251074277192
Ni 5.167844648099177 8.877483047089221 6.18073041489782 -5.628320426400739 -1.4423968439011867 1.2822675105750367
Ni 4.121441956807152 6.842834674894858 0.6093983760679713 -0.049904083919294705 0.33479979769126855 1.9691140659634796
Ni 2.918861408264749 3.851058350960279 3.226383747673754 -1.2200380723211697 0.46497423652654113 -0.5844963378542902
Ni 8.8047890857093 4.585363107756442 6.244114835529593 0.21538516847566133 -0.26647735916578624 -0.2484914641113269
Ni 4.9314511771832406 2.7183914223164485 3.4120764948415436 0.14772684589673912 1.7554366242075443 -0.4372441176011244
Ni 3.8926161703205837 2.000888397982083 13.186250971523737 -0.7717343544717742 1.4196281827461035 2.304880855553708
Ni 5.908575492160181 2.1491947586544677 5.631346906540516 0.8540644201302582 1.6967982457390454 2.062455652241119
Ni 1.1652208606903611 6.8042229127333345 6.59825300625206 -0.8085078145463818 0.6083152946507588 1.1692459293699669
P 1.5543858102205843 3.13163118301796 7.772774201261822 0.2918883430397231 -0.8446048173792551 0.18573726370224142
Ni 7.1023178691062405 2.136655602702156 3.3302589625741477 1.6812996358828138 -2.7576202405769545 1.6158743163994687
P -0.07309720295900422 0.5118332474302163 2.278840608901198 0.9479307685631158 1.2425097710611246 1.9750468865081472
Ni 0.8796217900546597 4.624462810641514 13.487878434606555 -0.26937087866349735 0.21730372565461287 -2.745656897567491
P 7.2557798298764915 1.6432922926225473 13.208336273442974 -0.12346385958431641 0.2353256161533302 0.8038273783515768
P 3.134374698784325 0.06513732466504782 7.317645189765143 0.02787590047466167 -0.14914609484176894 0.39193022415567336
P 3.344631118489826 9.218673296423047 0.054211135029068803 0.1172001380627917 -2.2871572130216995 1.8205490404361615
Ni 4.621728501303895 7.780629126268073 12.142162776418504 0.5765930238468134 -1.4020174116428759 -0.6006444083690623
Ni 2.1052340613914073 2.989723290324178 0.9668167973527055 0.5080242736384799 -0.7076964022542586 1.7252346467028676
Ni 7.306525665125495 5.53412241576637 7.999523938066124 0.18071744189014682 -0.6496642899111909 -0.017235904262312248
Ni 6.3358458502708865 0.9289654862056175 7.857233057936501 0.39935505586483483 0.7346091674847025 0.3262987021987928
Ni 2.734742039769683 1.444580734564769 9.077783634748592 -0.7360860091405452 0.2731843388723166 1.1674829239322733
Ni 1.2021110206763468 0.6537485052669955 0.37024665909967625 0.22604161974824297 -0.8405417030534749 1.1436876212848883
Ni 2.7969774980939315 6.376243659609171 2.8187930516509048 0.9226318847870111 0.4826942795141235 0.2049050948799439
Ni 6.554167101558051 7.679082217197589 7.919767725195 2.0295673861535306 2.383847661166914 -0.6354471178705443
Ni 1.1522674154444708 4.554853002891567 9.284388784813354 -2.0225081653139036 -0.46455514671125153 -1.2580867995637752
Ni 2.5502636205535154 6.672515743090332 12.524072139453855 -0.9270729512775002 0.13217732819791428 -0.2606450687547253
Ni 4.96064476273741 0.6915924512710865 11.70566849734699 2.774532700061576 0.7193897794317868 -1.069650648873132
Ni 3.692726189383293 6.051477679158551 10.54080852866348 0.9282327759135561 -0.22580147871297887 0.3477303897100076
Ni 8.10484272099392 5.591588944000092 3.7206566529134864 1.3758024438104046 2.4675167573517953 -1.0227640116239223
Ni 1.089774177115329 5.871851047891626 11.019935937972853 -0.8155315541623825 -0.489533413923144 1.0187934570119488
Ni 4.054612490538553 3.5649961969586443 5.358581597577004 -0.6696085942436016 -0.17359394347148813 0.1907758545674134
Ni 0.3765410944334468 0.5351503695156933 11.430977203489775 -0.33599664621284714 -1.2967785597070183 0.21249524852237597
Ni 2.7969682916651855 7.637671700697224 4.948632214509381 0.6974983786753343 -0.5708887743731845 1.1565269391414017
Ni 2.2193201264142015 8.898142273195674 3.1606415606400815 -2.0214519561352478 -0.48004707169926364 -0.3442689135239684
Ni 3.2667723505832917 4.060983339230918 9.073377437950665 1.9726249073302158 -0.555895643398462 -0.10852549310692923
Ni 7.4535707450596504 1.6745849439308491 11.080814368699913 1.2901728814650426 0.02130467501504718 -1.5926675392657024
Ni 9.013572476815412 7.859049486328123 4.864281993693909 -0.04845783839107139 -0.46630606796408725 -0.6997666058842206
Ni 1.2157917737931863 9.292969176404805 6.180973464616719 1.027595628684611 -0.06503194069966865 -0.09952714626306085
Ni 8.920338972902739 2.8544072006126684 1.346804778708726 1.369171054536816 -2.533378135931295 -0.39478466288533304
Ni 1.6756989218091383 7.4742115583086095 1.0565343661272077 1.2368104066835022 1.0595343863747366 -0.10340745515407351
Ni 0.06253098468700126 3.6365853868890228 3.8182263847656146 -0.7286830318082547 -0.014867661140451814 0.056481737136812406
P 7.861397125658402 5.948660282921095 1.3962451423615192 -0.15627473546675022 -0.31368384164825974 0.15372908622676107
Ni 7.238140312398791 3.887709143798864 2.1996910996844483 -1.3537534344301654 3.342888680710578 -0.09010945249358673
P 6.088413871288267 0.23154536553819238 9.928808415831835 0.29512921857452395 1.220176654781563 -1.1599614187442473
Ni 7.051940291007085 0.08127619425711996 5.606863329932896 4.3068497632636795 -0.010976039395529484 -0.750409881962385
P 3.6551363408125965 2.365978536341018 11.197287660696595 -0.8122006900169367 1.1339457114067761 -2.9282440456765246
P 7.740986244086976 5.348907482250507 10.47499913469996 0.5653681016652714 1.2304811220313647 0.6069073585596387
P 8.533576901275271 8.275097207797224 6.944426695466197 -0.2625317442544769 -0.26691753202699836 0.7341756794917097
Ni 9.067577387840565 6.788608809579794 13.24975691701496 0.27741123246947064 -0.029577713657116807 -0.5207597189272773
