# total energy = -340857.39158197347 ev
CRYSTAL
PRIMVEC
9.35249205951028 0.00000000000000 0.00000000000000
0.00000000000000 9.35249205951028 0.00000000000000
0.00000000000000 0.00000000000000 13.68831749348032
PRIMCOORD
 96 1
Ni 4.169546795082614 1.4492902548694033 4.067675708615913 0.5747690832641972 -0.6461724747078483 -3.7966403090484224
Ni 7.988543476054022 7.395922805314556 10.73556965480361 0.15140352341737795 1.5142370657719406 -0.06293829139543354
Ni 0.7500670718394049 6.324211367127765 10.095216669422735 3.070405481670344 -0.05286933719520572 3.1405631736323527
Ni 4.4120101563849214 7.703928432229459 12.526261415875798 -3.1182128309616104 1.1929443014281713 -1.206447478120929
Ni -0.35723621081303997 6.484868478813436 2.433207977907998 1.4964897690908487 0.14625720332974812 -0.7882544636139843
Ni 0.35640290375452366 7.824659754545813 4.125700440966608 0.13240409949673973 0.15820717660277267 1.405332849169354
Ni 3.190415677572063 3.5364578904239563 4.560509028159579 0.14602811803807753 0.11295756073635385 -0.22263053718416498
Ni 5.62669314343298 4.457650318512414 0.6470587223164116 0.04992105320015919 0.10484264493870331 -1.0562919681780387
Ni 6.395000380886575 0.3229574562577762 3.029923169749803 0.6214896272491878 -0.4729726813509854 1.3344735031546306
Ni 5.360446394366286 7.917109140330704 1.2488251952166298 -1.1260624520039575 -0.07613782080484308 2.597443598952636
Ni 1.3041489278086325 5.019510642277018 7.626309293388331 0.5098775247971348 -1.2719561013466998 -0.147270732195927
Ni 9.151871928216412 0.809406764598937 13.58618964909037 3.0721013813155285 1.9103198786434068 -0.762246469585997
Ni 6.233389314992501 9.464535096266458 7.656369138694473 0.4136671016121327 -1.9387076857574805 0.28663300817805476
Ni 3.298287323059461 2.553576423525469 8.279420013432755 1.664028250396876 2.3563923931694384 -0.30568591104444776
Ni 0.590493914004262 5.844886787374458 0.1422392487189348 0.5480404090201012 0.2903189416700742 -0.42081605395208815
Ni 3.003225545403667 -0.008436883249018727 7.567764562469136 1.1999209898563208 0.1264388830522403 0.5105249285731466
Ni 4.3107600754029045 2.074036736450659 12.959729790930885 -0.010909962044284438 -0.1148447504567377 0.38685538073592735
Ni 5.469281346554325 9.36857852589185 5.55604722280543 0.11379471192566853 -0.718648273280072 -0.6855931425973161
Ni 5.455991455082365 3.919171225345911 2.971597287149004 -1.1306631840007626 0.19376861864715017 2.0896514959296204
Ni 2.060569147626153 0.2778213934619783 2.3889398263920016 -0.37028436375112356 0.9605075767868618 0.9710593841607792
Ni 7.490214632070578 1.6320286007319207 6.424789939167003 -0.7481151723909374 -0.5677599989362158 -1.408265706545433
Ni 6.261633841555008 5.208281345633845 7.250400831819649 -2.1601969102483505 -0.39383464026723786 1.297528036278533
Ni 6.688565759784091 6.893581742160478 3.4147426859240344 0.4052760493349601 0.16599864762273345 1.200721888491061
Ni 1.9317011570616605 1.8520553331522895 0.3142025882726234 -0.44298384829837906 -0.6979280100135851 0.0049221198919657165
P 4.0275011429530325 4.168592840874212 6.761316926414693 0.33986615647058244 0.44313297228173365 -0.18337159168354225
P 7.644250179250866 9.048424011558176 5.119759071340211 -0.5285380773211156 -0.4895663240436084 -0.511091599709894
P 0.78420553901108 8.43966093921378 9.78054926228582 -0.6558907304368768 1.2861599036509075 0.2995093499200906
P 4.72843302631514 0.5843670963383356 1.8561217967779111 -1.7785791237622786 0.42603873580360824 -0.5674820626844808
P 8.397125804509715 1.4053896562984094 1.849155125308901 -2.606477684130447 -0.0353207867884811 -1.9105474212731806
P 8.024045536594178 5.138745565835094 4.460680525997928 -1.0687821302252498 0.3421552096150753 -0.547829835671192
P 7.478944878922293 6.1419967608306445 0.3474450866877793 1.1021650765610695 -1.2437747538164772 0.09772403161605105
P 3.578403818116949 7.439655059025244 5.283567037661282 0.11942594206951691 2.7988406806793216 0.1977538285471433
Ni 0.8322436801487142 5.043265972564688 4.236766897802931 1.44011601828681 2.898841167034375 -1.1136733343109853
Ni 7.203962902104148 2.346989222452889 3.8522345031404437 0.3515775313702396 1.6960971059069627 -0.03021920389585763
Ni 1.2595375398274558 0.42062927370905895 6.0936827211719535 -0.7682643936453027 0.2520200460898756 -0.7423613006262958
Ni 2.007568574106378 3.0956468737118406 6.512354518255339 -1.7570664465014838 -0.245428508915287 -0.8327044663972434
Ni 2.5337304349938017 4.870983713025641 11.909219517401226 0.3052920180401387 -0.6128437786487316 -0.5468055081717357
Ni 0.7410419168285379 0.9049695950502711 8.411813893571443 -0.04334005754853181 -0.7721812122012056 -0.5599551581798163
Ni 7.714075886309034 4.6926316860233275 2.3284787698129845 -1.0467837715772874 -1.6192406617685402 -0.49536339034135973
Ni 5.738492835660859 6.040213587790992 11.76420538423491 0.1940838358947238 -2.143588355157392 -1.199750011496095
Ni 3.7933240897746923 5.974044705198367 0.33477152445438463 0.3273968203589781 1.046588624847346 1.025682470822298
Ni 3.6676827090327375 2.4742392318599937 1.9753473678437472 -0.2615526681706592 -0.2121931439009249 0.12411923378012818
Ni 8.664307802800334 2.6551538417358587 9.068386906242834 1.3489105045155672 -0.7355573903305849 -1.3577707831196746
Ni 2.602985640025376 5.7467417338158695 5.79336110188081 -0.8659763410764957 -1.4322307020014626 0.4392755462088564
Ni 8.514920444262948 8.455822045803188 6.979605030527787 1.4918975217344757 0.9720580006286227 1.436250621794133
Ni 1.4562859190643551 8.84681233635687 12.303306418135323 -2.188310123544799 0.5780055879236239 1.0259046141354333
Ni 8.527022569220525 8.00519091223987 13.218206489445217 2.083236593542212 -1.0706034997047045 -0.504955147794853
Ni 8.923867519915971 6.0312913101947565 8.476258176595152 -5.179917721079634 -0.032420582422550616 -1.0856138570706078
Ni 5.72211662174995 8.699716338418098 10.393813689144961 -2.5089896797846016 -1.1443800193662228 -0.42273641090325265
Ni 5.533813543005085 4.486240887287772 9.555801391783085 -1.1190631378679887 0.5180320355834691 1.0236564415312046
Ni 4.471454597057533 7.342987699240456 7.596249448082189 0.018076397885736614 0.009858637961634633 -1.020321977841333
Ni 8.684088323886327 5.518475455732729 11.77135068830569 -0.7759219101905606 -1.0087594698147144 0.19551285503176652
Ni 8.146394840067922 4.435812249133788 6.559127267193004 1.7218521033838798 -0.7134952683242228 -0.2027469108863605
Ni 7.226277948586976 2.017070706221446 10.906290048138704 -0.5532114116980795 0.947989132604877 0.3758104357756753
Ni 3.763657984391822 1.624490491987093 6.0925604221032446 -0.2890475311568183 0.33840885519876557 2.477381051740385
Ni 7.092041627477159 0.5776426544183217 0.2613703596131545 -3.7727228790008773 0.10007119169198894 0.07972579526641754
P 1.461102452567564 1.6204315103552627 4.271562845179025 2.427474653828245 -0.32649590581126353 -0.4106913068132605
P 3.201984710472003 0.5273327929157762 11.641872915247196 2.2546756954542264 2.3226572057005224 3.188649744726934
P 4.801737860486306 6.633451523018247 9.721730503344014 0.4511833533900359 0.5377410839766223 0.782658971804078
P 1.161719823497241 4.675806552484934 1.9047295046929151 1.1210752832020112 0.743831714524235 0.2782105884423144
P 6.978689421537566 9.422542406112267 11.890576259371525 1.4977658075897946 0.5339402221732933 -0.556685486289609
P -0.05548646595696519 6.460598761452607 6.388857663983842 0.9970732917260376 0.28100254936515473 -0.6138035714588397
P 5.345847153980831 5.871915489945862 2.1737595554500078 -1.8411569464945001 0.7191804916344582 0.35694393788847556
P 5.697210934916852 2.4349400594707054 5.357086979153951 -0.5331020425427141 -0.17386030975899736 0.05461485913140271
Ni 0.24204717539766007 1.33643373101849 10.818972374845485 -0.13093214293690356 -1.816643020513536 -0.5184686089002555
Ni 3.0284492169728985 5.782365376755135 8.977825788641045 0.21131074129597158 -0.02215005373447798 -0.07642964101364902
Ni 7.574171954902239 0.30892684740046783 9.582000528292866 2.189201782121133 -0.9594907054865732 -1.3578669423779066
Ni 2.7951138880960906 1.078922209703246 9.695667913220923 -0.4256111613478864 -1.991829762393441 0.7253251710796152
Ni 2.1422070523824823 7.274826735800873 2.3571011370619557 -0.3243742314825704 0.17301775925304397 -0.058017714165364595
Ni 3.1187288245582856 5.350252177825514 3.0893713514193104 0.8847405090578763 -0.4137519480164552 -0.573262931032316
Ni 6.680672256334171 7.0902272439827465 8.754089857798593 0.09797728527743771 0.17421923576031284 -0.5939837085194352
Ni 2.1814033473571386 2.4726586606715615 11.670509311234527 1.7778826119158866 0.6624359877545625 -1.1136494230515852
Ni 2.8829150852380794 8.105094234339434 10.819219280640601 0.643628368129756 -3.4547666352295083 -4.077138407973333
Ni 6.624211260685878 3.112986394323392 12.75637574642541 -0.8139035316406563 -1.6058760675361763 0.40420441353733616
Ni 2.858963352613385 3.919835252294897 0.4397785015689036 -0.8026271873958887 0.7776499486252607 0.20920655046877518
Ni 6.901522008071593 7.164196105102898 6.092766176932507 -0.5576841027574525 -0.44523356356450416 -0.6661640873384269
Ni 6.370983180816206 2.6183798422511657 8.376401616956782 -0.2985205036442601 -0.23555547277594915 -0.06516898049816519
Ni 1.461532667210569 7.545169876468354 7.881993337720028 0.1472455353849464 0.13688476097591262 -0.5373590180468552
Ni 9.426657502697534 3.171542348233276 4.811868480079851 -1.5408657241030623 -2.084196129242004 0.8742876891556686
Ni 6.3498839583244795 7.75796713238779 13.113696129668602 3.0612497833130052 -0.35234372011230286 -1.144820449337751
Ni 3.2889067733435033 9.05831894834729 0.396399772064859 -0.053449635178707953 0.6031082965285227 -0.172340016459729
Ni 6.177199541619146 2.3144519019525718 1.5170350324043411 0.6457443860314943 -0.32150153792046565 -0.35118775213098874
Ni 4.97909852331126 5.948643336276589 5.382027270208333 0.7238079631041405 -1.3527617599408572 -0.9638857492304754
Ni 0.47996803121936726 2.7229032955169163 2.4722742732405294 1.0553434882218407 0.3240649277722677 -0.2194043169373834
Ni 7.977451420258283 8.514125482422612 1.9182532084708568 1.0538134247305593 -0.7688279794582565 -0.5474040609876831
Ni 8.410649508287657 3.934228737851088 -0.14009191650080524 0.9464806663801507 0.6664641350773489 1.9454105516989528
Ni 8.909754609126958 0.6900773808692454 3.6770791579855024 1.194305443441756 -0.6244672218202728 1.8360309381218445
Ni 4.446913657421765 8.355638148936444 3.557484163476216 -0.6834755820336811 -0.8628606782656496 -0.24670968962055576
P 2.38810277833659 6.791050369741687 12.568052092197618 -0.4014101386216506 0.6743175696834968 0.20145133200338855
P 7.631858127033873 4.322899610329438 9.494435949204533 -0.3191284097025988 2.4709077853112156 0.3619300782491573
P 4.941875604199083 1.0276518472477305 8.88460762799409 -1.855657196993204 0.7265549297216585 0.9162218674956091
P -0.060263718992769166 2.445237153426109 6.846362879343002 1.8834865605006468 0.39436840128352085 1.846243102768156
P 4.996503511368486 3.686200643666434 11.635987391881043 -0.7448066768429947 0.9113267441868369 -0.42646065383237525
P 1.1662183722643156 7.982913275725999 0.6053737291568934 -0.6769699197046793 0.9582864007658269 0.7788593955523296
P 1.728349918303857 4.291297539053046 9.939717457207003 0.09137983456557812 -0.5969052530416042 -0.4596021735813504
P 9.632412331960822 2.807019610716644 12.26471897040544 -1.4908210008408453 0.1934847688581442 1.6646208896755523
