# total energy = -340863.477498725 ev
CRYSTAL
PRIMVEC
9.29765781428504 0.00000000000000 0.00000000000000
0.00000000000000 9.29765781428504 0.00000000000000
0.00000000000000 0.00000000000000 13.60806203286109
PRIMCOORD
 96 1
Ni 5.503413841851242 4.427879378402721 4.265977402928371 -1.4392269308136374 -0.26184808792389097 0.032510313922879494
Ni 9.372875890470267 6.9953346139416706 3.0944864617570293 0.9882806331350722 0.5582785418083417 -1.1926275415187009
Ni 6.534068510913051 5.5491955090482925 6.143564092396333 0.06806995619504407 1.2969199703808891 1.0095598542288227
Ni 7.532646260431842 1.4067449286314138 8.51355753029159 0.21248213589625342 1.0782337625564526 3.110249610250476
Ni 1.4859051874688827 1.5050862555898243 2.359256502623293 0.2967875801135534 0.3057208780474412 -0.04812102387694293
Ni 1.231809496398976 2.2815243640298264 13.457924590923469 -0.9278995609438535 -1.1528371489946405 -1.22562070861527
Ni 0.3384775145495084 7.241201877824454 11.55715047257193 -1.3798429324283654 1.021589531699847 0.01603879863041754
Ni 8.296123433844896 1.9217328986512114 2.8147868805313063 -0.4047674851296577 -0.34518936845570874 -0.06229011628847337
Ni 1.272570428363207 5.625120182957944 4.448625242337891 0.22950952369218539 0.09131787097939112 1.6788190355528054
Ni 7.1725293770288765 6.757156513091372 9.84107804624645 0.1254253541860614 0.16757524808123397 -1.1279977213534573
Ni 3.590262681385018 0.2894649112535586 5.761680462227525 -0.06174889907302268 0.5502464155324845 0.08299161050188288
Ni 8.930586307090143 9.197289622189132 1.7423355204220505 -0.26344448587673336 0.3937243399416187 2.43573072318945
Ni 3.590132514175278 0.2577942993580841 0.772895700803512 0.8796044733828915 1.1780912955757388 -0.1923524550259139
Ni 1.8287377249499708 7.929247153193301 4.967854803863638 0.003536295288032619 0.5110833721797778 0.3173980572750533
Ni 7.292125149806227 3.056902539476233 12.615884998071964 -0.12099508632884969 1.1053319043248253 0.7589991662932929
Ni 7.461788810044203 3.338482107116912 5.428854993878074 0.4683405818956128 -0.6487438349794504 -0.30044497436048256
Ni 7.109528447514819 7.94162233577642 2.8088670617854974 -1.1653075135475093 -0.9251741915928905 1.0015752933614495
Ni 0.43678072111078076 0.4603586516235758 11.167279224554019 0.4255533115267574 -2.460873541003665 0.21195583107913818
Ni 2.8816230939037686 4.118927506085331 3.5606449923402965 0.005494447455667957 -0.9857681511258635 3.016517473402637
Ni 5.696237967765062 2.1511433081597504 0.7737092458643857 0.5035184153483264 -1.1576510254435162 -1.5159589335590538
Ni 0.33195613734154494 7.7624471715696 9.253073709688902 0.7604793503832451 -0.16745363490170515 -0.3615546971876096
Ni 9.22859483613155 2.6907328808203683 11.361874554286082 0.5719686377009247 1.8367606171990172 -0.8460379502813558
Ni 4.537517359634977 7.390085272793257 2.0369773675601173 0.4606545261052647 0.8561341581750933 -1.4806340330055145
Ni 8.306769252070044 7.137756136712676 0.9394651005128167 0.24813382366159203 -1.6337583957687412 -0.19432320559903954
P 0.5516477051114413 0.19132906253338022 3.8382897911836986 -0.2152841241214228 -0.658746197607801 0.5442696291237593
P 4.792784555592542 0.6277127736544547 12.014108970723946 1.384814417501028 -0.07876086024998694 0.7468010815652042
P 8.20664277480663 1.5269357515104318 6.666153827464934 1.434532867772078 0.7384984752367797 -1.350295814898868
P 0.17705343868806078 5.199129393768808 1.5470465854152293 0.7360320159741582 1.0592122271486275 0.703150177644473
P 6.066647358395308 5.857533735948338 2.0868509339719177 0.6612586796170096 -0.3339413063457152 0.3158214568165528
P 3.344042106504369 5.664123857590688 5.297836118680274 -0.17747785190692658 0.49646819336976433 -0.46109289919426394
P 2.200616145518709 8.12561368674361 1.285277537331162 -0.9507168159486854 -1.4567567121672846 0.39812426878152724
P 1.0383531297521342 1.7116616174468693 9.697350202549128 0.7232574899173093 2.144687758869158 -1.714682067998002
Ni 3.0683200633019805 0.9486679222414197 9.698914998363355 0.5625697129845278 2.49570530397087 1.307617559304051
Ni 1.2275976573981102 1.6964971375121838 7.43383912081572 -2.768679326604593 -0.36491204369561675 2.622329049340406
Ni 0.29614341887899365 4.202894654025334 8.313899625866432 0.6399694312209301 -2.7781481853269767 0.37619995790461014
Ni 8.862629725948134 3.1829787797670566 1.0981379994198355 -0.21653213759591095 0.29555190793423936 -0.8851434009232498
Ni 8.488027091632699 6.073137123566621 7.767576689399132 -2.745640185396942 1.4859104509131056 0.27404000200439255
Ni 4.843568362706736 7.449116102410251 9.826749425751451 0.17479259176527961 -0.17085391883250575 0.19955900007668212
Ni 5.84534450652199 0.6455215074784255 2.657953988110538 -0.29637080429110896 0.05758833993742985 0.18530300437830022
Ni 5.296076072051434 4.781552984923565 9.943546603519396 1.4520760188621638 1.2382810776917577 0.6973181443437281
Ni 7.022539560777286 3.747207145699849 7.685288698464773 1.8278023795644651 0.18179216301156434 1.8575690693039364
Ni 3.0462009353040544 3.339039966587225 9.363149610605355 -2.475904981415491 0.4689877285613084 1.5048592241014662
Ni 6.050683279886507 9.095238529753138 0.09085113380366948 0.5167559970845229 0.17855025903549895 -0.09697686903738137
Ni 5.912994264955326 1.37662981489233 6.764077689586394 -0.47662184806779856 0.6821134115788317 -0.5709944467131134
Ni 5.912640953957461 8.334392593508394 6.707073749378205 0.6839967446444736 0.1044855187096007 1.4979491272451944
Ni 6.917699170989724 5.537963938379317 11.790868486957072 0.8506785343771607 -0.5503207204138457 -0.025982797217006862
Ni 2.7941786219321463 5.8483290546881666 11.221983853978731 -2.0525311940385556 -0.10807966381876224 -1.6810407257944726
Ni 5.142385787980099 2.630391081448138 8.95044424470173 1.5864421271812807 -1.1881988163233859 -0.6731610874815505
Ni 4.491912347936858 4.250201137107909 2.046162523738827 0.054757041136221825 0.07902516965496713 -1.7291162411454608
Ni 0.06277964525750017 3.9691329406483504 3.449153987900816 0.4020043205622238 -0.8987815605319748 -0.5374870589842873
Ni 1.6846333261101858 6.759973703416454 13.199997335058292 0.4507627209128495 0.26565254927164567 2.096028603100558
Ni 7.516635693633848 0.9019564892605126 11.884777620423844 -0.4005354493261812 -1.6471242755526858 -0.11697105277112113
Ni 4.532189801693485 2.9545725173050816 11.1659729036277 0.05089318730544138 -1.2475735587372772 1.4903504889623302
Ni 0.40212463128334586 4.725878609786291 12.988500722907299 0.07057960999077521 -0.0344538108024955 -0.6727473969828994
Ni 3.286684855298314 2.158581434430596 7.445025132961286 2.2976303446388817 -0.890470469563118 -0.8048527342922978
Ni 7.643734676286913 5.435271307552463 3.9895840688300392 -0.1532896846964973 1.2073167680997594 -0.5032538488330301
P 2.3409178023025246 8.229105916144581 11.040356897399885 -0.47711190033033957 0.09730571313170984 0.7065273216468219
P 4.688288179145007 6.024519670728809 11.915518466535461 2.280789618932459 -0.5345017511037182 -0.018598588937793776
P 1.7936855548986135 8.970975332740831 7.094141753557793 -0.1945656606271488 -1.2959727759762714 -0.8580781692753416
P 6.25733302300626 2.384049637015587 3.8975939719411463 0.25196862402664993 -0.20479505166464085 -0.7734477376184551
P 7.568860637713019 7.566768664699343 12.6594445250456 0.279855323134589 0.5970716034161394 -1.3885918822655892
P 7.877849700661762 8.819535081866425 10.070578643036022 -0.23373076086238456 0.5308248164727633 -0.7832582959509735
P 8.997659610737488 4.7587551279034255 6.100548478406252 0.09779345140140577 0.20633359979635435 -0.9730604737512081
P 4.8110451555874665 0.26252401790055774 8.407849669027692 0.1391193067333862 0.14863495953330533 -0.4919139983401786
Ni 6.052700871637474 0.8566964206682043 10.199160602114338 -1.8241928078363359 -0.8956131901063221 0.0430099279026227
Ni 3.4435921289817912 2.6603202420304504 13.289401753302284 1.3168365067991579 1.6691558014314285 0.4259145515209181
Ni 8.459278733595882 8.776459033100394 7.575213727314104 0.02183869314164626 -0.4303964985516716 -1.2504452238581174
Ni 3.9290414400484956 7.180664827637614 6.832009167052238 -1.0744071897215108 -0.5027406566420374 -0.23327798959568216
Ni 0.9556039749889828 2.182904107336259 5.342824695663697 -1.1310393363932585 0.07949362465095342 -2.80704275687414
Ni 8.510229898551172 7.631489660913534 5.1950272671304365 -0.007409919310825948 0.44881382471659476 0.5063453432741603
Ni 2.7501263190930665 0.8930372460959856 12.184386276379268 -1.492897680864216 -1.729368466365583 -1.4216500982721387
Ni 3.5265830228487456 5.400126160922719 8.667273847804875 -1.0811504219826154 1.5045398930888345 -1.295112484858505
Ni 2.895578878319442 8.326777811738616 8.889602231337786 -0.8853999970187462 -3.2455258890886878 -1.6932048719608321
Ni 3.4425600889617116 0.12252546476227939 3.128030551706973 -0.9955182885340919 1.3838373982997394 -0.4151567987837818
Ni 5.442291039220572 4.255147491078021 13.326715113739978 0.05532705470707891 0.5403888060121145 -0.05817018058282885
Ni 0.5163547257220653 8.87753387146334 13.39602078503436 1.3678417942024312 -0.3361431990930404 -1.04808063601184
Ni 7.8856876262196645 0.8878658888061804 4.712553206572071 -0.578271697100817 -1.6882932935918278 0.9099069810211748
Ni 4.3489794539847315 7.768676602321433 4.197229591104302 0.4669367595695506 -1.8345957483372146 2.578161610794573
Ni 1.9838970389597992 3.7122107615955224 1.533098239125827 -0.16068443449867165 0.754856604879829 -0.6395475131921631
Ni 9.138593508254324 5.332309044648289 10.44719515003929 -1.178849256787686 -1.8390530127776197 0.5590213335116372
Ni 1.2945965797827472 5.939343827269795 7.090262770707547 1.7115869740124456 3.880183678288718 -0.31488197572141896
Ni 2.6759589025149024 5.984242216972183 2.1467259909206526 -1.496150897694191 0.9033000172276185 0.0572569247399401
Ni 2.1262348828102584 4.1170865698332975 6.4175214401409635 1.0248682024511189 -2.1822392347603707 -0.5960822429196766
Ni 4.983070420916436 3.730248217802322 6.9747849305868925 -1.8822763422426292 1.6316184666076032 -1.9285142901642462
Ni 3.2764760269915794 5.179585716992163 13.499878412388385 0.5365473207788373 -0.6032157686406643 0.12231611913311836
Ni 6.80160861521751 3.619578196549986 2.0209063659861726 0.14306132210026976 1.6211270801579758 1.318582028735355
Ni 5.856994471793701 6.682375451095864 13.613232667458714 0.14442812054080933 -0.4691131983955792 1.576065154822331
Ni 3.905620639953172 7.869770036000056 12.954330900584822 -0.6503682579567509 -0.4580571976917337 -1.7250968355734224
P 1.4423084698638917 5.857924237577556 9.265552096274028 0.9569304009585649 0.08563881831674283 -0.6329395209573422
P 8.469487561902618 1.2578243430312568 0.04731764027198097 0.2644662422730284 1.0878021229711783 1.3710741850968
P 6.903352884944832 3.2131961677423653 10.454870366585018 -0.1710773476972215 -0.0758323737492823 -0.39524437613057095
P 6.365278830511899 7.438842190498647 4.945019756212143 0.6860338296791605 -0.8159575859562076 -1.8964590615009143
P 3.129126745566139 2.5374330983782514 5.1862502781308395 0.5351396417980333 -0.8369478150546296 0.23514126805666602
P 5.612103461983966 6.113247219482152 8.125755011142758 0.579193694694454 -0.11370780863881706 -0.17366670569095252
P 3.8905212436233567 2.065065591890396 1.7504728305623551 -1.7691809703768304 1.2919788243255297 2.341410575048626
P 2.044973353301276 3.6919325698496315 11.556905014404991 0.30709256158398723 -0.35525163778771723 0.9429153176263956
