# total energy = -340886.1111121631 ev
CRYSTAL
PRIMVEC
9.13438642602023 0.00000000000000 0.00000000000000
0.00000000000000 9.13438642602023 0.00000000000000
0.00000000000000 0.00000000000000 13.36909785241396
PRIMCOORD
 96 1
Ni 6.107935933707008 2.618207488765554 11.527691751098137 2.577859763283438 -1.1450117394129506 -0.32193142636903266
Ni 4.8155755198906265 0.13439879666594093 6.176188983529794 0.060715829822818014 2.521201905580077 -0.9537260350886544
Ni 2.8894987696286014 2.164310686160649 4.751324244820234 0.33709810680714203 -0.5686295460253626 0.2993190882861555
Ni 3.608457201461921 4.716988085737264 4.9591333659613275 -0.1829177919755753 -0.10379826283458898 0.025683263698717058
Ni 3.925219458625852 2.9481689345101962 2.507642133514693 -0.43704999931244726 -0.0014354468949459148 1.3591108420873368
Ni 4.968448613376282 4.995806101126613 2.5105697044075077 1.5423950162633953 1.0006820921232185 0.10319662469484808
Ni 5.223772986530622 3.266018183674891 0.6130744496949938 2.035303003085727 -0.6113975331205084 -0.4255898211916477
Ni 5.81462164684528 8.138373050428976 12.642381038792937 -1.1462250429947616 0.878253615781952 -0.4646597906099159
Ni 2.3343929639273138 5.8027378099293605 11.715501132863825 0.2279087548639688 -0.8604572110304795 -1.953059583603778
Ni 0.7028307589211377 0.7345864538006119 0.24424436225579194 0.35373931490824884 -0.13908613950260562 0.3097924770136536
Ni 7.9859110043385675 9.21431244345451 7.286666405581297 0.8884272138808441 -1.6591629518847746 -0.39297306359789097
Ni 8.827726935417948 2.746161975712678 1.5176198670436962 0.4453181528585105 -1.2499114628418344 -0.4377457398278912
Ni 1.014693331133724 8.914028619646704 4.277322657394468 -0.0016161954471843134 1.1143719030399066 -0.09622430714207299
Ni 2.200720350992976 6.805565572920286 0.4331763601298298 -1.2705679627499216 0.4278907014106824 0.22189494456972106
Ni 8.158614851048252 3.996522480121372 3.6176244718145862 -2.7158974069168713 0.809670210285599 -0.22437888733383937
Ni 7.4033655014079 4.304680145144799 12.899989922026196 1.6889921194310655 -1.047788558692718 -0.3448288997924964
Ni 8.93040657475066 7.9492273079094105 9.672929897034162 -2.5588076317479933 -1.682695487789076 0.35156030497905905
Ni 7.2367451561478715 1.0741673220326904 0.38145289622791045 -0.8371961836200098 0.3599490432633865 -0.6747857675691669
Ni 1.925254655471531 6.982334221649636 9.42506740426154 1.1829198273126338 -0.39428046955540486 -0.11051141318870646
Ni 0.0737172398636044 4.991047085728309 1.3644499059948072 0.7296399964048853 1.79701316209775 0.0419316072367794
Ni 6.590076259558665 2.031953424891102 6.963401378624557 -0.8767613475071416 -0.07633245331415241 -0.07404365727997571
Ni 3.538579144269924 4.756302485496003 0.46046625341960895 -0.5303059678548158 -0.732612448769648 -0.0631375518904332
Ni 6.1499815150475 5.704113838229753 4.622646314457476 0.3546096333283441 2.2677803511569845 0.7856237108593567
Ni 5.142595693162611 3.0860524996491754 9.264009900417188 0.8323211149158957 0.10654034435610038 -0.5015628342838524
P 0.3232695941500198 5.96718417118786 12.686846319133451 -0.7774206062232739 0.05531882717696279 0.20756284421776514
P 4.20464034352823 6.3332264438486305 12.642166380708753 0.6857618069646965 2.825795354891295 -0.018754912009999958
P 2.256832887637478 8.744293448569358 1.635642535482995 0.08465202892344131 0.46680974707338313 -0.9410484396209857
P 6.594177599124574 7.996525161522502 5.992043404213744 -0.13288386734663565 -0.8368945932191909 -0.5046520147321374
P 4.942771852753183 1.3577169496606605 12.89334556924169 -0.5309860246409759 -0.44791625260298984 -0.9310303932633514
P 4.0827419548710795 6.470260511037433 8.212716909210668 -0.23632243284896076 0.32177741728967163 0.12151727738090685
P 4.762267239920367 1.2981333461229616 3.9313038735141643 1.8263998427899837 1.298179810929919 0.36001897726937354
P 0.24130674353775977 5.924572257880583 3.8003396061951764 -0.18433395559681157 -0.652545725224044 -0.4104951316420543
Ni 0.6858892121663669 7.401931402717816 2.2803265298724864 1.235784279411833 -0.13452397405321992 -0.370686998506181
Ni 1.8424240381359716 6.6746972166601894 4.975550598927494 0.9044546996573519 -0.010478530933820663 -0.650988408039253
Ni 5.968618269877943 6.093202168184042 9.208046254273633 1.06126088214754 -1.157164829835717 1.1805742098985925
Ni 8.7200142490901 2.8662882933769853 9.985366108722783 1.1082249096019043 0.809406157990935 2.1528646382529955
Ni 2.3538674760754628 5.566065854132675 7.11082307021058 0.14015031910106185 -0.11477507356106685 0.5280151149381099
Ni 0.7848411083435152 0.6727630986781448 9.356670944569744 0.8425124536266007 0.8502370759643679 -0.9825997807002111
Ni 1.640353138632526 1.6099447657708061 11.38420149948799 -0.5401970017162826 0.1965549231430357 0.6888296472567427
Ni 4.126057215943557 7.215078391225072 1.643890886547619 1.9083002771102167 1.2524064613495463 -0.29390151681501
Ni 5.93441912659339 8.278183971132336 8.196286888103316 -0.9651538173096216 0.7417252097041935 -0.6517337708457098
Ni 7.115358293138139 0.6585061481336651 4.854854295541778 -0.3858796470862193 0.6830271816423527 0.30745328735751565
Ni 1.093221652399031 7.7157797905687735 7.044578671992568 -0.5929835493896949 0.8139498114975595 0.620908300824421
Ni 5.3662237449501236 4.809976140928706 7.190221898515155 -0.7102281675371768 0.022966636098502382 0.07952422077857271
Ni 0.9538400478640399 7.932867621578577 11.959072290830065 -0.30152458057790654 -0.20602121076225807 -0.44212072896713533
Ni 4.515876296822729 0.7799048858459263 10.520330592056965 0.4462157249721154 -0.7829196816646323 -0.15848279886166253
Ni 8.545437853135402 7.327422211539369 5.261569251242915 -0.5933525026933394 0.5126237200837043 -0.5385008449607823
Ni 7.39287922563582 6.357478240168206 7.250623029650067 -0.14434661657059658 -0.19085015944877454 -0.5951605024363558
Ni 2.7078249553159703 5.623411532962918 2.555957557790686 -2.065665674537984 -0.2723538725512213 1.4072552630030475
Ni 3.5674164026431443 4.924996336505389 9.627194023523009 0.2510173158569742 -0.17358700149295267 -0.1872855820259678
Ni 1.2042957929813425 3.7533011691604172 3.7703532419925767 1.8186240554993065 0.3554694102254781 0.6031381213251935
Ni 1.8719646442743925 1.6586127773680557 2.511732511816729 -0.7896521152924594 -1.3260793655536647 0.13966823725832075
Ni 0.9353063775316788 3.8353279604786046 8.184815925459954 0.6173357529818142 -0.18938180243336417 0.03906714120479078
Ni 5.713293896723604 3.556710901593599 4.3112532497141265 -1.6353481088533641 -3.197728824210067 -1.7506428023633271
Ni 4.019669015667061 7.161770111254811 6.031268286984186 0.13380457938869214 -1.0626670184664473 1.0121906069834503
Ni 8.231351971233856 7.9836274076983065 0.31275226146363216 0.0370231141915685 -1.3892899367738782 0.18350297505508398
P 0.082801387298564 6.276227871707707 8.318186190199123 0.6232233221108427 -1.2861871573444172 -0.5726970312265169
P 8.757638787335047 1.8463974962900265 7.974813638105554 0.27981855635938263 2.004662652492051 -0.6406404891460257
P 2.038393167416639 3.678572752704505 10.529233878638015 -1.5925397554385863 0.6736457404274527 -0.29638108870375407
P 4.1049111110547365 6.703580146966215 3.980007509219002 -0.04797215700390448 -2.107987318124331 -1.488530919255088
P 7.219298477816275 4.532354730178854 10.345529490192865 -0.8698401949072762 0.10983958393266244 0.23356878136322354
P 6.517074242162791 8.219915719259427 10.212199416754565 1.0339897051364129 -0.08426456367703551 1.804490958532034
P 2.522095473370235 8.855869980412528 5.901788357481368 0.24931061757851258 0.205727076560607 -0.4658023888547913
P 7.032271912978871 4.355467334424211 1.7406834137417362 -0.5181335941583399 -0.49581513316679776 0.039634326562170454
Ni 2.877697142191731 2.1798848152472314 0.13648143680185928 0.23046211741344183 -0.25813284385583285 1.021491572669402
Ni 1.7187718472591005 1.5108092684237808 6.85112789308678 -0.8948436589301493 -0.1734749013951206 0.8492867962359566
Ni 7.331587491811206 1.195700335227399 9.566792892388097 -2.3307034730437666 -1.5789237073170483 -0.7938589542849555
Ni 2.735767043806208 2.0939759096406 9.183166925597314 0.656904773523688 -0.2173821443010321 -0.3814920595414849
Ni 6.802898332044461 1.981421998435399 2.543230616995182 -0.5388332885995365 1.0230555747224122 1.2210235761628907
Ni 4.361550835873867 7.404927481509838 10.412281760303673 -0.7431891958442298 0.0964420795798339 0.8760039005158268
Ni 7.401310264431665 6.571871427142502 11.62275970610953 0.7721788982083605 -0.5652804270474717 -0.8118939574097952
Ni 7.630775189231685 3.868184348938685 8.077649475448458 -0.569020096595562 1.0259352102630526 -0.005815578240512565
Ni 3.066377030996684 8.869461947615363 12.678143075618086 1.2304307284094036 0.4130780618778821 0.5488212530501838
Ni 0.29201263677677863 5.262009528675158 10.203683428163703 -0.2230794517961255 -0.16056590664293638 1.2919050336648008
Ni 8.768024584854954 2.5910692262926887 5.493963573813064 -0.1453406050527497 -0.29475306618202785 2.2719241981220293
Ni 3.8187307800971855 2.8590629936071985 11.390003661831564 -0.3590640695552719 0.6646239965448166 0.4807402411115463
Ni 1.1873241027509203 3.8224941473603358 12.675576312994432 -0.7884472963510808 -0.10552912948276665 -0.032337021569808826
Ni 3.376498589130735 8.604016674151385 8.22535067926325 -0.3646544191588559 0.6852154475429232 -0.22166457372646986
Ni 5.772968844126913 8.107754586676352 3.727143939804208 0.397903925240605 0.08217862768228427 0.05329305499618563
Ni 3.491418306455247 8.778666145198573 3.4619818323236218 -1.8044860734360277 0.23585680606645187 0.9165807934969246
Ni 3.557651743409387 3.1950714032552523 7.109967178189811 0.42441482704693995 -0.2130403223925686 0.24395552391418632
Ni 5.283776771850128 4.735594831162113 11.786879056329143 0.10804726791893006 0.9866541532752426 -0.8051167865869617
Ni 8.163319060127192 8.987240727933482 2.6197548538489954 -0.4707854438916795 0.9899932449508049 -0.5759283936796211
Ni 4.90280891154861 0.9138862410460274 1.7239181606475935 -0.6076601775652632 -1.4813205175495778 -0.858538910961844
Ni 6.2883492026742145 6.098728472053474 0.5810547710439053 -0.9219636550753927 0.6116201906542756 -0.1130164389987473
Ni 8.215375929138588 0.1923857094327691 11.560004643557836 -0.6188215934987213 0.14036140667060343 0.1803924544505603
Ni 9.169188573842947 4.940570465591971 5.895117514975836 -1.279660926190125 1.4986962898238643 0.1728272405087927
Ni 7.683590212327649 6.6805432240592575 2.56671969203691 -1.6106241237441228 -1.4176391773405328 0.6770318832908663
P 8.716716735541564 1.6452491698292464 3.673868543625567 1.0364322531396344 -0.062388589539550614 -1.5108244405459659
P 1.9957355821765572 3.6844552976498184 1.7063783115730744 -0.5768025687544582 -0.30203134501099593 -1.2440305785810253
P 4.820243191423321 1.2475471133478926 8.169508520460955 -0.28580459873948844 0.634210674360282 0.1232928812240909
P 8.653716871430033 2.2150978754400614 12.260692475391751 -0.28117712726980604 0.14306697852722458 0.9025466840013617
P 6.258004770518422 8.269442363193416 1.494223962744891 1.107614529711415 -0.5266066646263575 -0.053360417899011324
P 1.6682495551899585 3.6857889180877312 6.085479957785334 2.03192508775243 -1.2812408690827355 -0.7399300654769838
P 6.850881264649631 4.000477669502305 5.88920756687084 2.378041338897782 0.5178772551731597 1.518444676095385
P 2.4319482123992784 8.852709482662407 10.520611017724388 0.6676054477706438 -0.20200180519021985 -0.47835477159850515
