# total energy = -340862.1040057571 ev
CRYSTAL
PRIMVEC
9.33617811622739 0.00000000000000 0.00000000000000

0.00000000000000 9.33617811622739 0.00000000000000

0.00000000000000 0.00000000000000 13.66444038844554

PRIMCOORD
 96 1
Ni 0.4441434718528878 6.034774904663023 8.176665043853 -0.08242442514450321 -0.046525654365365036 1.3012605067377718
Ni 5.384089962568841 1.2019489221629525 2.920678650083394 0.5001173600865774 -0.048432898690406914 2.431429524710935
Ni 6.149777948162788 0.8993979294233491 12.971995067325325 1.4630787977305706 -1.2422351772434992 0.15924435961803543
Ni 7.816780580571746 2.370549015670185 9.532026980392677 -0.8576588223497357 -0.4802761569909341 -0.029046780854311265
Ni 4.298684553314443 7.007128531668789 13.135900078802639 0.7890882723691894 -1.4699762961813523 -0.8245967496884444
Ni 2.454378560043004 2.303757996576394 12.442033445135547 -0.0047580835102756765 -0.19402470052201426 -0.14238229375537415
Ni 9.277799112580045 7.08444142363352 0.5481316922709006 -0.9582192949733174 -0.9609706324662096 -0.9692745243462147
Ni 4.778704157271288 4.815432682448108 6.404619202885465 0.6329377211851294 1.3015705817790229 1.0434220541939063
Ni 5.629444726586851 3.568595415330872 10.50578196775153 0.6115775103417983 -0.3030297043685233 1.0729925687621715
Ni 1.5190148712046412 7.6743198368825984 1.9907859616907895 0.02565832399805259 -1.015113694167516 0.29278797203585705
Ni 3.311654454123125 4.360798147112457 11.526461520537739 -0.0643354288532763 0.6549101116911624 0.5036906792601324
Ni 0.6721180064684636 1.6002956389192826 11.303402483762934 1.2560538282941465 -1.1950366651808257 -1.879294633906486
Ni 6.251616980351084 4.146999665529033 8.288425632651721 0.6550574359023041 1.7622312785318748 0.7299523854389816
Ni 2.930103522011711 4.005136437246931 5.392835160721645 -1.3930496609266267 -1.179837588842884 -0.3648536796538555
Ni 1.3006883431772012 1.4564064599601676 8.940575421110987 -0.3834862071533782 0.7113748795471104 -0.5707897869014751
Ni 6.363725808597973 8.194447662537364 9.337991320897277 0.10029642032891758 -0.20123381667594376 0.09613483275206024
Ni 8.187454865039287 8.833256985916519 12.832029884078418 -0.47830437797654407 0.5500790367166849 -0.270939765812514
Ni 7.917714003471239 0.8475130524996931 3.409756214163917 0.22868471379804486 1.30407586469938 -1.0700833655351765
Ni 4.878535911139042 2.7237366383034134 12.8364851083322 -0.6195960097709007 1.6712129410707735 -0.8769066148357544
Ni 8.86823964576338 0.4917673170300514 7.315094507784741 1.429898968544492 1.3485708617879613 2.4470404917753146
Ni 8.838410556302286 3.410263168642082 11.633767818700498 0.0763260255562492 4.602292399313564 0.18366186923045144
Ni 3.7915060068717383 7.077140532253684 7.136499953472348 1.691383245371061 1.3627407255304402 0.5499695077220141
Ni 6.862315071064401 7.292675542988834 6.454111217327468 -0.1098508967865721 -0.29853721581480847 -0.07200554380402438
Ni 2.5396645482204967 5.789550847140306 0.7589855432389793 -0.28274010088155177 -0.03806055431714735 0.2666372817824182
P 0.5303668123251828 9.16103153139385 3.148628910635558 0.9331980903386315 1.0502509041902817 -1.0285453941923899
P 1.4755923062332652 2.23776988881082 6.821958507025426 -0.22771695056813684 -0.5387597550491238 -1.277745197224651
P 3.82944823521912 0.6263595297026697 12.233527642993591 1.4269560838660846 0.744381416380118 0.8137479798993985
P 7.980845240696877 1.7003981419558534 11.533006181480532 -4.607941112958909 -4.260300711859547 1.588124142869394
P 9.143078060647783 6.223057611129962 6.213795188702935 -0.8567339965426214 1.0036339756626909 -1.46928441232065
P 3.3903957813578236 8.250240663670228 5.31377266895566 1.3610353128035593 0.8627948580247206 0.27438787226211453
P 2.2134117997954856 6.554062474276632 11.494104194010582 0.5895241300861847 -0.2870950354161378 0.18681121349271052
P 6.0066636719971855 6.800733639425786 4.352343304102765 -2.052884463612916 -1.0246496586824094 1.5864174445909323
Ni 8.895921414230404 1.8553973730147184 5.524601312242503 0.19736842018326653 0.834663389895827 -1.848001223109843
Ni 1.6209192566405832 2.5018343540119363 3.726620501755728 -0.13449826302160708 0.42298272258610375 0.8662864161177469
Ni 8.825872068932567 3.0206831232484963 7.581536897582334 0.6763243157008804 1.2693001517810913 -0.4976100202836915
Ni 1.2760688411712846 8.471797509367006 9.588843226660105 0.5792944819383765 -1.6421895572552299 -1.768970139917605
Ni 1.0012024177521759 8.83500285124648 11.854393847427241 0.25083296776030994 -1.9183702597517094 1.0381119548349027
Ni 3.11504387667049 8.437001573084848 10.901135505765692 2.18115345789536 -0.20353855354972045 0.13125481638364492
Ni 0.5829621724125287 4.3235561321327065 13.463764251591025 0.9897291926561408 -0.7617026812673849 2.036953651315273
Ni 3.8806104919473805 1.3108554412752078 4.891022115910642 -0.8406412047458167 -1.8361155274158507 0.1851284264736489
Ni 5.57338097628517 1.0889905016966708 10.639639423197046 0.9704014388618063 -0.5699053274139927 1.1608476780039427
Ni 6.362241356258595 4.633722645458668 3.8591522198918633 -1.401542014668354 -0.6280361701184539 -0.7030609603647763
Ni 2.2624080631732064 4.739837647278634 3.037810342220758 0.20911090543117536 -0.20699463041912092 0.5035963197741135
Ni 2.1190417101952566 6.047378745280386 6.321922136932561 -1.7132872445330043 -0.9339272551951723 0.09115897680402366
Ni 4.952786536642665 3.946290505831197 2.25414087734604 -2.855078677236444 0.672418552888571 -0.36024266324440535
Ni 0.8189947624628054 8.176690251534236 7.039413969623533 0.7553320018543508 -2.518547498676366 -0.799848596209487
Ni 8.472899178398745 7.361959321671393 10.466483192706589 2.0737391955747384 0.7456903649995287 0.9298553991186438
Ni 2.882918477211596 3.1821803343589794 0.8187977691020452 -0.017301467392925044 1.4105912693548157 0.5035963197741135
Ni 3.9133151243048796 4.031072340383995 9.080116741866023 -0.36045117971078566 0.10916441224250877 0.3318949653396478
Ni 1.9142059597175127 0.3972142383364144 4.7399076686153965 -2.9432662301169694 -0.4478830853722093 0.8722778578144912
Ni 7.921485819478213 6.031525914637213 4.191006675257925 3.4529614636999697 2.0280100689687397 0.44705133349953335
Ni 4.945280249341657 3.0502601358972425 4.848498624903306 0.8312186258803362 2.382350507796097 -0.9874722783011639
Ni 4.570824812688907 6.264967715227255 10.853063524033244 0.3685468122347266 0.47226999885700605 -1.0121828936739665
Ni 7.264620327392406 5.889718703424522 1.621941568157325 0.6115764819005338 -1.4706193290819898 0.5632873078768428
Ni 3.7549268605466795 1.2369315820098123 9.228129710751574 -3.024838848784139 -0.8369930664702683 0.9956285888597111
Ni 6.573640440035602 8.263068572565233 3.0932056221608053 0.6576671056110093 -0.4756679687949614 -2.0077513187197034
P 7.0474794940008225 0.24670290815515433 6.697434428961523 -1.3197289978556044 -0.4501731669579666 -1.5616304674542396
P 3.331456488159738 1.9784855468660663 2.5123440898511706 -0.4290158161540611 0.9585396544272136 1.3473549871029893
P 3.2584849190743217 8.483028931783812 8.678326842576594 0.414047624880003 -0.9958939267059558 1.386036205723271
P 6.884469822016255 2.531738132898911 4.35544478251246 1.5722966889188341 -0.22349339940509252 -0.4572331591285416
P 8.768202495974453 9.247204456503674 9.557688399889628 -2.2161371730593964 1.6963112788002979 -0.851830902814049
P 2.16113853785725 3.0343886328975995 10.233778016579297 -0.12620645532646005 0.5457960930706148 -0.18912777744102913
P 5.507906358322526 2.0814916013337483 8.764112316289664 2.5365159102293284 1.261145640994757 -0.6100924411558397
P 6.8460234400441795 0.2822429378426487 1.4519699080628556 -0.06766140790271573 1.268289708238706 -1.637657730823147
Ni 2.6842446043690082 0.28627616684020496 7.077429020161149 -0.2268682294145964 1.5309536071956729 -1.4838692521133605
Ni 0.8886071746192389 5.122368878104731 10.51238171214591 -0.675671769718546 -0.5316138880329618 0.23264035601168323
Ni 3.6646553531916517 6.098597019078057 4.518229452601561 2.813343759391503 -0.340331269032459 -0.2924035921132448
Ni 6.451887339671872 7.653528167953067 0.39320621702009284 -0.22462931278174864 0.6045535136154814 0.25602993858021716
Ni 5.711416371490888 9.185669705756235 4.985088779718232 -0.0642994334090183 -0.7145283375744275 1.170623526443784
Ni 8.44233253085708 5.598495295737546 12.387512031478304 -1.2731874026506396 1.7708462738943953 -0.5036387429762745
Ni 2.796624181784715 8.525340491545213 0.11192864000695185 -0.5477221064487341 1.4030201418757773 -0.24024079406676047
Ni 6.076685008760315 4.903846290334355 12.335996867212756 -0.8303760753743827 1.0171458941061966 0.6406749419283869
Ni 6.489316078216324 2.6768223426721165 6.621815119728637 0.3368859907963359 -4.186276080742965 -0.16281587901937766
Ni 2.0751803448468316 4.090002297403845 7.741984722259194 -0.9655829344272402 -0.2010093593699635 0.1500848046059544
Ni 8.588677124692023 3.8464960966763835 3.2566596962293626 0.4706604882780411 -0.4492745664030972 -0.4390292345260052
Ni 6.543727324970393 2.6578418923201905 1.5854035010165 2.217186183149201 -0.14144332688087252 -1.3154432259960571
Ni 3.0242215347995933 9.173719397615328 2.6917854355294857 1.3762511013120493 0.39067604003359807 0.28238040354928784
Ni 5.154905459254 0.11351579030691614 7.477195769627035 -0.7776900578345768 -0.0941658819511475 0.571729267996609
Ni 4.437560204561318 1.2164666793185082 0.9117422242857772 -0.8453082712041828 -1.2790150650760101 -2.0563927338764905
Ni 0.8125303926528333 2.1986419658275826 1.6045062553033056 0.29738561870886854 -0.7954486673695784 -0.11651879572505096
Ni 1.8074934424905023 7.318723480264718 4.377171002883324 -2.5055022354566336 -0.14954153050797472 -0.8828738881627828
Ni 8.825816051863157 8.419188145012308 4.678226339869667 -1.0238415609588174 -1.1252083315337784 2.875466753974493
Ni 8.386698244754216 1.8578061069993703 0.23190880012384016 -0.2040211496130938 -0.11773235641717789 -1.0032161713989818
Ni 6.880427256840464 5.914310196895734 10.234638812212573 -1.3112847237429934 -2.230925387112164 -1.221398443003806
Ni 7.203571057913193 4.594211939167793 6.076002534131331 1.9737407661022137 2.327617120808959 -0.26735873332947496
Ni 4.203016734939537 2.519115619925077 7.115702682835875 -1.8053579345180197 0.2785630866857267 -0.3211999475196468
Ni 2.5795953825319513 6.198783547718744 9.26838544406561 1.0969339100691173 0.901849400824021 -0.39779645312846335
Ni 0.6097822116284545 4.470722309652336 5.2638297171049 -0.8688850300828583 -0.649280681319527 -0.26135906410261445
P 0.7054350921181843 9.274606139623646 0.3089107973533427 -0.09156572532413908 0.29626564617181234 0.7583764451076294
P 6.642298694776411 7.472611706113608 11.83167052322087 -0.3638854022033152 -0.5043529954344798 -0.13096325328515507
P 4.126179988064796 7.375394082151678 1.6870259338697426 -0.43720272284022765 0.5182585497719784 -0.3586400946439759
P 7.411609117525569 4.1359923113898684 0.10110800943248946 1.2284049562286266 -0.49143783003470853 0.8551149728819595
P 5.385303665739403 6.301808274542896 8.37093224056863 0.773213767230778 -0.623757597347758 0.6182235549034063
P 0.5239687293806797 5.426858995063761 2.073346719441461 -0.8752174000587896 0.5427537066998653 -1.1362501911702365
P 4.319756307591027 4.7523107814007055 0.07048254396794335 0.3848684322128855 -0.560978200127692 0.2640026723730486
P 8.319132322866912 4.663514390206822 8.982812291446507 0.27959024239866037 -0.49967847277694594 1.1364880182126558
