# total energy = -340871.72881264106 ev
CRYSTAL
PRIMVEC
9.21456086488299 0.00000000000000 0.00000000000000
0.00000000000000 9.21456086488299 0.00000000000000
0.00000000000000 0.00000000000000 13.48644124784070
PRIMCOORD
 96 1
Ni 7.361199178146697 2.1215420062665573 8.966176602309082 -0.7356602344570362 0.035965105240699353 1.7171202451258492
Ni 0.48721528509777307 7.4463325036442125 7.003886161281549 0.6180106675616518 -0.10526867673252839 -0.6880637156249957
Ni 0.5134288671277902 4.751349961349804 7.421629188098559 0.3483700801765355 0.4196767981413224 0.448912297967672
Ni 1.629051385218213 5.955739106187192 1.5457480714583116 0.7266130366531035 -0.06921204021928726 -0.19030919934363996
Ni 3.83226204219204 1.5396977909602416 11.645595751729228 1.3218990089237297 -1.6954684711840287 0.4461601891438316
Ni 6.504281899440469 7.8295476503906825 1.3741600524714714 -0.09857403832117217 0.4879853527097338 -1.1910992777996325
Ni 2.6702138033684077 3.457118850541991 10.926997320918945 0.2461841561343889 2.0394049410692427 -0.8159403595650269
Ni 6.162421700722232 8.84877941428348 6.399059910351967 0.9096064190616207 -0.42588087006950526 0.942440691982822
Ni 7.762493292814601 1.9421252965834637 0.744573355720441 -0.4410706904360662 0.3502667829786161 0.736103749752358
Ni 1.8588440977690317 0.37911098144972794 7.159101748972363 0.22555105326506963 -0.9951737607104796 0.3537848234342036
Ni 2.7085003027127277 2.6112221863281344 7.5862178268442575 1.3825176510470512 0.09768546506863175 0.5583340776366256
Ni 9.13292881988656 7.56490546960395 0.19008072067976797 1.0030189677865113 0.45732134796697366 -0.4951206782029344
Ni 7.4694518362206015 2.7254274505576173 6.837315470548133 -0.4237818214486314 0.7175804941371899 -1.3403968106176012
Ni 6.880318903469917 1.4995130921297772 3.742662419165719 -1.3793423386428632 1.1236777538218647 0.30172589795543525
Ni 6.31931802426874 7.214853526501334 4.797248609215988 -1.8020316983582643 1.2193693283889193 -0.022268581590213263
Ni 7.508659791626157 6.871076699175728 7.650426728103245 0.5853931386369466 -1.3239633476519264 -0.6765575147576091
Ni 2.671936926202917 1.8299103774462482 0.04739232814144562 -0.4619575611874044 0.9393484262107434 1.1765110955728126
Ni 0.6780645001326112 2.44348032494089 6.650541855672139 -0.6945516373421845 -0.6370679413034189 -0.7557220382039178
Ni 8.410258474741678 0.13438607342659376 7.605934222186506 -1.5297302763115332 -0.9148380997742052 -1.4373104305172149
Ni 7.331307143520231 9.065717814780069 12.738078665209915 -0.810513789232817 -0.27846384210370106 -0.08861101357118932
Ni 7.686003225171472 8.591730031441326 3.114072737872945 0.2834607810976602 -0.7754146315368388 2.0821598155382657
Ni 4.294593406356158 0.14856267492869638 7.9314699053239 0.12793192265799905 0.14797418602085483 0.930125879171211
Ni 2.001900151275787 4.116061294491851 13.195336492300873 1.0875380706765143 1.063160413163098 0.5005693600223314
Ni 8.123962076515921 6.221929333156798 1.9205503243657038 -0.12937431153148043 -0.8178684298256754 -1.7389026311082632
P 8.418063207580339 1.3943841701034603 5.328182377139062 -0.3109936964106063 0.13129852513738677 0.28483040775167723
P 0.7823042170598361 5.255386426845425 3.4237215970585844 0.2028451270271216 -0.28287765490068056 1.0299065362059747
P 7.066324023990842 1.9826140759141353 11.707565514759414 0.061579977595326206 0.7182566942686082 0.3263550093580251
P 6.5769571389900845 8.41454324542642 8.631929473568771 -0.5525938327187386 1.5025568012205346 -0.18280132100236907
P 2.595244138226317 7.883600262942735 9.134595733901334 0.025088053316879376 2.372307264627482 0.6118189369286431
P 4.960695563901815 8.988462938606114 12.770391364909248 0.4074506883887757 1.6525909550942117 -0.13912033517465072
P 5.558775835007094 8.865079972006729 3.2939418824821054 0.14135899469718236 -0.9507060173154078 1.0290698992372924
P 0.260932398684199 1.512883419578299 8.579156763485773 1.6659645481876406 1.2024977494445612 1.1384016902956007
Ni 4.686875680745182 0.10345740073123637 1.3981667472348305 -1.8147923404580424 -0.25248078777637806 -0.7372710305875819
Ni 6.685698168776444 3.8154546836351115 13.339573852478132 -0.19124868043877383 0.6653220510531058 -0.3517212560369556
Ni 5.183088984280916 6.4516022564196565 6.934323600306786 0.5936288962831776 -0.9017226454381697 -0.44135942532107864
Ni 3.1276890940898165 6.118376100995193 11.00911656364016 -1.5974970994438618 0.045599028786037596 -0.7738010071928156
Ni 4.338712722568097 6.69548403214676 1.4757809912726663 -2.760903025093284 1.0570694697740117 -1.2502575333273436
Ni 9.207087603694763 1.2672232336530114 3.3037461749736474 -0.5190270525068869 0.5437595222565602 0.5897532153778552
Ni 4.506740235334324 4.364863645585951 1.2372215457552564 -1.4694481915920241 -0.5521307770393911 -0.7172969014585
Ni 1.7582579541246042 0.729364723429755 2.071153103013975 0.7103868046022281 0.6868699524272106 -1.3412714999130706
Ni 2.7202672966147 1.0736713879905706 9.747756554904788 -0.7580283177395912 -0.3815974747710977 -2.1891364761008365
Ni 5.141254879100841 2.051732495067383 0.07165703060195051 0.5058424354958128 0.01619743569546888 0.13602858362320444
Ni 0.3004075763475123 3.306433140848209 9.828297343393107 1.329701021466652 -0.450181908708715 -0.4992601542926047
Ni 1.9498470983766139 6.807311939738256 5.2852416032294425 -0.524543868560058 -1.6703235964872847 -0.3278871297318353
Ni 2.113451622048913 2.405543978899839 4.103964419319956 -1.0667226765930595 -0.18839064216468845 -0.34567684961508854
Ni 3.890995651535168 8.045057793992356 5.946455436370247 -0.7174609378401902 1.16430529753524 -0.4954762617701402
Ni 5.74129785161655 5.521143569466251 3.0867635445861192 0.5477689005262695 -0.44556883541673586 -0.5025370252716636
Ni 3.994521240014936 8.353450708566532 10.806186138186467 -3.6207665684038224 3.2281634865508404 -0.35179530380800056
Ni 1.262864746483369 8.622119652340862 10.979243879590978 1.9694076859444987 0.23742492188452013 0.31481949791459973
Ni 4.433668769678378 4.692690068491575 12.184028329078634 0.814220805770759 -1.2001469898241974 1.2639795108991263
Ni 5.318275803024723 1.7154747492014566 6.200297230663242 0.47706922001786223 -0.2543165554335362 0.7526433992785941
Ni 7.9725023437307 5.989657903801256 4.170358092900131 1.3722715478390108 -0.6605153736930819 1.1338626647746666
Ni 4.732109958791215 3.9559306601704085 7.041999426886357 -0.028720250752827952 0.4766892109706241 -2.3688311331534235
Ni 4.334004082095186 1.5083590703176346 3.293590807722775 0.7215294514826089 -2.4961765871803334 -1.1512782891479527
Ni 6.493611438251366 3.856874133587631 4.635883223772491 0.36914716482288684 -0.013303659087441605 0.9953043727510729
Ni 2.7093849005315134 8.771432392503403 13.188862342014634 -0.08657598541903154 -1.4850393611620616 -0.12673327436420753
P 3.1520892505913234 2.728256320665609 2.042871773582546 -1.303408149208394 0.7505361231276042 -0.4223142357641695
P 0.04541119760979007 4.689326753868067 0.4876548196389823 -1.143588890923495 -0.09108081526792056 0.2829609586431062
P 8.774933925536097 7.47500821626985 11.402354387964682 -0.9233721053871452 -0.2832242396068219 0.4074265200190596
P 3.311630153033575 1.193027591602358 5.575308599657775 -0.9446654675482827 -1.0239050672069012 0.6237807372762095
P 1.6404682258169163 1.8109191680241923 11.455383262832704 -1.658959577624717 -1.43413691788524 1.02266656681411
P 4.059400961286502 5.377396423913569 5.348399123122561 0.5917707600285164 0.716582906110611 0.33185177080653816
P 6.046880325203959 5.882593924046346 0.6678133014513703 1.8356630132594642 -1.253527462327867 -1.4025398598052492
P 4.962252824645303 2.3025620494962 8.390103466314283 0.07055826983453656 -0.5668158898553916 -0.3303674729515278
Ni 9.061746339156144 3.067536442412387 12.459974011368539 -0.3998391945901049 0.10040646354422063 -0.6580180611925248
Ni 0.33356893707924246 0.7892612103221615 12.884015190364092 0.9517609409424834 -0.4804340227250371 0.5607624845724601
Ni 4.292695206870015 3.0074667217804683 4.699471985102266 -0.39937922423455086 4.077915138238358 1.439442389258553
Ni 8.040164862307197 3.986467714039741 2.678960264301652 0.17602569284143235 -1.3873420690188882 -0.48960489059102774
Ni 3.2266626896270827 4.929255483092472 3.438961558855353 -1.260055750364688 -1.1931235073185131 -0.9767078406958084
Ni 8.424393610721024 0.5425809725370864 10.596795384287455 0.43817022895981955 0.2312380763475179 -0.4542527363439789
Ni 0.5902119577983919 7.65601904493888 2.929430450866587 0.05135727142605348 -0.4963126416285066 -0.43704999931244726
Ni 3.728874672121458 4.54794775039276 9.003615362077065 0.7175655817388545 -0.11861990122845377 0.9673428545411404
Ni 4.917129121326618 7.128457806199926 9.199195332530284 -0.7029372903027183 -1.1568218446740013 -1.1669586759976869
Ni 3.9087889680776184 7.127849645199511 3.655661302232081 1.608724849838881 0.6195661849742298 1.1183817955302482
Ni 7.00875144928487 6.690849108158748 10.207792572020368 1.8862504963990288 0.5703074479484178 0.08567301398878793
Ni 9.037622619473009 3.943887229450065 5.001069161224833 0.353785594765152 -0.4439600961687193 -0.40318008603787986
Ni 0.6758834136356676 5.141383882949413 11.455072732140067 0.11717545547244335 1.2567835073713192 -1.0683913225447341
Ni 5.2712999730229555 2.768026364268518 10.443144428988619 0.9296656517053409 1.5015787535779817 0.03565271620660312
Ni 0.529922009167838 6.989023075013827 9.332495930716744 -0.5387458710920529 -0.2113721906615263 0.19511150582828976
Ni 0.9485745131172882 2.82897146815861 1.5873140329245674 -0.8993549165369414 1.197886475924795 -0.07791111065518194
Ni 7.593065166835296 4.185622012554491 10.705415703329793 -1.4602996923235367 -0.133158461164261 0.68383759335879
Ni 2.193516939209634 4.313612259460052 5.704872693515925 0.3315946604904096 -0.189691363253983 0.22801545564516215
Ni 5.2153399464241454 7.08069873854611 11.907327052818518 2.634456685841876 -2.478581242696073 2.196519655938785
Ni 7.821825848597531 5.77821138142963 12.619869674394364 -0.13631320474315878 0.4016878177630695 0.04854654145013575
Ni 2.8258385175504106 6.3715369392589345 7.722497492476689 -0.4493753536470197 -0.21053941034758578 -1.3381794912513083
Ni 2.268458960669888 8.663704964384403 4.025352238367803 0.6464041311026804 2.838341309877105 1.7238927879629922
Ni 6.040761856957357 0.27731404454083725 10.410682453407366 -0.36631920845578847 0.2981042420424479 0.30816985380856604
Ni 6.388519374467498 4.6933627314162765 8.470725342935989 0.8300004372025188 -0.26042523943443535 0.17394052817762948
P 8.919178657361845 7.9134830830085905 5.006692807566551 0.14336779759709503 -0.18577171648460264 0.3635485876891868
P 1.67340106544546 5.165221951253566 9.261732712494192 -0.30383086011357996 -1.5151192112665777 1.1559481838197962
P 5.420216487079167 5.270802386749888 10.371922325647573 -0.36527662612388706 -0.8458083507690531 0.3303854706736568
P 7.7637280439366565 4.903961514211568 6.559925866610275 -1.0633175075662527 0.40363414285616295 -0.5443295358274174
P 2.547107273587393 6.459029192273212 13.145868123653463 0.695986312906182 -0.3918561763846284 -1.2764205648759566
P 5.874356106858904 3.1486522194829165 2.2184791839084936 1.9726321064190673 -0.9785736902599533 0.8203919675784774
P 8.613034095577083 0.12948208426870036 1.361402493303671 0.583822194605401 -0.2990349813868334 -0.2048351608739569
P 2.65070657855206 8.138917308389768 1.948224414252779 0.4968566870574345 -1.9115573505949337 0.07990345849486238
