# total energy = -340896.8926794652 ev
CRYSTAL
PRIMVEC
9.02741609374702 0.00000000000000 0.00000000000000
0.00000000000000 9.02741609374702 0.00000000000000
0.00000000000000 0.00000000000000 13.21253595840496
PRIMCOORD
 96 1
Ni 6.242268611955962 1.8653801122398805 11.284576072231982 0.4968975675976991 0.30914507323764173 0.1963348367124296
Ni 4.578515836841341 0.4853021503611201 5.97083768308737 0.2624913779348447 -1.2410339578465466 -0.32155450264558816
Ni 2.900824731369816 1.7285064303283888 4.728885505724054 -0.5236257276211627 -0.5195638988469633 -0.08422265469550658
Ni 3.6107407283042376 4.437245803321162 5.081290550936775 -0.5866892317405509 -0.5035382128426683 -0.702000894531378
Ni 5.107567553529307 4.509076952705791 2.6383056676102488 -0.10857614383920655 -0.4126893110798957 -0.2710145849145074
Ni 7.169050224281477 6.1688035002691315 2.6364297705583293 0.46993080920086805 -0.29281085485399244 -0.12707420264339403
Ni 5.061455512426293 4.52457702603662 11.4391624471443 0.17760589284435863 0.3560239971773675 -0.3944059393896756
Ni 5.609175925473116 7.75241087583157 12.330903241391221 -0.07896397739972852 0.7032486508955502 0.3624928927311628
Ni 1.943602672176767 6.362035340482525 0.40883000639327705 0.24861899082812666 0.08646208554898657 -0.2749578858329716
Ni 2.6477682050973628 1.5265902158900342 0.4124436810317924 0.45795383934465 0.0732710407800093 0.428409807138946
Ni 0.42766390446555935 0.08651424156435693 5.131365627678831 0.8812648918044501 1.091774734465681 -1.4046062554159746
Ni 8.528551996793343 2.3283601709730792 1.393777065710754 0.2152311593963003 0.5533697916528146 0.6108740565168705
Ni 7.021451972121282 0.6618648668672478 4.87875505575847 -1.2638180456205976 -0.6316066610785316 -0.8254981784567912
Ni 0.7173554904882574 7.186798124204838 2.2360629666971734 -0.8504383933418967 0.749424121010348 0.8255339167907331
Ni 7.629728291925939 3.767429588410936 3.683350943692623 0.28123343442903825 -0.1104255383431195 -0.0284651973192284
Ni 7.492574760117385 3.7675830544835187 12.43542717794393 1.6502489372245963 -0.10295159856357754 0.30913170350120306
Ni 7.939296442572877 8.741066397655922 7.0284220400413355 -0.976191563181022 0.5137136107137733 0.5568104419032475
Ni 6.776231242966568 0.7132597518335124 0.2321427115458765 0.2502377573784723 -0.18384287489300596 0.4760564624826317
Ni 1.8974816036577185 6.438226731811703 9.29717237745697 0.14744273899741706 1.5300987153945456 -0.3544083159508154
Ni 0.0575416525439941 4.8252351170577406 1.5015255952709037 -0.3625049769160208 -0.5589807100816888 -0.35988579412561894
Ni 6.427240366498006 1.9067888695890434 6.865339061157569 -0.7064005662609705 0.17007616012621676 0.6277276377390997
Ni 3.345605519377941 4.229073589571064 0.634317706838695 0.3584161515586279 0.28358702226287935 -0.12946687124528672
Ni 5.903325249533533 5.418742584230343 4.761560238060068 0.3915638419551902 1.6536895874750295 -0.2503555139032591
Ni 5.0834192156376545 2.9075411288993074 9.376500795858055 -0.003843542115806284 0.11540345117368514 -0.5931565846324495
P 0.3193601888193025 5.3082650668030364 12.413851653622045 -0.7304843466830516 1.1914672026620126 0.10133797421955451
P 4.076744971408914 6.053893521569002 12.623203750647821 -0.8525690665316543 0.471152340312795 -0.10958350205779838
P 2.2680028673679984 8.511255467671695 1.4365986136692792 1.1242086866246703 -0.8261826061183255 -0.6504921851291249
P 6.394588202702077 7.68682669834265 5.785994117853014 -0.6940250754147532 0.13631011941936524 -0.5240394181198136
P 4.717474851856746 1.1528010275753513 12.609899144896524 -0.9354969136751373 -0.7577573234663918 -0.14600343544772917
P 4.1944624764957 6.203703490657592 8.098161812685436 -1.1292261944439197 -0.47250319791373463 1.2620822938764136
P 4.839047063590163 0.9115433340596797 3.6816068469148036 -0.2138939286421155 0.20728413663508172 0.02557579158657531
P 0.0731717206657166 5.61519721196797 3.689970747870548 0.6258872420962511 -0.6736372557870205 -0.3610846995297265
Ni 1.3205755545721243 1.0138600673920135 2.645453575626178 0.8885076894097925 0.8280122031278965 0.47628323378145715
Ni 1.808399062231614 6.55372349255406 4.8453012574187 0.6303851299666047 0.025562936070768878 -0.18351968722563233
Ni 6.144799601034028 5.701896515561028 9.175881821103824 -0.4687241904872766 -0.6593311235769935 0.6005608475163206
Ni 8.440995088677028 2.217449337576127 10.160585140188376 0.6964951342218005 0.8236117600673557 -0.202881893802328
Ni 2.2424823622391377 5.279287061333053 7.003265339778656 1.240832640469018 0.4714526451620332 0.0964384800354081
Ni 0.7232521986418379 9.035360160372887 9.040598769897569 -0.1726783736357542 -0.020357737720745582 0.4422425992569803
Ni 1.5065312974619023 1.224975218769282 11.499041297699563 -0.6195579574441136 -0.16951231720294677 -0.6990387265792606
Ni 4.199436582730579 6.590447020981442 1.6628373951287478 -0.06454394531965658 1.0517426582444596 -0.7718927344265093
Ni 5.725142111849255 7.776017568761167 7.942041679788896 -0.5312300223309818 0.8694033644801737 0.14866889809503428
Ni 5.420358491700477 2.766596082356364 4.718856949251593 -0.2636848840223136 0.31202882254334 -0.06820365355943092
Ni 0.8477682507440273 7.563746908131513 7.008338747589912 0.9372753457317987 -1.1818538479419645 0.39565395286416377
Ni 5.211662687820391 4.5210473063672225 7.060898169224596 -0.024124660962345546 0.35752295032039716 0.5486209641139196
Ni 8.222856607625104 7.165565641692252 9.142414481640001 0.13054030681512357 -0.06245415267016341 0.08872182811744075
Ni 4.363220991840207 0.42542781351387254 10.316652011330314 0.21723636275178718 -0.5855923991319464 0.8824049189461641
Ni 8.363431530110644 7.188459168755142 4.9103997599249745 -1.4984103831523292 -0.5696726425778963 -0.28864258240891577
Ni 7.203246076219265 6.084965887558934 7.059246152090326 1.0040934317976127 -0.5577882324354846 -0.673508186408324
Ni 2.171734502778621 5.273049116853378 2.710446457364853 0.5272610103809049 -0.7522104255062335 0.13753859250982764
Ni 2.2846674773672473 5.309899029105238 11.390487522629158 0.7603335688340003 -0.7890173099219379 0.03680122798874952
Ni 1.0622018802554904 3.3560231574814803 4.06763811411355 -0.06574902137135129 0.26957142471007767 -1.070838755643962
Ni 3.7562807296086214 2.5417141215268444 2.521744574517452 -0.24638984438729178 -0.2818859804113726 0.05862732272490548
Ni 1.0452935300233164 3.4150263486814216 8.043725591257228 -0.8727931068880129 -0.5519333163166042 0.5878824807177038
Ni 3.8281209064092843 2.748116961734228 6.880428387058839 -0.6284431757488855 -0.6377053177771017 0.5929714652048368
Ni 4.184703839762662 6.786468332749423 6.0138578341986495 -0.024639652925551113 0.8452409083013571 -0.9934552353574763
Ni 0.7523240892385775 7.455147093239331 11.597487977778009 0.5092512040670456 -0.6242911012537248 -0.20945440481352312
P 0.3046400842338337 5.580929140701908 8.00884455844244 -0.6733086688030081 0.3734187956150472 0.3442383173963491
P 8.528407558136793 1.584753857398789 7.998948704985682 -0.46615488709820363 0.14859947830967957 0.13553467470592143
P 1.7138729889368487 3.225549913538281 10.293688070422357 -0.12057008297628911 0.2490763900805194 0.662585368848233
P 3.969201364192742 6.106451137720479 3.7331362403799786 -0.5939351146696867 0.31525067191474737 0.7849914765919964
P 6.828211104491853 3.8704233779458392 10.300400856985434 0.5663739172219665 0.48623443145689804 -0.29918179137734285
P 6.520610930540385 7.880509909357757 10.294322697769564 -1.962012936142324 -0.8922409311999795 -0.5793857561006022
P 2.4607562545315766 8.511345741832038 5.723974866956025 0.37663781677297714 0.028410175711576877 0.024898563013892604
P 6.899536718578564 3.9961572284710507 1.491708280333643 0.9428672379972795 0.30038763875998586 0.7182626078058791
Ni 5.431832337480025 3.0575497011406516 0.25258439241386105 -1.0753844660331158 -0.3540105662917645 -0.23770594346004867
Ni 1.5735598615163031 1.0604325067127751 6.9751223702918415 0.13732879049186672 1.2907500941247514 0.10082066826350379
Ni 6.532761832522503 0.745535472380812 9.083248796951443 1.0853863144408338 0.21267471152303372 0.2690723735864721
Ni 2.6127328034683894 1.628672236405477 9.144937644421578 0.4004328623100459 0.04010252444784061 -0.20521234170771757
Ni 6.222354132184378 2.045865241012895 2.370117386581165 0.41198431459307105 -0.5419417523215311 0.4919744192644689
Ni 4.21877330787597 6.8754244903510475 10.401423961600058 -0.12327051262658772 0.13280801980337772 -0.33234079462781474
Ni 8.10088718958618 7.025893460810138 0.13699284380314386 0.6888831262024975 0.4999330119899132 0.7752678215463293
Ni 7.4459120466362805 3.6952644246330393 8.14369158545424 0.9251613360770842 0.2759760426848408 0.2732887256606648
Ni 3.1485009176858485 8.305240806353785 12.508888678664347 0.06658411567813693 0.1756809079075039 -0.04000662229992465
Ni 0.1091938188672352 4.829857154067283 10.153199811130746 -0.7293875140744471 -0.5230706264486411 0.15149968267561006
Ni 8.568832327138223 2.372296604811836 5.870738985874656 0.8273007788831688 0.7221876538918981 0.04414198462453688
Ni 3.5620197639673217 2.8135296183184955 11.504287129157072 -0.625560969105084 -0.831020393826601 0.0357200791094288
Ni 1.3464661837583898 3.333057411090316 12.775729166479517 -1.3887818867892083 0.436847396383338 -0.05369568975124301
Ni 3.216134318614545 8.331293929028668 7.8451413960771195 -0.07834922663386507 -0.0851024861972986 0.9529315642118169
Ni 5.517674036549829 7.798793739415611 3.5391758876926196 0.5207743742152967 0.26679926128157927 0.6223987693270184
Ni 3.0819778889293663 8.371095806323732 3.5539212690429847 0.2344298438119382 -0.10895281045233494 -0.019054702638605894
Ni 3.2254867216260408 4.371092898622085 9.124312707008098 0.5769552922822385 0.1357619602253791 0.07541199838241205
Ni 7.10901790765363 5.997463143938825 11.45447565296322 1.1438015211549333 0.027438812937243064 -1.5027344644489795
Ni 0.4259297378453776 9.137279687399714 0.4828638452902657 -0.3499497659588296 -0.43932568272050143 -0.6958734414774016
Ni 4.465591889668747 0.19061930601307822 1.398322369684005 0.47545739544605214 -0.5025619649723281 0.572945142681581
Ni 6.114539702487178 5.660785662940997 0.3383836626283044 -0.7987301663343276 -0.28165149580306337 0.6711407146174119
Ni 8.105716857164511 8.974434129557647 11.066582029836605 0.2556139340887211 0.7713291486135555 0.7975819116624974
Ni 0.08957273011676514 4.956448609115749 5.9058709808551955 -0.5024262107254122 -1.0500452159373788 -0.6424171214304742
Ni 7.949966848325375 8.933747565491224 2.568464160719572 -0.2653509588708269 -0.6080607554377915 -0.34018497326258185
P 8.612380582087507 1.6045058436817559 3.689363202771442 -0.9833844813850355 0.8260231977223258 0.6467026361797057
P 1.7614113617732765 3.134228572935679 1.8517107988807997 -0.0795545597958759 0.4503947960504695 -0.5587966190953408
P 4.593374963633736 1.128914484748692 8.143361182027386 0.330769593485953 -0.5783845685295975 -0.26015527360250035
P 8.52526601735687 1.7538283323044959 12.501186487303915 0.11382787915644912 -0.6921155170968661 -1.1363293811476043
P 6.3893252191541015 7.835932528980568 1.3598998815589762 -0.32570374892727133 -0.32375870938575857 0.008962865620242629
P 1.8901332870058287 3.255981332989781 6.0481836809273295 0.006854046807355937 -0.18629802130171785 -0.1654034372408958
P 6.9604898316419055 3.995895433406057 5.878415900470192 0.6350131156569192 -0.887902965946258 0.7966270039483958
P 2.337152874190451 8.480056717857282 10.40805640416043 0.33565031861702194 -0.5981620082668407 -0.6905929098047526
