# total energy = -340876.87131221057 ev
CRYSTAL
PRIMVEC
9.19425333193904 0.00000000000000 0.00000000000000
0.00000000000000 9.19425333193904 0.00000000000000
0.00000000000000 0.00000000000000 13.45671912066284
PRIMCOORD
 96 1
Ni 1.6309778114394637 6.73039578944557 2.41069095761056 0.13399612657420795 0.5317331872196456 2.222050710330354
Ni 7.7002056419783065 3.248789451957171 10.348459558744265 -0.2829033659322934 0.24783454725361834 0.528556846374193
Ni 2.108600888983743 0.75985171989653 6.2235441802251295 -0.5698281943191541 0.33655868936390426 0.5706900280988171
Ni 3.965040183204851 1.551833677853933 7.706434748681861 -0.6376161004974051 -1.107090538887145 1.2478244984058187
Ni 5.897920500501017 2.303941997505838 1.619785646730627 0.3501027465969261 0.5396275023660577 0.7586978330027901
Ni 8.437924955001337 3.512305949714478 0.6966798433817222 -0.5988572345616525 -1.3071588745000777 -0.7869897379689478
Ni 3.601159214929461 4.001817196952774 8.517995869333316 2.006336183539732 0.818715608317319 0.7713170644286974
Ni 8.727985262431208 3.218099033984529 7.9709534200638 0.40985775516837153 -0.19136489430166395 0.08582033819992962
Ni 1.691365668013554 0.1577356925394992 11.306874053567208 -0.12385569570609636 -0.5907487465219051 -0.6168199896876603
Ni 4.967673520507608 1.8613030542892703 12.644458640705894 0.6968851705713676 -0.5631669802488947 0.14289291484320552
Ni 1.7389827065636776 2.1881311812136275 2.206336722444193 0.03983538682938301 -0.10935621653834068 -0.7891103838563766
Ni 2.9746995627473365 0.2848627959619455 4.045694932630077 1.8000023266330614 2.469688568192134 -2.7520090650377638
Ni 5.4237452679956055 0.7094267563467523 3.9734464891222823 -0.6759057401062231 -0.18971990249907325 0.3309313158747978
Ni 2.719421116069564 2.2089193882346407 11.935746277851196 1.0350929655029206 0.7174272563887774 1.1986326100622
Ni 8.150724060390367 5.532927027559753 2.1644054102194983 1.36212443210268 0.1560639050075248 0.01848314640585204
Ni 7.349444873357489 4.010505766450721 6.001912103999988 -0.49185049209209497 -0.9715010996838881 0.937875698319959
Ni 7.17805479503873 0.8587855645798184 0.14620977643090002 0.8109123102228163 2.366346676168673 -0.3707998699349614
Ni 4.156997806462136 5.454481657235433 10.536651215793762 1.4024622124897783 0.8208434532935992 -0.7157375273911802
Ni 3.770066844820236 3.3449337601476796 0.9277829200722971 -0.9020910845211818 -0.762586626534235 -0.4974840362287884
Ni 8.62044927423228 8.427544642870986 1.5610601111779434 1.2088576302243181 -1.22398163034995 -0.2828794546728935
Ni 6.488568535546102 7.3348443988995635 1.8180293810627763 -1.2872420809714928 -0.7465128609008241 -0.5790862225823125
Ni 5.759215993150724 2.2732331910263217 9.010538461929784 0.09007140016679972 -0.11863969872279567 0.3591571434897105
Ni 3.2847205943888924 4.688545180414309 2.7865364078834927 -0.27083023681784324 -0.17008798720075868 2.161904894078393
Ni 0.6675533679187107 7.132460492244742 11.458167332723415 -0.4363303475376034 0.4163595608426313 0.548409619434062
P 0.5155879888362606 2.198364385288987 6.085383972678306 -1.8497773411736593 0.3862087482908639 0.0452537296314769
P 7.199835981430938 0.27658520959263166 8.542298120017943 -0.525453781968837 0.2146045815558949 -0.10625700878772669
P 1.5177321918561713 3.3885329099458428 -0.1593069904518792 -0.02490319099958292 -2.484989717325578 -0.1226364785870146
P 0.5767637929298999 3.94092365643965 9.922231438487364 0.3642826376417339 -0.6573989395512873 -0.6742329803894904
P 1.139765627315327 4.624939335137276 3.3152914870668533 -0.9100725600647617 1.055060409763783 -1.0929142473867628
P 6.359278943715277 6.20892531726033 9.763535865889043 -0.6214387194065943 0.24989785754055027 0.8785662619263643
P 3.869953214159595 6.6097855728592565 3.9270338977724033 0.06838337367040481 -0.38114753171787263 0.20548667841502674
P 1.747919520904423 8.940547207640767 1.7346522131948596 0.4246408270148171 0.8523276399448096 1.1793138551289304
Ni 2.7241193795758614 5.339020222573827 12.467812207697214 -0.20072859490475106 -0.8937427125564866 0.7090490596274112
Ni 5.229268419296587 5.264923734125198 5.713925100720156 0.5494259765137183 -0.8850991779488756 -0.9399816889193682
Ni 1.9421481247606427 2.9021477088761203 4.500384783826496 -0.2771669776691485 -1.2200231599228344 -1.5300724901423004
Ni 8.6231891617565 5.671447649841306 9.905504333209464 -0.5581358455828903 0.41884633182022707 -1.5624141396977995
Ni 6.530071395560633 4.485729143847948 8.508696801407153 1.0794614643159668 -0.07414367319294973 -0.23309261305775342
Ni 8.97047450257814 0.3586411632416544 7.193989355670361 -0.5162392053491045 0.4191227254100653 0.8339306254948604
Ni 4.971461552923645 4.168840004888968 12.480474533530625 0.7877721246609272 -0.7340432676789035 -0.589948619218113
Ni 1.864364740683785 7.33494553568737 0.17946263283642855 -0.808692162643046 0.7354841138904882 -0.5516337827983144
Ni 3.9984612944482762 0.9092390303152506 10.337236133573741 -0.317817147090343 0.4708556350079826 -0.37086054796956774
Ni 5.076938028352688 8.682915032083129 8.64389645934727 1.5517504893363663 1.0580819701989261 -0.2807143287007746
Ni 5.025551345893403 6.403898655644945 12.727835808573813 -0.08145820457649197 1.4156997942259746 1.1359876815374694
Ni 0.5005820478017643 4.341737940771392 5.2947747167590435 -2.0850880449286544 1.506295956547993 1.6937900550403413
Ni 3.002696064462943 8.006263950388524 7.258352807430602 0.525201813859031 -0.2818307016934049 0.4749462601375885
Ni 3.932363806489821 0.894188037438913 1.2818830415414266 -0.37076438871133566 0.9289621978804129 1.5841245347916977
Ni 0.4838291986142415 2.335469092541245 11.578686526200702 -1.0691811654358812 0.6088364572615514 1.021909376933111
Ni 0.625752614092821 0.34677781803191804 3.988975583177343 -0.691555273718022 0.03382389052798045 -0.7257031232443244
Ni 2.9079125057811073 4.954387824291172 5.5983993062844934 -0.769984461660203 0.7954142145872172 -0.7513226235846415
Ni 8.301978723682138 1.5509142525102348 2.256906955198275 0.09072934546577277 0.3593569182053424 0.12699475555571033
Ni 7.496139186944518 -0.07483386757427425 5.061987252838814 1.9358573607928786 -0.10185219485181168 -0.8620826624490444
Ni 0.30156139905419005 4.808024503827874 11.962848178707384 0.7041775904677228 -0.29707811477077867 1.0527219914385935
Ni 2.2735182128828684 7.817101380176081 5.090407609637865 -0.7754046042345097 -3.839822500862851 -0.06752693920738048
Ni 0.79254556569309 5.86221921440522 7.330413688168282 -0.756248343021033 0.22376516500924046 -0.23288101126757957
Ni 3.315466177882156 7.608217136341314 9.560178287795248 0.2752890439201452 1.5532232172271507 0.665198638101364
Ni 2.0205199410574672 3.160303956879668 7.214389565196335 -1.3472035491267895 0.5845004516193482 -0.6857299252854965
P 2.9019638238073813 5.892780912829745 7.531873572352687 0.5069392681044173 -0.6502042215750609 0.8706688614561585
P 5.384531777086882 3.303504454160644 7.103492157940846 -0.09147085161748762 0.6244494812084601 -1.1406881723369324
P 3.8177942144116033 2.338558361696071 3.459642185452796 0.4806834197316819 -0.24783557569488285 -1.708749761673967
P 4.1405952583305625 3.259031850285968 10.587302357978091 0.26812157963742855 -0.8475402458584951 -0.1859295822187056
P 2.996545108913603 7.368982661911073 11.73471668472764 -0.2397905939032193 -0.7397349187470421 -1.5444686109629724
P 8.65915708120197 -0.03120897386648768 11.573047690567801 0.6149783084932312 0.9563259346053464 2.0223772961629947
P 2.2408786131815863 0.31029685924466555 8.6605022004798 -0.40891416030817956 0.7210969919308807 0.7650844532554243
P 8.686942115088526 6.563464924043747 -0.07480720423930702 0.8241655756882966 -1.0128866046092104 0.74860445332253
Ni 7.117814046519632 7.986294031923403 12.818197850777803 1.2154293699045648 -2.362905511697608 -1.8546904622045606
Ni 0.8991722422271002 7.82809770728671 9.121785250815877 -1.4244068350816694 1.4260775379158732 -0.8915495615599097
Ni 6.386567487916236 1.4178642110236854 6.577240673968375 -0.2767147206230783 0.4322165824795459 0.24970605324471834
Ni 9.002709555128195 1.096911212045559 9.796141446852609 -0.8496827461227947 -0.7571335738394639 -2.04962996123136
Ni 6.2338969095951695 8.146651006117786 6.641752153208952 -1.8984678644008275 0.2582323455481746 -0.4624735815918745
Ni 2.0060206033873484 2.3979532388989666 9.54300710007634 0.646463523585706 -0.5888512723888762 -0.35646134182510225
Ni 8.927969468938977 6.6957334539881534 4.08011729807279 -0.27191395680032526 0.2258109917946756 1.1577376716200511
Ni 6.5135769048946885 1.1882928969557116 10.901800071618112 1.131326528616374 -1.3173183315315828 0.594283499148041
Ni 6.33643122392438 4.85249710770255 0.9568496328879682 -1.3916095860459903 -0.214706654351398 -0.9948019791933576
Ni 5.141757515083403 8.082401563100163 11.072605395418279 1.1549454535868948 -0.39462114072427523 -0.49515667364719235
Ni 5.942448269896315 7.330330020462006 4.384454442239605 0.2831877299419316 0.029333973077426898 -0.3773117029115502
Ni 5.80661236961836 5.241735826957133 3.2825112152879856 -0.05726155272563041 0.21874765718999103 -0.37983292667150714
Ni 1.9580725717134932 5.970729793468468 9.678691295172586 -1.1072748869838092 -4.3823838890462525 0.14896791739269183
Ni 7.6221648188052145 6.9643803451632955 7.898031037779074 1.2193649575135452 -0.6814984037026521 0.7575493212206437
Ni 3.6887160904098293 9.079573513861355 12.723812403269788 -1.2253962513092895 0.06662936709377557 -0.27500262302797795
Ni 1.0733555347400143 4.991679716231565 0.9853711264748265 0.2232416884056026 1.0313550957270432 0.8591217800485076
Ni 7.240842351759872 5.435973625066789 11.860618194166939 -1.3929043935980139 0.2206646717070458 0.4732153934894108
Ni 3.779003659160981 7.805406289804242 1.8190793648052794 0.5773905800474443 -1.2136972177048067 0.4151701685202205
Ni 7.683692762805489 7.889165938615137 10.145747417241742 -0.4128800869344631 0.9028112505166581 -0.0993646525432676
Ni 8.101589970023142 2.2459814238391105 4.597272907120056 0.49835846841394177 -0.12409198008661852 -0.05578882483484586
Ni 5.805417116671553 3.0569605482480036 4.339146080727507 -0.5106583688272174 0.1101548011802361 -0.05296189690901201
Ni 0.7136239330407341 0.8496593486182711 0.1814007814609441 0.18738482660799344 0.5495858991303503 -0.5448483844453649
Ni 5.156817702213178 6.2477526495247 7.744436436987591 -1.2613323030842665 0.9884549539294073 1.6027917721838978
Ni 3.768513015989386 2.625750062053603 5.707182954674819 2.6827214343855346 0.14082626212216393 -0.13244240893384288
P 3.9842285901278296 5.512644504477772 0.9997748439092007 1.0632717419299815 1.0028014524590665 -1.0224477659350844
P 7.423431030764873 6.0643548762172435 5.894446911552525 0.04338248075069303 1.634234306963895 -0.6138603928387041
P 4.274812970003609 0.07940708923382851 6.031597590071968 1.2841865819746205 0.12406678327563794 -0.9995189250530528
P 5.467500720102197 8.731249222401336 0.3158400746418213 -1.3045358350549339 0.2974776642020425 1.285394743350109
P 6.959452225321074 2.9453698942833673 12.522728564050956 -0.20481022117329242 0.5265490719155448 -0.21572069743820912
P 7.33884389914465 3.5984285216586778 2.8513439420847395 -0.06536592700031969 -0.45873391204378416 -0.6076882025897212
P 7.07408617717335 9.00865823710192 2.96639899074443 0.7794903442681091 0.5305077994529767 0.3541059542190482
P 0.25933770957019936 8.123398739175661 5.693524891194184 -0.15852882160824958 -0.4127469037907085 0.03701308688923948
