# total energy = -340870.9472505391 ev
CRYSTAL
PRIMVEC
9.19324550278964 0.00000000000000 0.00000000000000

0.00000000000000 9.19324550278964 0.00000000000000

0.00000000000000 0.00000000000000 13.45524406082721

PRIMCOORD
 96 1
Ni 3.3632017209811673 0.676967604784549 6.658287009833451 -0.9660336488114136 1.3671812778002972 -1.165571308731857
Ni 5.634962966997389 5.703167654281675 1.8678569306952408 0.9334176625486053 -0.1736726192282235 0.49530168386548895
Ni 6.379229724398814 7.789896451049909 4.169713184703622 0.07661681732379062 -0.1937213103489825 -0.16968612377664968
Ni 1.595855461070105 3.359625548538306 4.135603486465196 -0.876364112068723 1.3848594118063504 3.8725778409170015
Ni 6.012207790115148 3.3638360549106205 2.580177160490131 0.01735263234583463 -0.7673984461005816 -0.1529526130720527
Ni 5.971068017154213 2.4702066402362757 11.35785380986239 0.4996216513970815 1.3977812620743413 -1.7663059628218805
Ni 8.627419489326357 6.092280957151962 4.617207272872485 -0.8464974064162777 -0.059451618398413744 -0.39974354955250513
Ni 2.406258425551077 -0.053568121355546956 2.012958518746396 -0.035839121185796345 1.4055894452648503 -0.34617127275300386
Ni 1.9548884651407998 6.964591235849455 1.9158383168489197 0.12128844919955241 -0.6281557264154537 -0.17730815909828174
Ni 3.8868949425945005 5.805828625154247 10.54778088288964 -0.8340170145610798 0.32999183477966393 2.2842017299378017
Ni 5.155636347464385 4.610063201907582 12.63499876031073 -0.21965731348845396 -0.3085480630835912 -0.7869629984960705
Ni 0.7854212395549283 7.755633225614064 5.348015119075071 0.44993019770922515 0.5027972209115856 0.2922434123862967
Ni 7.962922521865051 7.6595178454338235 12.527262198677994 1.901655003879557 0.5799269733160529 0.045520610139618375
Ni 3.861245788055728 4.011518576618732 1.149827695535269 1.725541122199693 -1.3714832476097605 1.268076049566003
Ni 2.2101205359149767 3.785042977313115 9.082787592141262 1.1815466011141909 1.8168672207091998 0.8213952120320112
Ni 2.3060612444334834 0.3004986915747014 11.607906406203899 0.386134957630135 0.441190246733066 -1.4339386858315046
Ni 5.113439351287693 2.458200261803431 7.530886875759609 1.6283336252087441 -1.181253495353804 -0.32387260925580347
Ni 4.267247082642046 6.590269864754396 0.2826003621942222 -1.1972794384684153 0.634148710774095 -0.3980124257940113
Ni 1.992461258904228 2.516779621201661 2.288158318430327 0.4100714138410744 -3.282774489027501 -2.6564020797647157
Ni 6.794359911622052 7.453910913082693 8.092669551525288 0.3760878578067781 -1.0138667091342926 -1.6713669501501345
Ni 5.65567534878085 0.3955145596105558 5.782606487389034 -0.5605925346534991 -0.26669795981702454 -0.5701272136168116
Ni 8.955002401039653 4.372767152819837 8.866978915420354 0.7521579750017433 1.0840750518285782 1.2439822418415931
Ni 3.952075052157189 0.8483177469715838 3.6781788546645116 0.9513153687646327 -0.46325056896721506 -1.567745836323358
Ni 7.292744128774724 2.8709585917252327 9.238841093383112 -1.4780891550964739 -0.82763939316951 -0.15575151597342854
P 6.6278426585178245 3.7715932593596295 0.45200429433973077 0.9806979356918077 -0.055540970490097895 0.36713039150317417
P 1.3364036906782593 5.819756391866161 8.382778037200447 1.4163577395249478 0.7437525245468676 0.61080103718709
P 1.6526329443788728 0.5389429770072103 9.285342367034733 -0.4711500263199498 -0.04884298964463201 -0.5109134222608169
P 3.668923095241703 3.7386262815187554 3.4378554698815638 0.2783756532652689 -0.2697231197965935 -1.4814711841948291
P 6.562460297557339 7.227095163698962 0.5419519262117051 -0.8682733646407886 0.5231084216651121 0.9363134960391616
P 3.7502189639106525 1.5872505834183879 1.2092123832265442 1.1955195183545153 -0.04992439563426885 0.9029315781446063
P 9.060154741403268 1.517418691706374 2.5193601651726403 1.3900964918355738 0.31005344398452406 2.136423719088153
P 1.617376848444753 2.105455437555145 5.943961733226767 -1.3137298428493762 -1.0443887889825496 0.5010013053534275
Ni 4.172069413487955 6.644914515140943 8.438778691276768 -0.3991182572636804 0.6325422855189234 -0.9550254706263683
Ni 4.13711669465053 2.4772946324045173 5.086876388160693 -0.13079176070429732 0.4614698229177085 -0.20492103571954387
Ni 3.710476564243586 1.7916164276466753 9.422747370075186 -0.7862256061094136 -0.05419396954390021 0.14719925552804328
Ni 4.517404481980595 8.900560002050902 10.60875967932537 -0.9107976111562442 -1.1445276006876803 0.8584617778670054
Ni 8.002903945911331 5.202935594812766 12.732360744561026 -1.9066506573219357 0.6000281149413021 0.46976291616443616
Ni 7.960725336225349 1.6508954210068914 11.694073775586144 1.9282391821259885 -0.3849607348163757 -0.34855468538351586
Ni 4.045855348017412 1.887161826614943 12.006490590438288 -2.2183598917423275 -0.3342794064114243 0.5286928577314249
Ni 8.114031895755303 1.7722830326663745 0.717216552270643 -1.4272754148787161 1.0719484437683733 -1.213188139278872
Ni 2.2288747564379503 8.012759104931247 7.378950109787459 -0.3797493658187654 -1.1953518824283995 0.6388309467411126
Ni 1.8770308702343954 4.733868637095271 2.044066622376611 -0.8356326957876318 0.3422511117629912 -1.8550036225696054
Ni 5.685204052859179 1.8709081688283657 0.17963693354948998 -0.8556906428797716 1.7040772958989618 2.2735501637612265
Ni 1.2820256444069897 6.078711727008869 11.411567184494537 0.6318737986969892 0.07090408320972949 0.9325709982775939
Ni 8.81931929285408 8.829156065383287 1.2496580661632222 0.546494147578904 -1.0126068685852625 0.600503511915824
Ni 5.856795977399034 7.028594610006781 11.755321934110755 -0.7140956209123831 -0.8761162577239751 -0.08874059717051813
Ni 0.29175867321627436 8.57072474522578 10.856026722324495 -0.3164922576313323 -0.23274679968256046 0.9455527552492424
Ni 3.397952188420795 7.942724961821436 4.552621966284226 -0.23581001198891646 -0.4586084422095134 0.5606508986952603
Ni 0.2855274915150628 3.5612609988963375 13.334187358441396 1.1110425815563576 -0.3587398534466338 0.647083416557892
Ni 4.935798271304643 4.2530435185695 9.116815470496034 -0.7075567913526007 -0.8425463921883296 -0.8137232973090501
Ni 2.594407384974205 4.459137692924415 12.847968562866198 -0.5829734734518606 0.23517212129460144 -1.3712647038410513
Ni 9.251714394852877 7.681305836923749 8.757587569623826 -0.19065758382199421 0.294127516782887 -0.689815922429412
Ni 8.17506585166316 6.370689199464578 2.2042920183602877 -0.4904415275597102 0.9133594583461495 0.14175263059117524
Ni 4.954267501221631 9.043110464516213 8.171302137015068 -1.6055125135491706 -0.300349843543515 0.591116414273969
Ni 0.726665369845894 2.4796481032152435 7.989723590046729 -0.42642440127780107 -1.1182964349052933 -0.7268657760938578
Ni 1.4293474012112324 0.6815669854353549 4.3164153167709784 -0.04300735679946141 0.8718685381912146 -0.1287734447226879
P 5.995191092964155 0.9153705206129631 9.81107924709035 1.3247819868984798 1.6647846689469266 -0.3957380279375378
P 3.121161957290553 7.44291579163883 11.894596843256291 1.0071329899548849 -0.9249127104013877 -0.17172706546607847
P 6.325109088997468 0.8059552723785137 3.7528555866782938 0.01780103273716289 1.135776851078244 0.03762423811067714
P 7.3514797733439785 4.754369574235581 3.6246144106071063 -1.1074931736422025 -0.40624586944739716 0.24997704751791788
P 5.870061830445431 6.343403647252723 9.620203571095107 0.810257707357953 -0.15047355540394086 0.964716729772203
P 7.717922533170319 7.931297757845918 6.102571876001676 0.7107009934085373 1.0297900652327685 -0.4487361774011239
P 7.509208283889402 2.746555595589507 7.047399393379204 0.2900070668566102 -0.676287548925674 0.6861482437698377
P 0.6865386925230137 8.177033206169 3.157945970602574 -0.7150878096223232 -0.9572006239008161 0.10373732768966651
Ni 8.19575984695591 1.3670999369165973 5.286053564710958 -0.17841270501637016 -0.540439970965024 -0.6872502185847648
Ni 7.032878662341932 0.5217847038777601 7.675786212412967 1.4737504185118038 1.7611437018946507 -0.8495341363600724
Ni 8.344304305392289 6.2607471782713215 10.593165177230702 -0.28593161123565597 0.31832185464090335 -1.021157072148119
Ni 8.47858084703864 0.9503057722842144 9.368281068648514 2.262030078936769 -0.19616000169746217 0.16818151420666522
Ni 8.80439865564389 6.137070448518593 7.080768116042066 0.48248036373110453 -0.2861866646692555 -1.0852531312970795
Ni 2.1306633163169066 1.877361827067154 13.39573153946642 -1.5509465053778322 -0.13101133291427114 0.14209175909814886
Ni 1.57513388604129 2.6715846797243836 11.258930812550917 -0.17920846144478814 0.050689298824751414 -1.0286880904178413
Ni 7.240839065503789 8.315667346113337 10.050475033417039 -1.0668985400492916 0.21135393582908116 1.8890763958835983
Ni 1.4695770428820818 7.897769992038425 13.19080766524512 -0.8173367256919214 -0.7921080330321196 0.8423576732162912
Ni 6.909974165198972 4.9764232225257325 7.904310066783545 -0.4198233510215157 -1.1743074030532743 0.8507006458643477
Ni 8.669230369198162 3.868719896528854 5.668169888542013 1.087106125345418 0.5068950451300431 -0.3130495504983705
Ni 3.0458325048566084 3.292229866845208 6.852850096540344 -0.6322016143500532 1.37971977658694 1.9066851101042965
Ni 2.1929015873661872 7.526252560776456 9.821897858223405 1.0292851005718917 0.5332550231808106 -0.5602294948871255
Ni 4.986315154527065 5.229366175206663 4.241389241433729 1.7627550122458286 -0.18895988440459716 0.6629453232908131
Ni 8.969509342208895 3.8052405373567297 2.3929070753228836 -0.7995740023918616 -0.16364094602383428 -0.009687402491092994
Ni 6.337428037772363 2.9585334469712365 5.1672446583733835 0.48848183273017803 0.5602359226450286 -0.30863316659822976
Ni 2.7355880538817092 5.642630133622957 3.916054078209583 0.2889793969230442 1.4793379399019102 -0.7318891974503782
Ni 6.407039291595871 9.273502386342802 1.6760251571831406 -0.35540924641150407 -0.7480840620426858 0.1439439818155392
Ni 0.31725797785577065 0.338717770486544 7.035693634069448 0.35000633022837785 -0.4755275865623552 -0.13979267865132697
Ni 3.409158754507808 5.709943076107867 6.40109034252704 -0.6585837038880077 0.5556776138503849 -0.7838074835862243
Ni 6.274334794905124 0.13003385891529526 12.49178086823269 0.4029808255428802 -1.2848296148752583 -0.9064624741160001
Ni 6.32737062735465 6.208023916163844 6.063497825271874 -0.7306820645161545 0.4737049315313197 -1.4042100484188205
Ni 6.644050350077629 4.693059820967095 10.679601908701832 0.6368074885531807 -0.4015672330248052 0.534591225493731
Ni 3.9635574156048334 8.965308029081934 13.343336476218093 0.2110142931014753 0.395994366922718 0.5356201809788775
P 0.3363302846680066 0.5563522257348354 12.701413522724513 -0.165455887745386 0.5516409818871661 0.7711838812849429
P 4.281073723655062 7.759062306131254 6.502031257193805 0.7788537391253748 0.5810294623516122 0.22639488932260365
P 1.4533233850955047 5.545972351966807 5.466488471957209 -2.566573905956973 -0.5550114410212957 1.423318744223813
P 3.6978818181080593 3.6729681231976388 10.899891373208472 -0.504621161494202 -0.20457907899909283 0.06721300751138747
P 0.11121988229751789 4.251425507387126 11.261312782422241 -0.45105814066608124 -0.4027962203358999 -1.4613106500865545
P 0.3560203775680581 5.807952264831112 0.667805616464355 1.7178627797188286 -0.3480013839832071 -0.08078714665139634
P 5.122559050679256 4.432284223244215 6.598788325899783 -0.041279832585393424 -0.8272840667126204 -0.04657167711195205
P 4.121249153168837 7.66316756383952 2.5053662070941742 0.034521945036269576 -0.7531496494910513 -0.7554410166283893
