# total energy = -381175.0560090911 ev
CRYSTAL
PRIMVEC
9.20001306638448 0.00000000000000 0.00000000000000

0.00000000000000 9.20001306638448 0.00000000000000

0.00000000000000 0.00000000000000 13.46514907422171

PRIMCOORD
 96 1
Ni 6.129536262432645 7.660804826464348 11.218394654150122 -0.5860472272811778 -0.19690562161423508 0.0513295035119116
Ni 1.2097281096217103 4.521189989472561 5.874683022266895 0.09828581765679202 0.5837316917741237 -0.9919259431971432
Ni 7.0021666956584605 7.2136841945809245 8.804268002438596 0.25870491430921894 -1.6746124536706257 0.5631003886770173
Ni 2.0281704662674147 1.1474072215480826 6.0839584780208416 0.923443839165345 -0.3664215383616077 0.15135570089857805
Ni 6.428343484715397 5.197482945228743 12.234932610750088 -1.7673603722283242 0.011624728723121916 2.2758872965348353
Ni 8.896504572789905 8.10764945795772 3.197218878399435 0.3713014921617283 -0.14962277736787133 0.48451873431737197
Ni 5.830747440175897 9.151308132885445 9.285297122242444 -0.4635881548122919 -0.8294502211260038 -0.6860294588037863
Ni 1.5376257730158893 0.7386994039507261 3.9608815976290193 -0.4757157913137613 -0.7537425458800437 -0.6904299018643271
Ni 7.004107898401822 8.660634639451896 1.7131712211016423 -0.13324407889953183 -1.247096876211175 0.5981018444528667
Ni 2.838673211692638 6.359398587280533 8.207223958679199 -2.2649565085549446 0.17485429824115048 0.21610944823619557
Ni 8.782580811789648 5.141473266074293 7.415297879507042 0.13727505443579585 -0.763036312477144 -0.41849306224586635
Ni 2.5858108543404588 2.6608185603434538 10.577170307953882 0.063928937443477 -0.7632057481754727 0.5630235126924948
Ni 8.612426571322901 4.44352347971207 13.286291696560248 0.24447874340750797 -0.36854141291808784 0.4856420492885379
Ni 1.4192860057748093 7.6970804777301165 4.999690945703539 0.8231034529723695 -0.1878136866152959 -0.2733740862856195
Ni 3.6066994970889357 0.8039624561823028 2.9196075660713388 0.6105015036688002 0.25609781570367507 1.047246313036003
Ni 1.2048981027958092 4.46222710614456 10.954410401080166 -0.46616697128306167 0.4495003092606581 0.05463285685353172
Ni 3.154610858184585 3.294699456161723 6.530799429509012 0.6574778724183385 -0.6811790726900204 -0.23837880115735724
Ni 1.6059726696056413 8.709459108452005 12.145173603900139 -0.4127080801329731 0.7614535413710564 0.5068202260280498
Ni 6.900230551599441 7.852781497771168 4.7791988340979 -0.24748873387842538 -0.578761492253042 -1.6347567551262685
Ni 5.988987663805422 3.5622818343166482 10.80751931348956 -0.6350863920970159 -0.6576694196038545 -0.9006299265946232
Ni 7.651016012630522 4.498180756955268 9.23547629183425 -1.1164372702093677 0.4917350495601531 -0.4365278082603901
Ni 2.858922440309416 6.60083452848458 0.41869351170941954 1.3039015439050448 0.33768200433507 -0.6906335332347009
Ni 4.4388590731202 3.2271897607551274 2.7248212107937952 0.43433619992571004 -0.01063433978539459 0.11431895986025474
Ni 6.748632737357156 2.097271763923308 9.059607923292136 0.9514601218726131 0.8596861371924098 -1.4510601760031399
P 7.379670829157894 3.0239338735082035 1.454694095814516 -2.2591640702428837 -1.4140360333703066 -1.019524164530386
Ni 2.150622639320262 2.452097865373511 2.0288071071671334 -0.8102805901760883 -0.9431089216944404 1.4965422195953386
P 3.1859921025334406 2.8336224045546956 0.22553003872537927 -0.7155081849891936 0.3738096032955627 0.20249699965908352
Ni 4.06888055025617 8.373585033785337 12.402856768065217 -1.3244991655507383 -0.39455172093892055 -0.8665409553307142
P 4.616511324183346 7.1524581080545016 7.0710747930413165 1.012876063086249 0.3163549607225196 0.018714802800683897
P 4.173917098696767 2.205859517382568 4.759418806144209 -0.4624609831863841 0.07637487651631363 0.16629123916248778
P 1.1715296556385835 6.540372043037299 6.867656985565564 0.8472049740062635 -0.21688566428058775 0.5142489143919531
Ni 9.045710383651743 2.6165388977661923 8.999136237831854 0.2500780918721564 0.06545514428001631 0.9611925186690284
Ni 7.806901032931607 1.3028598412380867 3.032688605880637 0.6979161829390432 -0.12374025317415466 0.4600338618021303
Ni 7.6801248537679525 7.066796786995519 12.992791961778188 2.1449106735132415 0.030975365335591816 1.1799995683420452
Ni 5.433178078319719 3.917429936221912 0.5166359301243936 -1.1774888861050496 -0.5842240580295098 0.7687572741213211
Ni 0.6946580217102089 2.6364201258629016 7.002174055668862 -1.0795864199296052 -0.22266601840779074 -1.355688446669349
Ni 6.650137398160779 3.628466727850997 7.085698213707546 0.21092713270430768 -0.15438291776067606 0.33126298818260363
Ni 7.815990645777302 2.4316646364966985 5.441630130264396 -0.5945341817062665 -1.446388224448767 1.791509972891334
Ni 0.9418329310247266 2.151248240204379 13.141877252469703 0.1223379735099893 0.9266690309708622 0.0437185239338731
Ni 8.438665925759482 9.078582030106876 9.144882843805046 -0.43284444587153204 1.180561354382786 -0.7525554675504782
Ni 6.908768163665034 3.4043084110641737 3.647075594149569 -1.115124207824899 0.553262319540673 -1.3789109075323995
Ni 8.093306637688045 4.771936343834345 5.056540586045046 -0.3753517509717019 0.5239067491966912 0.8149934222707255
Ni 2.624101308453603 0.6319111730346015 0.6519570813640418 0.06905623136771333 0.3912946474542035 -1.460170365834524
Ni 3.876857878884342 9.161805347720405 7.707195892025505 0.3291140601604009 -1.0347913751021018 -0.22603236377686234
Ni 4.40858183033155 7.162872522772445 9.492620335237426 1.1158849972503233 0.500228431743145 0.9974103633504823
Ni 5.706823265042776 1.385742758370551 1.7204281913573964 0.3029384302062976 0.6307268295767395 -0.45504746433113247
Ni 6.891840139741875 2.3670069451206346 12.85967513365375 1.0296409412494139 0.9571797979652095 0.4571863650510062
Ni 1.9608539711338548 3.799890570111981 8.57163095366939 -0.035677398796951455 1.607018665781052 -0.010419395561111088
Ni 4.379463789181118 3.0465935055314315 8.957124378459515 -0.35054600478193176 -2.1233064649799043 0.24467234747555283
Ni 8.520371241227727 7.366984011228527 6.376421371337609 -0.20615902189170304 -1.3007365159135018 1.057575977096785
Ni 4.199778335244592 8.417717496154573 1.302409960602303 2.1794519018232212 -0.6940443586884627 1.296593440279406
Ni 5.07548157281298 4.277389644927073 5.108960420126226 0.37819590528871644 -0.6588834945166137 0.358190408701067
Ni 6.578441696838402 8.730987138876023 6.899071349961224 -0.7445102286484985 0.5914275177564847 0.8867637101354922
Ni 4.705043049298864 1.642791121638511 12.871578110475372 0.03219483956498972 -1.0163923037696239 -1.1172757069502628
Ni 0.261207689146036 1.5223997514980483 10.944526827112423 1.2119979756255128 -1.2550739808793805 0.5757288760743052
Ni 2.3781481608657136 1.512215337105148 8.489965198257053 -0.739296802768359 -0.14168269658518826 -0.0012737245061010321
P 4.292900866847967 6.302229706487866 11.70777186575173 -0.28120155274983827 -0.6238828100717126 -0.4003919817697814
Ni 4.758412324721822 6.624800562354052 4.379808789668682 0.1469334034611663 0.03543340110694542 0.9286390102130394
P 5.183535725518141 8.46856596801506 3.38869322899636 0.34063440209517465 0.8175822660438242 -0.4480013561176284
Ni 2.0614745133336285 6.906596960596629 10.65043461149305 1.167166421133119 0.19049123344745902 -0.26978405494151597
P 2.7427446761237397 6.342378563227357 3.529471827948627 -0.09228511998866687 -1.0739785868245246 1.2972267029880302
P 8.039863762161072 1.251762969026553 7.456312457469994 0.21501133007601034 0.17707624559313376 -1.1294313684761903
P 7.748416550279695 6.270489661631944 3.5199783345321554 -0.068881653463062 -0.49415111520081345 -0.7696345345199519
Ni 0.6822683642007973 5.553008247667077 3.593686998699308 0.06747808824731605 0.11413589731517118 0.9084247400486936
Ni 0.07223758208817804 6.180439934371143 1.4522432123508586 -0.21147374923639706 0.2370405419619079 -0.11675225189209572
Ni 5.140056464072028 1.8312441879656725 6.855713528686735 -0.31240728892868136 -0.05103794041342177 0.33325816423576154
Ni 1.0821699293529106 8.775929202389408 7.636651112329641 0.46735199273009836 -0.5815107728634049 -0.29324100041287565
Ni 4.043644914592461 3.9454807758641457 12.038920813740715 -0.5701395549119859 0.7732384498211263 0.8676778971486347
Ni 3.4808801192774608 0.23918469802252693 10.18719279682672 0.09938136471381595 -0.37673577580342216 0.5743278819617206
Ni 0.6341173361524133 0.6063250168755278 1.807171433945381 -1.3780115356465816 -0.047177429016751 -0.9841774095999759
Ni 8.478713582355953 7.794241815041246 11.042472005531298 2.099099528716398 0.3701275264582851 0.005094640914088
Ni 1.0446982763969193 6.225151997559485 12.662827975463824 -1.1727038060115804 -0.36366043067670273 -0.34773938857107206
Ni 4.735384692178526 4.926165361795121 7.974666950023108 0.4911118141538574 1.036785265603679 -0.9812172985303875
Ni 6.97381225558717 5.170490107081707 1.6468547673813692 1.105003574451129 0.5674982606343968 1.7293527826362989
Ni 2.485061511958661 4.028317692931601 3.7523191428827056 0.5215976414475405 0.6544257158555762 0.9693352023808209
Ni 7.280890289558464 0.7255010652984636 11.208753960525621 -1.32844529468268 0.16409088907705935 -0.7794450928524705
Ni 3.7688497262441896 9.032002364279185 5.2833071065178565 0.5197528749293179 -0.5494036079162151 -0.5828377192049446
Ni 3.4417708640071636 4.94845699329828 10.085692733383983 0.13703491340053173 0.4991935627207273 0.15385018518565763
Ni 5.833019843387321 6.739800724875508 0.5724735690357118 -2.958237506714821 -0.20938421369722005 -0.012561124494462238
Ni 3.3335419110549704 5.650252385095221 6.081641914747009 -0.5047970249504339 0.5293286915432109 -1.428398729849882
Ni 8.226964426576982 0.5099935207371542 13.277714524438748 0.7238537287404114 -0.8146974882968615 0.4959704277977394
Ni 6.604450133594255 5.89271872775546 6.825646046194525 -0.9354868863728082 1.4233560252196518 -0.9397618595990783
Ni -0.08311107745490681 3.643784749498855 2.181151962465158 2.124358817503819 0.43581278447123656 0.2601992394665583
Ni 4.326940914954318 5.708497667409088 2.1997074686883202 0.15359898840679997 -0.5499556237649431 -0.5212507996310829
Ni 6.00875849174611 0.8700728296113377 4.9039804504427815 0.15483543191706234 0.5269619910832473 -1.3890317980164852
Ni 2.1589670511128185 4.513940379227209 1.20447398219643 -0.3647649765947911 1.1996471673696438 -0.6574159088321517
Ni 8.272200890506422 3.49647414131537 11.213035646576621 0.03495466169831399 -0.2347843989378795 0.046241804576359076
Ni 0.2938401352631245 6.65748820854915 9.132616466469859 0.11491339891114404 -0.055061973971150334 -0.6264127755824179
P 5.860564682314461 -0.32110805379891216 13.329124197092339 1.839267185670955 1.0050876773900819 -0.23407426024473238
Ni 2.1438146296989915 7.88061153710136 2.2602729942812205 -1.4521672930243894 0.647437200352885 0.20666321522163117
P 5.263640238724087 1.5732666233845392 10.446801523713058 -1.7139050806226612 0.2782105884423144 1.7374391591888594
Ni 8.791035623738226 0.12578993776986983 5.452213825221571 -0.04217689047836608 2.3254928753771047 -0.24186444571311247
P 0.3388337188493194 8.013294124612116 0.37666509231367795 0.4634925097746921 0.7234660063836895 0.3496096090105914
P 1.3028598412380867 8.942403437655468 9.935354400921632 0.0250559145273633 0.07674485826122265 -0.3811516454829307
P 7.592227929549553 5.888919122385751 10.79428325478399 1.4995378118885527 0.9871814865336225 -1.8140078968835338
Ni 0.42244435701021943 2.7464798814024367 4.262662264113925 1.054564701074287 0.5315524386674071 -0.19501791767321897
