# total energy = -340862.4354851753 ev
CRYSTAL
PRIMVEC
9.35898139839338 0.00000000000000 0.00000000000000

0.00000000000000 9.35898139839338 0.00000000000000

0.00000000000000 0.00000000000000 13.69781529688782

PRIMCOORD
 96 1
Ni 1.1037889237689744 1.8848614460982065 6.184467411496718 2.140059001847895 0.48486223369971976 0.338485731183288
Ni 6.651690231496585 8.981000351916812 5.27059094112416 -0.1508893027851208 0.13056164697136224 -2.409221106934696
Ni 9.277455451157149 3.676133076802949 5.879034241265686 -0.39715367733814183 2.466123990769327 -1.1198303550513165
Ni 7.460334313440732 1.4114654418749872 3.47491684550331 0.08686934828973426 -1.5744975532248948 -0.7110360081504529
Ni 8.594596081101818 1.755398654464428 11.95280923450394 1.6362024864338596 1.011579712872329 -1.0846610062390352
Ni 6.673487299501723 6.072238248469492 8.843816400513072 0.6416758723890755 0.4970029828273118 1.5418178036036865
Ni 1.2880017574079294 7.310693557608122 9.660863911981398 0.9617545618200858 0.4501435992716119 1.4270576424409551
Ni 5.720827209630113 7.824220874672058 12.816731205012081 -0.8685513008925236 -0.9212409179767553 1.627515757293139
Ni 2.5761064636127924 5.242227611671018 11.024754842997428 -0.09337578194968435 0.5493776397742861 -0.36612714704964044
Ni 0.7824239592635138 6.558615160087785 12.467204129156572 0.5103030423703276 -1.5195294245191315 0.13637413988808125
Ni 1.3801034947366375 9.102423778408292 6.623099478792036 2.32922226051255 -1.828915924343618 0.5012707569647302
Ni 4.975309458168858 2.1598564006688217 0.5462219831734895 -0.5351162447592656 0.8724447224096588 -0.6623621970938335
Ni 7.318115229968824 4.8305821676444065 11.534396310926226 0.24295227946065256 1.166508990054778 0.36105873138779754
Ni -0.18358952546843463 2.9668626608435824 7.985703549846403 -0.9672775485208439 0.3199136246080555 1.964755274774152
Ni 5.046082076569396 0.7764576085321804 2.807298576884804 0.15974829583764746 0.09663234121376905 0.4846020380597976
Ni 7.863463084266538 8.656992411024639 8.542943861986165 -0.8976811283789443 -0.029683128886729523 -1.138155892833382
Ni 5.7123011774477686 6.407926198322769 4.908571496709934 0.06644630454869202 -0.4660998654905521 -1.6597504489571286
Ni 9.41934697027518 0.8608849809986242 4.6081781380378395 -0.6619418217269633 -0.8537355760359298 -0.9943489508163393
Ni 1.831159610025437 4.524824240753959 13.556961131903607 -0.6259296652984124 0.7049697473517149 -0.11996741639528372
Ni 3.8252871655955127 2.2849672658868045 10.269183673566605 0.5444208099896429 0.5150037902801067 0.2859192699404818
Ni 0.25122314146067526 4.813511385316638 9.826141654169946 0.2626579854196961 -0.28829831169561965 -0.21281483664532383
Ni 7.400305805847363 1.6822394957713571 6.6184424495780565 1.1275621764779356 -0.8300965964607511 -0.8113023465723834
Ni 3.3514232122953262 8.894897721754825 8.243235580762752 -0.03390050940218678 -0.41740034340231985 0.020782226852673884
Ni 1.3078895931790409 7.176644865020064 5.207580662012357 0.025789193148962036 0.4568636916042648 0.641970520811359
P 5.219541440419642 5.029011294241628 11.123681149664625 -1.5933427109558558 0.6104562522531616 1.204332488660455
P 9.403717471104471 4.357073855642715 11.963028306446752 0.13964663999176596 -0.04270910883275225 0.9976111665073787
P 3.5752994096980313 4.305515226342455 0.9965640081708368 1.9371889351201086 -0.7675419136569814 0.6963123287870331
P 5.689727313974865 2.2643307115925455 11.879951435016435 0.19899927091847017 0.435549760617837 0.930069572011979
P 8.8623284659979 2.866057070683283 1.7475810971846117 0.5959991962875671 -0.47450865837953765 1.879160679431783
P 8.083174534884234 4.951453414225064 7.48085668816021 0.09818888706761154 -0.6957839670873888 -0.7286627200932805
P 5.386627337841593 8.335838959501968 9.054009766905253 0.3041507053468439 0.08232698033469048 -0.24217426364404743
P 7.063457342283208 6.119557259132427 1.1641197264660632 -1.64502471271118 -0.19960065194789495 -0.4322296951056685
Ni 1.6484254954696986 9.210089502036933 0.5827351137510954 -0.39497878117401003 -1.3543915822347965 -1.5927117622400764
Ni 2.88814426711614 7.058665543735063 13.529976380431208 0.7443590477826149 0.11841395586523476 0.338929503588926
Ni 8.672182038063 6.065443627871926 5.33372382289413 -0.8825573853636285 -0.836217107536192 0.918502950220302
Ni 7.952307896019553 7.179667816057272 12.453847926601773 -0.7567471370343225 0.6699248399324399 -0.2463152823956145
Ni 0.8472115089696391 8.852913330569317 11.884827464398436 0.060713001609340594 0.8622400139625149 -0.7949421600468052
Ni 5.162423576085011 7.205171040751991 10.735498672357155 -1.0624739286190346 -0.860056376047635 0.751953315190105
Ni 2.5826671096718736 1.462462532282886 12.97281749143084 2.055341152683525 -0.30747359907248983 -0.5385509814724274
Ni 4.557150162990862 0.3591527883687258 11.880635576566963 -1.4622311050182946 -0.649116902048153 1.3795266867395275
Ni 1.467928177501864 2.804053817985113 11.445113498837168 0.668687625091229 0.7731595169540749 -0.850539180585819
Ni 4.063360937993407 3.083241596285355 3.289010036205733 -0.8797775086256462 0.4391133095993792 -2.1122373516499366
Ni 5.157659854481484 5.351896157349079 2.6190089708873097 0.3386492533443458 -1.4978323991616722 0.32571686155339385
Ni 8.77169608877087 6.962782777864459 2.1929787722347225 1.9382597995867845 3.0097657565011007 -1.7416017752069812
Ni 5.9546426454276045 0.8044737197702139 10.21057117988014 1.1453292706533695 0.35021227559159684 -2.2260366915612955
Ni 5.571925813339113 4.07548081908686 9.298063928506789 -0.22666459804422254 0.09362286496348392 -0.1417166351469172
Ni 1.1166388054224972 2.8748451543487286 3.4504936472782317 -0.3978697295685599 -0.28480726782322563 -0.02379041755137838
Ni 3.2161016982179165 6.2564604410899864 3.7018889939992308 0.13236064785331397 -0.03650812222836293 0.255337797609199
Ni 8.110923915148396 9.281919685351417 10.737662468889052 0.508944214349588 0.7194676838575738 -0.4358570074456107
Ni 8.007928323307889 3.673718459565798 4.103509097000894 -0.0758269744326436 0.3503616566852676 -1.0529564760469028
Ni 0.6198528345361433 5.198783219365372 3.0191353804352943 0.6402725642836457 -0.28796175429180726 0.8727514550168003
Ni 6.866647319492293 3.5724074844023734 1.8342059585164943 -1.4304157602799108 0.6396665552685306 2.498573369547284
Ni 3.7564518563736202 3.673025894931886 12.418480335364583 1.4623912847452427 -0.5282100045577355 -0.027739889117429646
Ni 5.556558365651505 4.7915552146253315 0.09612329169616503 0.29260748059393477 0.6631777510165934 -0.3850327257048917
Ni 4.721437724932548 1.4935624279381339 5.112353960747662 1.7191565588295876 -0.30271860088600766 0.39772626201216016
Ni 3.975199331892763 7.430086085105564 5.952549977155407 -0.9484213350462892 0.337050027178026 1.022968928545877
P 2.5964622484608704 7.580166713070522 11.513602525742106 0.8067134416501203 0.18935094919542872 -1.5861963297190618
P 3.554775163182245 1.1215054758229572 6.771857682665485 -1.157451250727884 -0.16693170095996412 2.0683103112496832
P 6.045452843303883 2.7926171425440316 3.9210548159931826 -0.3832074995706949 1.6905448086301658 0.18502095436150715
P 9.077921964738284 0.13282079421009615 13.55294706472138 -2.1647773305301814 0.5659358012432835 -0.30046271497229543
P 9.41345081190539 0.7841497554593692 7.836479268692295 -1.2921390040524778 -0.2457342130811639 0.0017493785909389228
P 5.112062896421788 5.366496168550459 7.0871945271614525 0.06008668087925136 0.5190949296303448 -0.290602534348764
P 4.600622632241126 8.130278288971764 3.5308451832842898 0.3893817467022068 -1.240319191167709 0.6883653060258145
P 1.8951656847730272 5.195573088697376 5.154912993399685 -0.18105965572091398 -2.3034772903379617 -0.5279176701282973
Ni 1.9518998308645448 3.8089463838278137 7.022856208569216 0.896000912463044 1.5094869526814647 0.6978945856724883
Ni 9.529408593177893 6.455226491022625 7.894722082607955 -0.7863999269037489 0.5023912437224186 -1.2565464516598488
Ni 5.627714702295156 9.147908428689515 7.176190018517251 -1.1717836081901563 1.744540546120331 0.3820186214689163
Ni 4.117502646198525 4.496223193169716 5.123065315119443 -0.8524595375369836 0.5153593738473123 0.8837616900843748
Ni 2.351153983333062 7.926055952801686 2.273070128553987 0.3640764351681988 -0.44093545040978255 -0.0015861135401972683
Ni 8.572190679296622 8.387023229540654 6.22795859871006 0.8237750251180974 0.43826921643152905 0.0660639815086088
Ni 7.556357464034425 3.036661945164028 10.1294391048137 0.6866892038749722 -1.2286890631279483 -0.09760241843652222
Ni 0.48259775487270473 1.4355928962834223 9.823183280105361 -0.46003694712592386 -0.1988666019953478 0.10537332063119272
Ni 3.4664918903215898 5.38337977124744 8.47740010657166 -0.20446929289410593 0.7137189542992547 0.46784538742674914
Ni 6.1602126749393475 3.7814029011575174 6.008697315104407 1.2538887023220275 -0.3083693714138818 0.24177805664689325
Ni 0.6416433512542035 2.3794368255449667 13.66270826431668 -0.42814832594744334 -0.05944879018493632 1.5229970713527576
Ni 6.714713613182544 7.076943634681406 6.823210414371879 0.23980370652934183 -0.13800627617486555 -0.501794233568368
Ni 2.89316068122123 1.1325865099655434 1.83950688566038 0.5035243288855973 1.0312082857365337 0.8883899328850055
Ni 4.14936061935846 3.1254693209908857 7.820123512554133 -0.04397820535316297 -1.3422523757691012 -1.300084741262116
Ni 6.388852593945581 0.26218344474140387 0.9873893985678156 2.0535370095952503 -0.20886562218958868 1.5122380330640408
Ni 7.42497608118508 5.93581237457044 3.3996331980008074 -1.673627464049537 -2.04841794320113 0.9911489558218026
Ni 2.566747482073446 0.39117547960375343 10.377793718432565 -0.14094813241200888 -1.0573687461819854 0.5779009440249595
Ni 7.480409328842629 2.951083417968245 13.544947943199702 -1.0102298837126538 -0.7697561476994808 -2.15965235059879
Ni 8.830189723391785 4.7338664524168 0.6125509571391451 0.29374185130869407 1.4116937583903753 -0.3573874531837974
Ni 4.663879988465568 7.131384830295784 1.390807361923188 0.663930570022218 1.4805934095755662 -0.16874150047519326
Ni 7.003662809228324 0.3823658702807667 12.582100601922514 -0.8429983921240836 0.06516975182911357 0.3945522351595528
Ni 9.161525746829266 0.5138408429455048 1.999853380475848 -0.009317420746183953 0.33244980940185326 0.12820728780657276
Ni 2.619485343047663 8.946138145682747 4.326619729713681 1.1301695321937955 1.4419705549970456 0.5243523213745421
Ni 6.84965140901684 8.261191722744142 3.036189316596291 -0.4878819943626501 0.13404009243826595 -0.2573967370207567
P 8.427145183399832 7.360043467265095 10.200037646157606 0.8276617617670132 -2.7816058048582737 -0.26856663759464716
P 4.4402190476382675 -0.10402320801352731 0.500220717111294 -1.9342720185836302 -0.05368463400764948 -0.45877556391499696
P 2.771044690095838 1.8054598467183918 4.458790074706793 -2.0967693379213244 -0.038767093465868714 -1.0009448588663021
P 1.2420585170312781 6.480364715437309 1.1421195685615215 -0.25996372641698456 -1.494133610153846 -0.698207746037533
P 6.4821335629482455 2.2854258559822322 8.371611794639813 -0.7608087086982058 -0.4346236492591418 0.6061751083793044
P 2.2612516066661006 7.035155782108224 7.535538409600149 -0.043557058655344344 0.6940533575495272 -0.10735692672012478
P 2.3732973336551555 3.6097311027812866 9.315610147096756 -0.683069604844514 0.18069224507916623 -0.08707452232200488
P 0.582754767612328 8.473893296188868 3.564788337531191 -0.6523870881589925 -0.6218724645099031 -0.44565830980674864
