# total energy = -340863.5700438252 ev
CRYSTAL
PRIMVEC
9.33431855076179 0.00000000000000 0.00000000000000

0.00000000000000 9.33431855076179 0.00000000000000

0.00000000000000 0.00000000000000 13.66171872642175

PRIMCOORD
 96 1
Ni 6.413965087260331 4.6353106577607885 10.987191324441286 0.5217562785125917 0.4878925358856113 -1.3341893962553086
Ni 8.795943206346347 5.281348189747631 3.1307874334619057 1.9579171688063959 -0.5329619174204241 0.6320704880888275
Ni 2.037588430414353 7.345866129629872 7.101142695513644 0.30777647502488925 0.45006338085297976 0.7164978025959725
Ni 1.8351737292666352 5.139037166750255 3.5442874844036916 0.26392168262346805 0.3635979528698835 0.4648153423511737
Ni 4.453095422293664 2.612703808870166 9.636225110317218 0.8308090491467434 -0.596150891374083 1.134719613458323
Ni 0.3375102957850665 2.209638592810236 9.7701371133426 1.0309681447012695 2.9085979893108234 2.0617750812343263
Ni 6.4834590900292834 6.36106750315131 5.939514735461535 1.8796818420425756 0.675697737860475 0.10758189824673732
Ni 1.471228642905118 0.4461038927512789 11.258294476653596 -1.7495554828364193 0.2127616148098852 -1.9370120432226121
Ni 0.4647090567968233 8.730173596741237 6.443468068395567 -0.18399894085489601 0.31105565999679335 -1.385346121634782
Ni 6.150167906299498 1.1548325760338691 8.476755244750022 0.6446879197425219 -0.035320015457532716 0.1522548156740797
Ni 0.587444146603192 6.720364098797053 13.042843528416212 -1.0183046903009882 -0.30521745604846146 -1.9242650279695892
Ni 8.303772583915372 4.103469180827724 9.14583734275916 -2.211902309042442 -0.09141043069319742 -0.20454025534135742
Ni 3.0249539945371686 7.796321681762063 10.56145118137983 -1.5093887365407037 -1.4926390278861907 0.134744060483826
Ni 7.816250452200171 4.4689637640945 6.158470782788818 -0.5985898398328788 -0.6608943542990553 0.3936220100357995
Ni 5.45129813043458 8.655060334111045 4.410180892041111 0.2554144164834053 0.4813033127038678 -1.0313676941325334
Ni 4.481387742292684 2.8929387250729226 12.231255320148735 1.2947823552125959 -1.494025623821072 0.49457123345736764
Ni 2.415338974142597 8.459674374949229 12.92603573098839 -1.7270835269861482 0.4330992421948154 1.9086314351973905
Ni 4.62845926783031 9.109184273494842 9.940280274426769 2.5179353190136635 1.5491814430576094 -0.09435974312950847
Ni 0.11722037431464309 0.9610147824147222 0.014082686632306262 -0.16310898477976427 -0.3998325097218856 0.26991955207811574
Ni 0.4334549574722716 8.077770059396649 1.2538099578687751 -0.9101419798501165 0.12381867182057386 0.07662992994991319
Ni 3.364499171800224 3.142118362939573 5.7524988598837234 -1.3020516351804996 -1.0636286110487683 -0.6779258558600454
Ni 4.827149575814185 5.27414209570631 12.7115050841598 0.5294392489791463 -0.5840631069716135 -1.0200088174762882
Ni 6.783893471912633 8.226027043409983 11.148236325082353 2.0533012394353607 2.003190695932215 0.4692245271624629
Ni 0.6839329990709787 5.162708998989619 10.089329742098275 2.407795430231763 -0.9523191274387985 0.5785234081003069
P 6.874688389969532 0.9631150041236561 3.8606928855936467 0.5533304537744471 0.32592769201261934 0.3739936942819107
P 1.5886357035938887 2.4064246997780097 6.806773753925697 0.38959771936775484 -0.27405234329956674 -0.9561850381521082
P 0.011103172101231722 8.153564727292403 11.281574267507294 -0.3947422396831718 -0.7600682309877556 -0.25914637272201174
P 6.184434190270597 3.4242948174332555 8.446207753351542 0.8208426819626509 -0.11924159397285272 -0.037612411036135225
P 8.304556666686707 6.662332639399526 7.90890569997525 1.786637218180065 -1.785717791689589 -0.9063030657200005
P 3.1050611176752687 8.746069941498192 8.49901012740976 -0.5851157166058439 0.3083925113423334 -1.2823528711999914
P 5.637069741328832 2.149544248978601 0.3854541569566146 -3.507293501483631 0.6761265978677775 -1.0080297907375413
P 8.10767721653187 0.2480725876680746 7.617474268484198 -0.12022966891773487 0.6970155255016447 -0.8883595938677024
Ni 6.417456122456514 5.608954773385235 8.324932550990852 0.0003239589983220227 -0.8250675186772757 0.2905693671179835
Ni 3.3487055045490397 0.7438966624407245 3.4681091760091034 -0.034378991700502085 -0.4368952189021379 -0.6815649952745294
Ni 6.4834590900292834 5.19339090457747 3.4033803429397538 -2.2300285863295075 -0.3860827642359609 -0.09669867567533025
Ni 3.6068180854176903 6.611124566976359 0.3296984044597022 -1.4307093802609296 0.5896426579419201 1.4715863209809494
Ni 6.8182530990707955 1.6874674700569752 6.172105422123218 -0.7384614513512573 0.3061620793499179 0.09066403944547612
Ni 6.280306977703762 0.6929854213524201 12.443079947984348 -0.5540097392296588 1.3267455383827538 -0.13013252985374363
Ni 4.43614429952289 6.801778026554046 5.541343502699357 -2.046807918401533 -0.3500569809606552 -1.2293768332235924
Ni 3.2344814465391427 8.95962981918132 5.746023642997112 -3.094824533944657 -0.9753842367883782 -0.5310029939218404
Ni 2.4795684211611553 5.442075823552683 6.157814580183759 1.5819874338440367 -1.981303151830504 -1.086088482714181
Ni 4.440428751809115 4.976143971005324 9.73039531801834 0.1268875405538847 1.6518044546371746 -0.8609927718189753
Ni 8.141738145491429 6.468160141669537 10.21530477392763 -0.4495571306405225 -0.08990633534384515 0.5236990040612594
Ni 9.25684386111097 4.042824112192413 13.572261816213102 1.5383792102357827 -0.7089600994580306 -0.09008014191754808
Ni 1.55192382812172 6.018376660484206 1.2274479749782339 0.08772526853212632 -1.1220350760121192 1.6765862895675447
Ni 1.0848065170986523 0.6150895983158595 8.350957564976092 2.3702727506959564 -0.4195276741579678 -1.1622314457253469
Ni 0.41401437190250673 3.808467372431485 5.166834767857837 1.909948354236601 0.5770110852208385 0.13957927708894027
Ni 5.463264727016152 0.7156407462846602 2.082756265202625 0.41488863272405974 -0.246934146926536 -0.1614123138036317
Ni 0.9008448306015654 7.385611658681612 9.2227801318558 -0.3760266655515395 0.6725661342100288 0.09478988868839158
Ni 2.3177113347926324 3.298505538546161 8.626268628061235 -0.26751762750484254 0.6209730926240854 0.22789409957594947
Ni 7.715477147446158 6.601043502773476 1.5367928974986882 1.050153459380469 0.10143721880158015 1.913409573312324
Ni 6.805549091311421 7.926768785683638 8.531224728129196 -0.9930603139119026 1.7218495322807186 0.5775677290552569
Ni 7.574771627266279 8.864466439969837 5.60376395875262 -0.3311274910460039 -1.4651307951635928 -1.3299306209789548
Ni 7.4613316520277175 2.108239888702897 1.1156573738550888 3.9892699289951232 -0.7231047663895289 1.1897592188319703
Ni 2.909479137820617 4.0718071717757045 11.03779453301228 -1.0542281436704748 1.0072733721874911 0.72825365758032
Ni 4.460637551808414 4.051383682446159 7.396700829304784 0.560774311647002 1.1461031727049167 1.0787546680569293
P 1.1520416147406634 3.061096476568248 11.569453990730569 -1.0978350817271478 -0.3755186155668694 0.7488425374752651
P 1.5568710170360982 8.837116886160162 3.935217152713465 -0.5865550201555318 0.19362669375264718 0.2950281742202855
P 3.7231143621804024 8.782324435353749 1.4461342604949023 -0.40031844821936863 -0.1956807480681985 -0.6289175442821426
P 9.253483506376675 3.4226239743848144 1.9939140866191 -0.023908688296797535 -0.16068931959467808 1.163561220280364
P 5.665576750658099 6.80452231625372 10.391677659316432 -1.5103901812220246 -2.2161456576998284 -1.2523049027746755
P 7.5060897102247806 6.8450239251206755 4.001913660166118 1.46784459455033 2.2567006963040557 0.9711529723158501
P 2.4976209935392824 5.548272367475098 8.57305647741181 -0.4821000975735504 -0.4041655898796007 0.15361132970197414
P 2.673666244341494 6.332233792667321 12.139708056004103 -0.40187807939700465 -1.2202213919765694 -0.27202322868467993
Ni 3.639824236363428 7.344232623856257 3.389500211023376 -1.7654500425794886 0.4515659335404352 -0.16454725988818758
Ni 9.0320921352989 2.5291149848545884 7.615971443172472 -1.6232536395826753 0.08652019248043163 -0.7585109138029646
Ni 1.8181666005836221 0.5727201922757579 1.6519475870836107 0.16148559024372833 -1.4706746077999575 -0.36562835303635094
Ni 4.226868874125987 6.708621525864435 7.750771139906829 0.514066880288134 -0.08458106647618982 2.0777714566625827
Ni 6.889529956712667 3.747514271278863 12.984876475817762 -1.11333960512065 0.08123297593956333 1.6159031127548753
Ni 2.215015160385107 1.6928627062692592 12.98122862406731 0.24359814057476756 1.7040703539204265 1.531109930267879
Ni 3.9992515124710604 5.139009163794135 2.256820773575344 -0.04808322866047203 0.24303532609276213 -0.45144869123628056
Ni 9.082012071740587 1.6219405527382305 5.450479510684031 0.4808865368814234 -1.7133075562479783 0.5810713713331412
Ni 3.3658059764191166 3.2471107797488665 3.4853095250893387 -0.4168210738600821 -1.5003243123455903 -1.4034209768586219
Ni 0.9699103881418963 1.8449747639083278 3.539847148995069 1.0482634414466077 1.0601041428352775 -1.0383621231724955
Ni 6.683026823971558 7.074844185990307 13.357800243342938 -0.08697424929871472 0.705809726754507 -2.1688026496394905
Ni 5.24682987917146 7.2772868900941425 1.7302569204388636 1.6888558509635172 2.056625932933219 1.5681667259108607
Ni 0.5173984855986918 4.990472150219609 7.407452097590786 -0.09415251221470883 0.13476668619164534 1.259779613885166
Ni 2.6939870561652697 3.958871249747287 13.6331934484327 -0.16534815852292814 1.1551755673198298 -0.09564709448236432
Ni 8.775398370873619 0.09634417052783793 3.0471780739451737 -0.08398559898403601 -0.22875001981834153 0.3253944452169686
Ni 5.778867376797358 3.2769245936970246 2.3156885879289613 -0.8017054469125677 -0.3624543261837435 -0.008211846386831019
Ni 5.76424049938447 3.4920339682854107 5.1030206980217105 -0.6233523914895394 0.21433333017237924 -0.537134560740875
Ni 8.649581089030404 0.32942304205786416 9.737376454978836 -2.5665458809325155 -2.207689299402359 0.9909568944156546
Ni 4.597366652219379 8.280782156941573 12.563726950696102 1.7611195335249348 0.043522862983299236 -0.8424453478340911
Ni 7.944401313719977 2.926103559436669 3.8473588113215915 -0.7186978955710848 0.23189473609491026 -0.7686616290837214
Ni 5.1520305383895275 8.672692862147386 6.798836782729667 1.9441327134277937 0.8222601311354677 1.3842060944930676
Ni 8.283946490983034 2.2226599674056273 12.005809121024912 0.8492921955525954 0.05647788048207048 -0.6868270150044171
Ni 0.49073687107767616 6.3456378743296735 5.447924707654096 -1.4598893442589953 0.5208746472385868 -0.9469720041942723
Ni 3.873854274969634 1.4402200361625441 7.654756470829326 -1.0604715534770253 -0.47963569519345783 -0.9644133395991714
P 5.849388154624013 5.426720869280698 1.1015466842666632 0.3864830849981731 -2.271412548592933 -1.1193163915293756
P 3.5843690489288607 0.8020382667989862 11.67889794413093 1.7340579014214523 -0.6138549935220654 -0.8262327426299706
P 8.165652670017158 5.420802911220856 12.425292470257482 -0.960629704187023 1.4638552708852788 -1.118513950232738
P 4.373893728070082 1.227752273768062 5.200210557824347 2.1628983683399134 2.040389673580015 1.3356510684024996
P 7.596567261445662 9.313960557275271 0.3476184295121988 0.1810570846177527 -1.5474122669723285 0.5145682454045848
P 2.2454730423240052 2.610323557600041 1.5650861509295777 0.04404942491073059 1.1034994791017771 0.7819840572242405
P 6.920715915510661 1.7125487844210017 10.405311365218962 -0.07674845780564847 -0.525177902599631 1.0640227611633934
P 4.28915678285362 4.99914373229783 4.426779177564785 -0.594617485448692 0.0999943157074665 0.3893889457910584
