# total energy = -340893.4400866991 ev
CRYSTAL
PRIMVEC
9.03925511200363 0.00000000000000 0.00000000000000

0.00000000000000 9.03925511200363 0.00000000000000

0.00000000000000 0.00000000000000 13.22986355832998

PRIMCOORD
 96 1
Ni 6.24379329544664 2.3257280787501804 11.472871426518873 1.9849263504053878 -0.5515741332049727 -0.46253554517806145
Ni 4.56582729189241 0.21175721073345932 5.857998782487629 -0.1421614359938197 0.12097503172419166 0.14652819760294764
Ni 2.682317661708903 1.6781829456818116 4.8117673505286485 0.32612618117667064 -0.9973383724619661 -0.9112274996048113
Ni 3.464186128772218 4.295652989754124 4.9791382019586905 -0.03645875704766625 0.09615257336387312 -0.5248151199435735
Ni 5.17326524912393 4.458016093739133 2.973941212786397 -0.1997718874184366 -0.9825403882171853 -1.1870577607404074
Ni 7.1063913517366615 6.130911075061116 2.8367470113031064 -0.24046139471799877 -0.43106601381487053 -1.7264134975023173
Ni 5.172514990932706 4.520603897546737 11.469987904073088 -0.44942266194518726 0.6142907955079033 0.7538176220923534
Ni 5.769114881040409 7.859867517852592 12.306287150946899 -0.8340422113720605 0.7470293955259263 0.4740569155540997
Ni 1.826960048926954 6.510198228118178 0.3810254018543181 -0.10840130882423912 -0.05134981522688575 -0.4197590734424835
Ni 2.711424063826247 1.6316940555919053 0.18321395422229908 0.20363625546984931 -0.9480572668386511 0.6856026556790128
Ni 0.4861908099766197 9.166347245687419 4.941367673621014 -0.25878230451437373 0.4306741776930906 -0.9197813027120935
Ni 8.656298225229895 2.48619293911884 1.3245871640837295 0.2834456115890086 -1.4208098617590303 1.9642019733738432
Ni 6.808276711416788 0.6296989312980977 4.910039422547011 -0.18255552354015012 -0.18415037883109575 -1.6797268920790553
Ni 0.7702286179929719 7.445146483957025 2.380356818252095 0.5237997913051818 -0.48646248830730415 0.42478275190931997
Ni 7.4783657472431235 3.920560051163661 3.882885338932333 0.4913113317591732 -0.4870173323695096 0.4313753175251732
Ni 7.8487944300905585 3.779086666213802 12.907491637712543 -1.5891507843616954 0.4924855545729325 -2.902933334825878
Ni 7.75747987288888 8.881737252809568 6.894386465407544 1.5594650843718045 -0.453173130126555 0.8888136506859854
Ni 7.0246312874039365 0.7000839967412369 0.5862101700475536 0.14041205740288076 0.47742686046759714 -0.9099180367647685
Ni 1.9817301784465682 6.533618938641792 9.18352363863878 0.016901403741028956 0.1642667525332913 0.37505658832878636
Ni 0.0812168050882363 4.851359288812489 1.3164292361610888 0.2858501072654432 1.2646274288957706 0.8701037329813079
Ni 6.3407483479654685 1.9158520857039596 7.056557937179855 1.1342820117002723 0.8456088331637373 0.11760611525195874
Ni 3.321474365844075 4.089874342486631 0.3460922957603162 0.9656634099561886 1.1758798897467169 0.18432367118416643
Ni 5.813633213471438 5.514605608364654 4.966993962441719 0.611373107640476 0.8986892579284844 0.2718273106237899
Ni 5.120946039355239 2.9267662432180104 9.228465008218596 0.7753660376870904 -0.8272059051765173 -0.4388086338747668
P 0.13151122166615556 5.532675079741228 12.38169713842017 0.7687410761714051 0.02206803554363296 0.5211361284300896
P 3.943239542751367 6.18393534674445 12.71732559222675 0.4709227408004921 -0.2145135645039854 -0.4925387764083711
P 2.273526379300596 8.597398437591195 1.1727918534885928 0.9745144325889151 0.0882474595841835 1.4706807784475446
P 6.376037600718918 7.5779693015695235 5.959709387228176 -1.11599812578942 -0.42392503189471503 -2.184658899945457
P 4.766797055331821 1.28699109337365 12.629188333268626 -0.19185391812294056 -1.759224630495067 0.6586155855672077
P 4.019313915490362 6.162403840581868 8.178278902058889 0.16957762322324343 0.28151008512919257 -0.3373801568239351
P 4.547378171792567 0.9291360146706943 3.720091966394285 0.7348991879212956 0.9717163010184878 -0.2222289308703721
P 0.04831843536585363 5.61339562971262 3.6264118360764237 1.0814682103333504 -0.5597062753938038 -0.3827436725603989
Ni 1.401500379716044 1.2357565942428723 2.646726497827901 0.018343792614510343 -0.7191468101830454 -0.44202097016447744
Ni 1.7411865552339498 6.586706485112338 4.732415343812092 1.108242393103401 -0.931099813048706 -1.3590697044367561
Ni 5.911419877479334 5.597965620888301 9.326524657737032 -0.15030874769130242 0.6441754988824777 -1.0801512912941398
Ni 8.923634201198974 2.293801428974261 9.993732882894177 -1.5677288670424936 0.48529340769986745 0.8785014701267
Ni 2.42245714988611 5.136855128711303 7.0008209849762055 -0.5576879594121943 0.2965556666084054 0.43943444038422386
Ni 0.22764279802570148 8.928461163537689 9.210895407660992 1.1077022043292148 -0.03411571073678641 0.20105049702054406
Ni 1.4073397386501447 1.0043426188993585 11.296676454049406 0.1503817670210829 0.4496733445034126 0.5348802174890595
Ni 3.9587057085969497 7.011253189536338 1.6022025811981024 0.39399327733228917 -0.1652450572861606 -0.9665255008461675
Ni 5.676968712349662 7.8655260916803735 7.9648015210388055 -0.4655643047020563 -0.44298050586426935 1.1601892184843374
Ni 5.4268977140340375 2.7458184303034185 5.242373067790926 -1.4672085036282279 0.30192875799486063 -2.486331061844821
Ni 0.7138562061406111 7.3022177789013 6.567635464246757 -0.7404913372970925 0.24867041289135236 2.4895328566115706
Ni 5.107793922870539 4.435761447151275 7.240373905806196 -0.34219686148628803 -0.162758543418881 -0.3960661007009179
Ni 8.091570749366216 6.932340490628136 9.24267381364973 0.39966435957513746 0.10415796016685287 -0.8614409150999874
Ni 4.885717498268397 0.48681090289129353 10.450189966434527 -0.9652589754289184 -0.7393309984404041 0.10637502242282969
Ni 8.14999145647317 7.266910447637216 4.6210987224472895 -0.4344873807915936 0.043961493182614615 1.5650508059896981
Ni 7.346699954311065 5.956462486718689 7.071745693961706 -0.1866497482141818 0.9138477108364778 -0.4246503400965138
Ni 2.1011568196808366 5.20099768443325 2.563511113389309 0.9334657421777214 0.20468783666281523 0.4445987581939827
Ni 2.3989731645752843 5.294960743442501 11.514480022663701 -0.17337797080594008 0.09569183167737068 0.22238114017752025
Ni 0.8652754837146043 3.3691654768910015 3.8408410506812762 0.33899686649175165 0.09103402119038516 -0.17860065265746014
Ni 3.769134446110946 2.517233741873796 2.256247842764167 -0.26870290606219527 -0.12068012619159216 1.0150355326314133
Ni 1.301336391560055 3.150451655266391 8.174058473751874 -0.6483049476698189 2.3687411445427786 0.3662672721719305
Ni 3.58795161255814 2.388813041600162 6.995554714829136 0.6416715015137013 0.8629375542501719 0.2630287384955534
Ni 4.074001410151832 6.863795817567324 5.882169751202467 -0.35635104149948305 -0.17804657992620307 -0.002767278332492008
Ni 0.7139149613001647 7.324924388254953 11.264594329082055 -0.2941509138216547 0.5346742721258405 0.12347003023190348
P 0.4042364016546023 5.659333125228253 8.0722412057986 -0.5581813541088452 -1.0425671623927786 -1.0002020671630065
P 8.540794620802746 1.541183992113346 7.996010453942637 -0.40900029226408274 1.0540378820365395 -0.19365651854931812
P 1.8655667083813563 3.1500991243090692 10.337564460899975 1.0336634321452456 -0.3752599625888441 0.3576389070729712
P 3.9334138722229346 6.072779624124272 3.5684114543416614 -0.6340777483268435 0.5823983176746808 1.5404155239395212
P 6.967060270296681 4.012941240492621 10.293415834011366 0.7361132628340549 -0.08845829004340895 0.13128566962158036
P 6.41085681219594 7.909167616345757 10.194840043014388 -0.5712993795480419 -0.2787985997353005 -0.3383062681826302
P 2.350522756081818 8.532722565805607 5.726268810842828 0.7634649153741303 0.1152180746357564 0.24513334627237138
P 7.030136193891348 4.19429581989643 1.7008045860354963 -1.2367890665272634 -0.47133643129914304 -0.3402428230837108
Ni 5.4705030816781575 2.986678427452095 0.5308492508650471 0.4716994710655166 0.5067870587972692 0.04945594063828257
Ni 1.4129892732226106 1.161209855652272 7.179940156540381 0.11908707067285941 -2.18727731140491 -2.328612651953009
Ni 6.790713438337906 0.9869058953949001 9.102212825295258 0.9122140318877968 -1.1810964009506497 1.8585933968033925
Ni 2.7276766448843164 1.3854105052536616 9.059652395565662 0.9490965067364427 -0.5982730799234084 1.715302732301136
Ni 6.23427495959895 2.1331829012652306 2.6865887098456875 0.8919804784497412 -0.6255239452195615 0.5761279112849369
Ni 4.162170306503561 6.8781501550090445 10.468658972896066 0.02482245836031854 0.6705565599791677 0.17287840546170224
Ni 8.24848318239571 7.219544749781663 0.3506498882906157 -0.20450811655184134 -0.478810371078685 -0.3953952998861384
Ni 7.80960021904062 3.9495308644512654 8.172073453284492 0.3268517464887855 -1.1185741140467123 0.7510233471766679
Ni 3.1324906549536076 8.429286367225245 12.372185130051202 0.8218186727226748 -0.4333807779909762 -0.014383008194549423
Ni 9.445027487078011 4.750047315231375 10.311726653504877 -1.478155489558035 0.3229177015417019 -0.801751983879787
Ni 8.502115647305816 2.2273086668701687 5.774279911527939 0.470786215222628 0.9769122433971305 0.28855156535700627
Ni 3.7606737031352218 2.586980635891629 11.24821519844956 -1.2916083283599884 0.47846815724791786 0.21705072910354234
Ni 1.301508137411058 3.3982628397530292 12.658612013247557 -1.704489443735716 -0.09047583469406999 -1.1285409954514372
Ni 3.0744134395486595 8.250010816544105 7.839090789508892 0.4564829112260783 0.3017678069369642 0.012772983394952196
Ni 5.497313512945251 7.925664257297357 3.4823776300955576 -0.17858085516311825 -0.32307839548928236 0.7278229978008046
Ni 2.9491926356568707 8.280708127597054 3.427897134380824 0.24068790890650804 0.6377150879691146 0.35786285015831915
Ni 3.499339792695929 4.5258828226512495 9.577495061956594 -0.2970369771201981 -0.1733293769561918 -0.989144009576632
Ni 7.313128160067644 6.141694906653039 11.25558490330865 0.0997531462309379 -1.148519495455893 1.6678499381358114
Ni 0.455945461689467 0.16400463275038388 0.3200737032588994 0.07379374605269871 -0.2928573918212118 0.3956308129357122
Ni 4.912202516344116 0.3279803398837567 1.502859357424801 -1.3338937193917608 0.3156584488761274 -0.30699100300911647
Ni 5.994951635853984 5.720610237015046 0.24630162884887563 0.08287102576361857 -0.3565433600159473 1.1511173380900563
Ni 7.8211252695684506 9.054893227641815 11.461877884203622 0.08819552330032553 -1.0544253472829452 -0.8436535092095793
Ni 0.15384270192419824 4.850907326046692 5.751074335280845 -0.12450849879874687 -0.33612417292964697 0.5780413262575658
Ni 7.855980638066735 8.511823807515142 2.6495051649120223 -0.5789702658297384 2.113699280907444 0.11652059549726383
P 8.424513640418427 1.6307901300603107 3.581509335294466 -0.7616605151755398 -0.4811629304712617 -0.27248499881244687
P 1.7455615548068675 3.2192042311994706 1.6741731320236584 0.2086133969694665 -0.1770111966831532 -0.31940968838844347
P 4.856602056895737 0.8626116151729953 8.08909580126071 -2.113472509608618 0.6219411129643097 0.8028714421962109
P 8.554353503776664 1.6803794847235864 12.419309479789819 -0.11820132563379643 2.1194050730429694 -0.1762036131801933
P 6.358582798703829 7.718529721732472 1.2843064345448143 -0.41027581654239664 -0.5133515993886644 0.6536039912852292
P 1.7244277758781874 3.192954233761965 5.97233089942583 -0.004200668344908894 0.5944426504337247 -0.10068465690627176
P 6.970992346359117 3.976820376250104 6.094932127127059 0.25896022485313464 0.16403946701383362 0.005529671568977574
P 2.383380449155279 8.43395966222359 10.25675623015202 0.35034108785997725 0.1841110409527281 -0.9715921167357975
