# total energy = -340887.9984613665 ev
CRYSTAL
PRIMVEC
9.05509150690744 0.00000000000000 0.00000000000000
0.00000000000000 9.05509150690744 0.00000000000000
0.00000000000000 0.00000000000000 13.25304172303805
PRIMCOORD
 96 1
Ni 6.710773566158744 2.1563160977595355 11.47403329434491 0.18745064684892232 -0.2193510951019448 1.7243668993859333
Ni 4.677344114780411 0.8184208995567243 6.248795476330142 0.13744397591349233 -0.303485046738387 -1.1508895383499662
Ni 2.888800557200118 2.2090076750414016 4.882671935969144 -0.25832490526198093 -2.202883907593916 1.2648133196543314
Ni 3.4286651108252917 4.577131417447808 5.113434603596618 -0.012995640928719554 0.7661884849528804 -0.40557172619850795
Ni 3.8079647824497678 3.024835196400235 2.940027926190787 -0.08149522846201449 0.7367424117776216 -1.493347623917441
Ni 5.387679820477834 5.012011240534064 2.9818416220860398 -0.6813245971289492 -0.5008737786366277 -0.1748059615017183
Ni 5.444880833313296 3.1934681649034493 0.797439347104445 1.0239788578676299 -1.1010497320097037 -0.5217233683921273
Ni 5.642843243097824 8.365881295791695 12.66688584835018 -0.5457636971707827 0.03347602027025847 0.47688461481088196
Ni 2.4366798399491127 5.4050655961061524 11.752850426910884 0.09127261956375249 -0.12665177039399478 -0.6465285724956865
Ni 0.7714901714700326 7.497651960078133 10.747527911804001 -0.7845338202292875 1.4256846733528288 1.9769140216238728
Ni 0.46944491825730633 0.2625451331888462 4.737723464722924 0.3226657334318959 -0.07682481956953865 0.3329583736071556
Ni 8.925974923767734 2.6224903169767644 1.6050493729514559 -0.837722488437125 1.034784433123566 -1.2040542952984037
Ni 1.5067853313038602 1.4283954044213858 2.7735038884916543 0.8825522431573058 -0.07978261664628196 -0.33044254916383736
Ni 1.8469126772157822 6.7989611020150935 0.5846935949809627 0.5968623156188108 -1.0288454419313118 0.146418925718593
Ni 7.769349979727972 4.279381899629912 4.065264301148257 -0.8383374963133046 -0.1900942551193565 -0.5191072709255188
Ni 7.431658453422309 4.563666496427334 12.811662272858412 1.3707209155224394 -1.6137091904273497 0.2707860138434691
Ni 8.235469868396361 0.038507681998430285 6.987189288466058 -2.224318423318608 1.301655171073029 -0.6238254744712158
Ni 6.922481604799411 1.2207349916691868 0.5538419928230237 -0.8602427810268282 -0.6871124074553199 0.5319692144898516
Ni 2.3253203250131453 6.768653710854687 9.301395394205143 -0.22799205860639446 -0.1615570669116121 -0.8028642431073592
Ni 0.13213189477521864 5.177103668271302 1.2855812182353719 -0.4627052379867064 0.24442475024112098 0.9097853678416462
Ni 6.327933353768293 2.3019219686467007 7.237817015767181 2.1432073176688897 0.8132340163774575 -0.5341981038203703
Ni 3.649437296030514 4.389600473040271 0.7811465210169277 -1.4861742460974534 1.6563411661652634 -0.4895948632886987
Ni 6.279579165302033 6.10851037719256 5.013519818773479 -1.9131123537868797 -0.83875221525322 0.08932115226433648
Ni 5.552219887635215 3.0615807575980036 9.818449266900474 -1.691594847161235 -0.19913759626854735 -1.9064190009271038
P 0.40257759527432924 6.0834458839950685 12.37847303535018 -0.9644578196838617 -0.31928190456132755 0.8583975002879733
P 4.169389703506379 6.31241292698343 13.020145793425513 -0.8633173061870938 0.5257990811233977 -0.24388224747408965
P 2.408201577266269 8.611238054346336 1.6181031928190517 0.41583762690089027 1.8183402057103004 0.1432094176423598
P 6.335747897709563 8.181936167607498 5.826819158593028 1.3103007625631693 0.488113907867798 0.5919664209790901
P 4.646882787064962 1.5039058122154203 12.681490805387115 0.9542664809731565 -0.5769388372220065 2.023518094635657
P 4.400022883325788 6.642851325019153 8.574757807328728 -1.2336374082721593 -0.42758268325196036 -2.483993157740264
P 4.804767361989626 1.4184529139839415 4.005373926145291 0.26734099271766215 0.030406380205999242 -0.6832691224498297
P 0.39992898101845265 5.619571658012002 3.6271056294395985 -0.18821580714972103 1.7914166418465796 -0.11511831583309852
Ni 1.0615102632065057 7.543977808054422 2.876917560659992 -1.2423714457110475 0.4273024330073802 0.07524102002218655
Ni 1.9948185413371102 6.482322663384348 4.85820688982717 1.2624360776714063 2.032373488143758 0.33660651188270413
Ni 6.184935349225376 5.865381171140297 9.378501309116734 0.03351510103831002 -0.5289733650863213 0.5846588315740835
Ni 8.987957024900984 2.6895251591519935 10.371618466427048 -0.6800202764952289 0.4997100973458297 -0.05758448328268793
Ni 2.4574884401542563 5.712187133598689 7.187429053756066 0.8890399077641786 -0.35455049795563454 -0.4486359043778338
Ni 0.6922119401140489 9.284094736436671 8.905725928215627 1.5846783504126385 -1.4694679890863662 0.8845844430959863
Ni 1.200868120977244 1.0905680517436271 11.514494159574083 1.5364172014134057 0.41589676227359984 -1.2241958032432851
Ni 4.202821101225 7.267109331173455 1.9978692016543917 0.25298575243725463 0.6095352831007889 -1.1023429968998306
Ni 6.11177021012287 8.294146861141936 8.030389251204845 -1.4790270935297107 0.14619112597850306 0.3300967357886444
Ni 6.86204792430806 1.1375005908486133 4.75303109685817 0.4286959709207972 -0.39855852810546843 2.1689304334666066
Ni 0.7487899626561623 7.604556370009344 6.832990135770938 1.7622986414347004 -0.30054113361871465 -0.19068869417024578
Ni 4.938972872712181 4.921867804919528 6.980788244303737 0.47708850329157193 0.40961735702279134 0.8026205025276694
Ni 8.012334304316665 7.339495732409276 9.247137286098432 0.81798567212983 0.5858153137760298 -0.10296959628570652
Ni 4.557382262945016 0.441562480593391 10.837012136759297 -0.5904942073089379 0.5806458537599484 -1.951484525807175
Ni 8.174148788940647 7.3010749792889875 5.014566587347767 1.4920016514125078 1.0725287417518754 -0.35642277527768296
Ni 7.475983126183047 6.147827584368684 7.175699993770983 -0.6355152521043184 0.32470204713563433 -0.033365462834323185
Ni 2.730372676787068 5.651164872161586 2.726296074605886 -0.9246165193172076 -1.5990338478033623 0.17738374953122352
Ni 3.7125150632320065 4.589174689107007 9.41472258051821 -0.3196313174809463 -0.11371937860304286 -0.14266382955153495
Ni 1.1886980780374212 3.7197772465934182 3.975117243497133 0.0870171867215082 -0.7180196385571376 -0.5169984521126323
Ni 0.8116739509001305 0.32077027686991344 0.33848113028211535 -0.6572025072697649 -0.12410149316831531 1.7266616089573814
Ni 1.249439631638858 3.9373710946915885 8.388698315285568 0.5721365307373566 -0.7323100870378807 -0.2144883676930048
Ni 5.377157804186112 3.3381866368262525 4.962415599026844 0.6509133318269434 -0.2575088371185888 0.2503326310851237
Ni 4.297863341326472 7.482991766983213 6.163552656220839 -0.3643374021390693 -1.4348267448634129 -0.6065615451844457
Ni 8.312012556618328 7.499408647823912 0.5754909055168691 0.31615801422036516 -0.08688348935712133 0.1441329578978937
P 0.37703137121046915 5.967839531158224 8.11267739496648 0.4059087978229526 -0.3720239721500496 1.2412152206194171
P 8.495903354253686 1.8076498005884967 8.2879350683914 -0.35805902532952527 2.4659470988718306 -1.3420263758012243
P 1.9866599039198631 3.4532406290832376 10.450367880441004 -0.7303514206496132 0.933810784221966 0.18708580731033586
P 4.2964235817822525 6.585559761268961 4.070128696287598 -0.9777632785435161 -0.33850347179510093 0.7058719474510101
P 7.167295057865668 4.221329708195981 10.583984810217807 -0.21075564012344994 0.3521413742935097 0.9217458826376319
P 6.220349811976601 8.087944318116904 10.522782352460391 0.7723169664481215 -0.7356571491332428 -0.1261540048219698
P 2.341347836920501 9.006257364768084 5.826619946580621 -0.08561027907165256 -0.03011301733529653 -0.11262743109044474
P 7.04885446139775 4.427296818842713 1.7878218667898882 0.7821401231861304 -0.42321335053967113 -0.30775153532422483
Ni 2.6596252471078747 2.0669423449202116 0.5609764993946653 0.8446441552576227 -1.2177503047282576 0.38719090969847514
Ni 1.2081574696130755 1.6499734927677125 7.028896134281929 1.13481345872371 -0.2973089998346622 -0.3496348058215721
Ni 7.558239577124527 0.5984971764225296 9.678776291946471 -1.7835192413763736 0.10828920872640706 0.4049361494970381
Ni 2.800305148233684 1.842376076387768 9.17570348048558 -0.41012643544872596 -1.2769005898361685 1.9060845004058204
Ni 6.585668422366638 2.384721725076566 2.7812831175761796 -0.4625296316407905 0.6149556827854118 -0.6295626340653093
Ni 4.184375879894331 6.759073424076166 10.759150121709704 1.2512587208983483 1.3148845252791095 1.0264026368177743
Ni 7.268784523095976 6.621816347527182 11.817644133946526 0.09063935685512776 0.21135033628465538 -1.670930119723032
Ni 7.895061814648774 4.032051131134138 8.507777295702338 -0.7790915661677937 -0.4468543869973788 -0.9779702523479995
Ni 2.915657958509281 8.582524359285191 12.753799332836268 1.638522649926604 0.531144147485395 -1.3322723817382538
Ni 9.136134541766504 5.3035308554184795 10.297931754055693 0.1494489707941684 -0.9988326976193056 0.2388832515976015
Ni 8.60305225165467 2.701477879896462 5.621331062285221 -0.07930079191385697 -0.2679583145866869 0.8468355064819868
Ni 3.599978386404538 3.0369237435168 11.707723473045629 -0.2676011883575843 -0.03856783297086906 -0.40829915243200005
Ni 1.1848858845272534 3.705098943315552 12.95415862533372 -0.974826050292063 -0.2858287671092045 -1.4213055704485265
Ni 3.130499058799634 8.740119171282718 7.779932665132563 -0.34692100643483476 0.025381930408214348 1.9460594981368615
Ni 5.861559922538656 8.45396922564184 3.5997511036085634 -0.9674963493998692 -0.8813397109064436 0.9997729500453878
Ni 3.038417833609859 8.93548276981447 3.7248598694372594 1.0769721222352098 -0.6687963827549515 0.690139881427734
Ni 3.6467569889544813 2.7805107182735256 7.352416442432217 0.1334076010605896 1.9274969046433255 -1.7112786987434077
Ni 5.209937429952699 4.668615006600359 11.958696199331879 0.32644396952740556 0.5510136327158123 -0.7765209772271401
Ni 8.259013106226377 9.103174008804483 2.369776296600244 -0.6284699152217628 -0.46619191098372614 0.39794300600865656
Ni 4.6783582850253955 0.7739966207897818 1.772992343484421 -0.6531728172850816 0.22680986537283518 -0.398375722670701
Ni 6.152536231934686 6.293686997817095 0.7536398696491453 -0.5570284714513246 -1.2447720847327401 -0.46931168755963043
Ni 8.10975803347556 9.048934010880721 11.881736071393002 -0.4814390669507837 -0.7144149519250148 -0.018366675432645786
Ni 0.3675443518741207 5.247679051212507 5.866498569428075 -1.3353127112264744 -0.9807861245302399 0.733760189220846
Ni 7.58259777318712 6.464991218304868 2.833540050467338 -0.2672800575727397 0.29862180510881475 -0.5692463536737551
P 8.544511085281192 1.823831249050895 3.5356202292687517 0.22735108258828585 0.6949712413781064 1.5741730800059406
P 1.8131824614785501 3.703903671241105 1.8662136046906572 1.1187546054886346 -0.5103444371312243 -0.5794808869175698
P 4.916090656559701 1.3746443814371687 8.393509285385216 -1.1551205457121785 -1.0909540383365985 1.802639507145592
P 8.543813843237764 2.004353552658266 12.729639443276936 1.092584889071802 0.5639707070971126 -0.8686310050905234
P 6.223337992162718 8.234899397633557 1.5681661743632966 2.2013677280597057 0.528450916923948 -0.7263104178110201
P 1.7488369814708264 3.566764310881272 6.136304074960039 0.4149410832285499 0.3005501324797792 0.9928602820859544
P 6.982335759436486 4.226789928354249 6.250770391780421 0.13971220312237875 0.23831220958547988 -0.13375881375242127
P 2.441288881508912 8.7797533066604 10.190608093389278 0.892759779817927 0.40049302612402 0.3816946624705943
