# total energy = -340857.1947315573 ev
CRYSTAL
PRIMVEC
9.43287607783344 0.00000000000000 0.00000000000000
0.00000000000000 9.43287607783344 0.00000000000000
0.00000000000000 0.00000000000000 13.80596762963062
PRIMCOORD
 96 1
Ni 7.51195557482608 7.24676913620344 9.19101879463741 -1.3270455861216757 -0.43881197630887653 0.0668096014253817
Ni 3.306430506843254 2.8304287259669487 3.5500665973110426 1.1846594357115598 -0.37365919376062745 -0.9039204244204369
Ni 7.306743360824176 3.4733263791639004 7.366960953641705 -0.4779883893980219 -0.11418397694428722 0.8140403143288368
Ni 0.6508335316451155 4.394267480759845 0.3052525787730902 -0.5494951391887568 0.038643680514127 -0.7188043392419621
Ni 2.5705718621965774 0.31858972192994106 12.360703730222498 -2.723493474096574 -3.591296583969163 -0.6674905194593344
Ni 1.2156996059917828 2.7450611995722247 10.238367035565707 -2.164660345336343 0.5580147466239939 0.6276178516341127
Ni 3.464223653973745 2.5533285651524276 10.317185316261439 1.424576270779998 0.6406183776588387 0.6304807750042044
Ni 2.0895706571225703 5.203617661112742 4.042428758052432 2.4994722272124696 0.7871329484150315 -2.499576871111134
Ni 6.884593868145383 1.2913890017698233 6.592032280533779 1.414124736429371 -0.7381971419462771 -1.0311501788050885
Ni 4.2367573199046955 6.205841853862647 9.233859143573795 1.2954207601275431 1.9702972876383038 0.304658755331514
Ni 5.366995070743307 1.6863529462641313 8.134365021688298 0.017042300194267425 -0.5719442122208923 0.5616176334839038
Ni 7.246561612934857 4.380636975164223 9.715342368603467 0.45950190055806023 0.5192070297281768 -0.35838735520322146
Ni 9.050108608693801 0.5519364314263084 5.042353215671394 -1.1079251189732984 0.2105826048806954 0.2277768572717948
Ni 6.385802259228232 6.386104111255262 5.610593429707717 -0.2813185379436768 -0.23565600290955543 0.7719220450025479
Ni 1.4306748464929717 9.194733461145061 3.798601180204995 0.9031866315782058 -0.3227603500282312 -0.23592134075580018
Ni 7.917663564907524 1.4289580630892327 0.6058358840030436 -0.36411937259099225 -1.5479691679170628 0.18064005168499211
Ni 4.336104368301296 8.087191209588848 11.59015096821894 -0.37442512539237455 -0.7358558954076102 1.874333947467101
Ni 1.1703463389303648 8.170974012841658 8.637261818173071 -0.2037092747996298 -0.8131885078515028 0.01736548786164106
Ni 5.022449847639033 1.295152719231867 4.9600834457040754 -0.16090477803959388 -0.9498848069656931 -0.13773862433577566
Ni 9.119506276283413 1.3485239307612977 2.644988763023165 2.044855936881485 -0.12570303332748026 0.375803750907456
Ni 9.203619230190789 0.6646413753066179 7.498475995243973 -0.08636104119474805 -1.6532134191695593 -0.27851372150503007
Ni 6.059830368662212 8.19337709297287 7.172379590716803 0.1659541675380432 1.073267676800429 2.118396429272797
Ni 6.879537846692612 8.772527371211199 5.127067043770078 -1.7807650756700042 4.060473802833458 0.12317666736120078
Ni 9.161388245033974 4.950250615923538 3.8987641723621635 1.8212278116707408 0.13378221079118896 -2.1339307774629703
P 5.08708391292706 1.3532026371802792 2.6580900842838977 -2.2092818407004597 1.9413847183690112 -0.4810024936339974
P 3.3598677485035973 8.694215635948327 9.741311075803983 -0.5572166762027306 0.6101284366000976 -1.2055905294372722
P 2.377490326530986 6.134538745352401 7.873653539366394 0.3516608351126653 0.1444070374948868 0.19109852801415475
P 8.500049319560592 7.716884802552641 5.2145277253147455 1.1772204629350114 -0.9244655955616402 -0.6997887173714078
P 4.814766220165812 8.07642829825002 5.146395006375911 -0.1812020948360492 0.29295740773418577 0.28606376593814603
P 1.0260233385061355 5.633690769501101 2.1339051735927583 -0.4507647777953785 -0.17240557959034178 -0.028530503339525056
P 2.995928532662577 7.203340175814346 4.031949776276531 -0.23013815841511975 1.0223266669761877 0.005542269974467874
P 7.3750468148158 0.43786749369885214 8.657473641245554 -0.9748666737220112 -0.6161077941119841 0.5110190946007458
Ni 0.10057709540675197 0.6261618448732481 9.765912959294601 -2.140788423814752 -0.5317576126996777 2.056553942044703
Ni 4.817388559650645 5.1461997458459265 3.8222512865228793 -3.1063829282062176 -0.00800384414108299 0.08781268603961007
Ni 2.863462657175161 4.555975271365895 1.5782701115477349 0.25029817830276246 1.0976350499012 0.4089558121793925
Ni 6.217227335007224 9.46409866376691 12.99450809110514 0.927316948967506 -0.9836832435723768 -0.472929743928192
Ni 5.748875616440987 1.9187601413263646 10.466235130771459 1.1174356295668948 0.05270555792383182 0.6387522709843774
Ni 7.904391508594002 3.054610453292585 4.768857356717141 -0.17331163634437893 -1.6362240837004145 0.270613749931663
Ni 4.316974496088203 6.642810394493497 6.830116180279366 -0.6067777749603098 0.31022416523443347 0.39821142917869484
Ni 8.730494476447122 7.428040711311442 7.2976274296078385 -0.07300467449250007 0.4105689223027833 -0.5866365241257446
Ni 6.039502521216838 2.2502596971373907 13.010108181177138 -0.43701786052293123 1.0656410134931067 -0.30321765200961326
Ni 1.3622487651153665 1.9942986110908894 -0.1871727822364586 0.6138015145763107 0.2634419147735721 0.9190498238627076
Ni 4.731511657960306 5.318481790273908 0.338464791334768 -0.41161690395132333 -0.45426044965346285 -0.19007137230122104
Ni 9.102979877803461 6.708793361027319 10.905968447312397 0.04982566527287548 -0.3506948716549702 0.38583928076658713
Ni 0.2673324178773122 5.501347521399667 8.365297858256 0.7074161520096784 1.5299243946002103 -0.06660082784868529
Ni 0.2209321015971302 2.742250202570498 6.9164307674089 0.3218807756367553 1.3633855582032905 -1.4651621626221605
Ni 7.483034377486165 9.315323345943973 10.871108311340647 0.6762420403997192 -0.32438528722616394 0.47437778922862817
Ni 8.585030098045682 3.7222316740785506 11.543265802120338 0.7002543441539165 0.6063160048325429 0.7168492723981202
Ni 6.2274431395470575 4.709410429856125 12.374936996584598 0.5349786907401367 -1.1199985051980645 -0.7830343528656256
Ni 1.661252063641329 8.912520681622702 1.0245753920639706 0.41254327242033473 0.6492783673266818 0.08435532361862892
Ni 8.124903847216041 3.582087437653532 1.9638577774523904 2.4295544191754095 0.7359541115483712 1.5835465508010405
Ni 6.004223565557582 6.980780903134002 12.963858790910473 -0.5499142290040465 0.4280886763541015 3.75014370814878
Ni 2.15480842646466 8.082031426501786 6.564378861707396 0.03441730113760524 -0.1311792259507031 -0.6166816643375831
Ni 5.425827917386832 8.975334201872698 9.793524873467268 1.0528436046181224 0.016180209304288262 -1.9305878848638234
Ni 8.948676894735517 1.477509075062011 12.104809617594494 -0.05887749106249861 -1.0790703995251352 0.2806181694425425
Ni 4.005180217916798 2.8239860717650043 0.5914818768301318 -0.23071794217798977 -0.9757241366263002 -0.6733341227243049
P 9.466362553969644 8.577521528873284 12.19833186515698 0.02870559546480863 1.0898921727309876 -0.8996063704261151
P 9.232125380993534 3.5582128288905435 8.757801708730005 -1.1868091350647108 -0.9722251223341063 2.2715912402626426
P 6.3432788549202295 5.896603885045161 1.6823402008797872 -0.38808873892239615 -0.41045759353589956 0.5528288315476801
P 1.3757000460699385 4.352074227106408 5.692268928496818 -1.8244941411268383 -0.8300819411727317 2.3751668455634642
P 5.558473017515296 3.3333896660074664 4.781627584035724 0.20419135664237095 0.5826261174147708 -0.0447950448275035
P 6.4994684131571185 5.526297478008954 7.81205120037486 -0.3767458031057512 0.731568837996482 -0.17073436253550595
P 1.7617216242634515 1.4683969169960107 2.0846599019578087 1.422320384866286 -1.9700810578624395 -0.496617574463435
P 3.4024854815700465 7.19627495180665 13.815631443799832 0.9480256422697674 1.1214954014585654 0.49097503146567706
Ni 8.157107685349919 8.171370193627137 0.10899122066024299 0.15367432172942566 1.4484901012831184 0.18112958972690096
Ni 6.945096333813422 5.026807836279294 3.776774448787896 1.096767816804898 -0.7113969910342973 -1.1508962232181856
Ni 6.707482191284903 7.429804659094405 3.4255092449318414 0.2243806871060523 -1.656491832810515 -1.7994130297884947
Ni 3.4593091256586455 4.596536637498195 6.168064129392124 0.5572102484448274 0.6942238216891204 0.2998767605618384
Ni 6.435004139634296 9.332094999195887 2.0441117418516916 -3.187714377396859 -2.2943048798100745 -3.477301583107231
Ni 8.193707243627436 4.922121780154581 5.8262006728905025 1.0578906801237264 2.360342378956122 3.189946609161487
Ni 6.009421080148023 3.2137619345447157 1.8800693144740728 -2.3982633223716117 0.5490819629107382 -0.2747483409253268
Ni 1.9000736142779724 7.714460553460547 10.818701139722547 -0.6790453141764693 -0.10063580594620734 0.7660997818938161
Ni 8.326776823168913 5.957351605485164 13.223879786720543 -0.18199270905814463 -1.1538046551142322 -1.5826551493350227
Ni 1.1451416946732706 3.3446430868902186 2.5487885220083637 -1.0435855763549642 1.2656646119110333 -0.5122084869231567
Ni 1.3332615376445391 7.071289346864098 13.152296521797709 -2.4727990887966573 0.6585698199309368 1.0948058079825211
Ni 0.7771284197549145 6.650847204713199 5.4804584178415325 0.36965804302103433 -1.3309222954682627 -0.48835224913084935
Ni 7.063045013375812 1.5268807472332802 3.3273073476627903 -0.2984744808976731 1.0263414445625358 2.271937824968784
Ni 2.0222482222187974 0.9590027556293935 8.89254751030909 1.774836111780079 -0.4810909395827456 -0.809939919007218
Ni 4.354413580315899 7.034718087214116 2.137370812178109 0.28509600270823804 -1.1516282162882039 -1.0843817844357198
Ni 4.221287403519354 0.2468706235949437 0.22140657525211965 -0.5076689471815902 -0.46099288328128996 0.9293175243373027
Ni 3.8924101871931596 9.055692871193875 2.9774636781965356 -0.4686532280400252 0.9987763904600735 0.5006997149526087
Ni 2.682153350563781 4.735190479539748 9.773865816919285 -1.6022716380143693 -0.2779606772150374 0.06951388773042222
Ni 5.0262607294803 3.9399424485747083 8.72546769690947 -0.09722858003687126 0.6191620075572756 0.054732872766505736
Ni 3.739946614914936 0.11458680261133142 7.2161028568322525 0.8398169090723084 0.7473507834210872 0.18877913585235875
Ni 3.0163884403697763 2.436832548470125 5.959359864752504 0.6069181571929161 -1.4236750991219673 1.4693085806903663
Ni 8.45986526846208 6.406375361445568 1.6523257332294699 0.22409632309641406 -0.04163335927007023 1.383792661104733
Ni 1.1120040018307662 2.4827046237030026 4.6715940305946395 -1.050409798365649 -0.7727982769599143 -0.6820013114809996
Ni 2.8041393009877114 5.871776555821857 12.076342141582712 2.1903374383874725 0.6974734389746697 -0.017198366156157475
P 1.5744790387457417 0.7837757673626894 6.18944940221969 -0.05035248431062296 -0.6976588155125985 -0.4093574184931853
P 3.527272996119859 1.9743480786793046 12.287172576437731 2.199663857994721 2.254426298447582 2.670042039145653
P 0.9746896281591643 5.023694987250535 11.94272734181741 -2.4685804227296195 -0.6255082614902775 -0.4400250227803712
P 6.632302170802477 7.182672744838562 11.1742186840094 0.8420141738339435 0.7787308403942653 -3.0109659474567882
P 3.354075962734939 2.497872688061314 8.23479024779395 0.4756106331944647 0.7244862201180877 -2.2562718362967527
P 8.330295285858995 8.844226660506923 2.342292493603994 2.2558537749227283 -1.6910839689630877 -0.16173318747816015
P 4.219966800901092 4.598640168811568 11.469735591623154 2.108463486429801 -1.7513030616551453 -1.547789190695773
P 7.918795510008891 3.3625938496227223 13.734894516157281 -0.17597581344010338 1.4447486319628149 -2.7189935293436913
