# total energy = -340857.1625248436 ev
CRYSTAL
PRIMVEC
9.40031502523928 0.00000000000000 0.00000000000000

0.00000000000000 9.40031502523928 0.00000000000000

0.00000000000000 0.00000000000000 13.75831123784473

PRIMCOORD
 96 1
Ni 0.2607553389476437 3.75529425483393 8.206378208345715 1.0807742695901192 -0.064914698395514 1.295642646330362
Ni 0.5255857144659569 5.440046917590826 11.875321169204627 -1.579278776663622 0.4459277614180514 -0.6040071541937082
Ni 7.378250874507799 4.398351006221161 6.194982458480897 2.7666869787649127 1.074357310320182 -0.591478168488762
Ni 2.7096878124068287 8.226478901999839 3.869634986846247 -1.247165524665581 -0.8639248578641057 1.3469510667963511
Ni 5.036425590636179 4.278412386601385 13.145832969104024 0.9762221593086414 0.3115734801734763 1.0716273129835288
Ni 5.995671338773219 5.711180204344743 1.4420083274295592 -0.6427590781509253 0.16395693460235636 0.5189162379606354
Ni 8.303251274947147 7.607026341682853 11.665768406258781 0.7851007484763511 0.8776774315635079 0.21683887020305237
Ni 9.266106744060282 6.300175743925929 9.59501906721932 1.4546466078028175 -0.1932762523917639 0.692871164315968
Ni 5.370409383760329 3.9449832120647064 8.790281597268695 -0.8367732371499782 -0.5970451210535782 0.49352016648503394
Ni 3.7585843650986 6.954700879664294 6.481182570183993 -0.6935910732011281 -0.03277873709291774 0.10947165907028245
Ni 5.082816145368023 0.8709476489168405 12.948345510514477 0.4636938271522208 1.498006205735375 -1.177250030621366
Ni 0.08472033931524707 0.566435723512097 11.533853785275607 0.4646765027804642 0.48305629083923257 -0.8937180299661384
Ni 7.322638610719837 3.1541723088486755 11.57633944913904 -0.22216028241596578 -1.047358156023519 0.17047545244716447
Ni 3.3964278277938336 2.3836754864382206 13.524530300756544 0.6562758816904375 0.2599830096906942 1.4246598316327401
Ni 9.17816679684318 8.168638763546944 6.846355668585709 -0.16560706861126964 0.9460044980746805 1.0576130009823077
Ni 1.7282949220310404 1.6300240285828747 2.6369726154316098 0.6055960959473828 -1.2954295018782915 -0.27453108270819815
Ni 1.3459089067560754 6.823839093965814 7.82882301497079 1.597575775200597 -0.9127043412606538 0.3687067348513585
Ni 3.956169586964583 6.151340555867309 2.9669932357340905 -2.5711268154349782 -2.463990746476408 -0.3316633089448159
Ni 2.1336083056932327 7.112776577409115 1.450731819788455 2.094373326885322 -1.2132873838608975 0.7836200501657665
Ni 2.801002472723978 4.4196709207362215 7.994363502890393 0.3030746986738458 0.7302460054200005 -1.1271088909906009
Ni 2.4404533892913793 1.1444601554078653 4.97818311869949 0.10988175002450754 0.059891277038993634 0.4422053182611417
Ni 8.268394906771732 0.5392058309301857 1.8805132834732445 1.1055856722068442 -1.2378990117619906 -0.20127135478209854
Ni 7.445754536823781 2.524473405136004 2.2343637024069762 -0.730059343330491 0.9772986802022717 1.7384817415207607
Ni 7.3038003793758435 5.54120370775686 8.56281559397898 -0.6937566522447149 -0.7187863415198331 -2.5519556418231666
P 8.34747035690431 0.18187635539944177 9.091588015244145 -0.7186305326682592 1.0447400016743813 -0.49643168370487417
P 3.1679061691249117 5.261196523603377 5.1560370792924965 0.17333940425852082 0.49043124314706504 -0.399611394850015
P 6.2159865224105495 2.413756494572344 0.4461680928658534 -0.9424157522821576 -0.330093907575167 -1.3867208904951216
P 3.5735955653887808 5.530816359635545 0.7867603074644699 1.0247360477486287 -0.5298028029661521 0.039854927213408775
P 6.036440505109998 3.099857288536499 6.834840282659365 -0.03156260529762951 -3.347382969036506 1.1284438077519405
P 4.404179201547148 1.7213198882699403 3.6954415089305614 -0.9812417240104199 -2.2720794927529706 0.4664685616838805
P 3.6668278899744804 8.886305815421844 12.317224339135961 -0.3295033251790196 0.8475852401638178 -0.6118071098541011
P 2.0370294689526114 9.067572090375066 1.062229959547221 -0.9834886110630675 3.074317929350873 0.10985886720637209
Ni 4.9825805860760966 8.238755713444577 10.629024580853196 0.6219339138754579 -0.094048896757309 0.7512714586317318
Ni 7.320937153697251 7.85954700465378 5.683765125556506 2.2305075828484555 -0.8890429930879722 -4.027253093107115
Ni 3.955079150419721 2.529765782504601 7.027305152922019 2.1218764174015967 -0.05113564233355064 -3.417754062560901
Ni 5.703039531518445 8.749155218960322 0.617689061215123 1.0210223463424675 -1.392186541595383 1.2300134383663268
Ni 3.969442831803766 3.369608728979254 11.22678215408495 1.133451545379177 -0.9574055408227705 -0.49907812018878556
Ni 2.7647360572922755 0.5503141832152151 10.483764332605016 1.4551430878232616 -1.491884151998037 0.8350050895059621
Ni 0.7785886135985345 8.699324148923138 9.519320210249798 -0.16877903858134805 -1.36184880984379 -0.6429508824467572
Ni 5.22579493715553 5.032233050127484 6.84807592623838 -1.6138225760767626 1.520026675870524 -1.7273066987405479
Ni 7.047942604565036 0.3693628188158976 10.913752603220729 -0.7063242044970803 0.2522355045347914 -1.5691681705921814
Ni 2.571089567428854 4.6981552538529145 12.760833666247407 0.18559970968311262 -1.3894341756612265 0.15825062824619843
Ni 7.7462168065084684 6.011755277809932 13.327566439714827 -0.6881799294878858 -1.8000511775931258 -0.42679258325049724
Ni 5.36186449738723 8.250647111972599 5.121738149799066 -2.156156678740706 0.6390204370440995 -1.332112716231938
Ni 6.50752789312046 0.8657586750137042 6.650946619651929 0.6148551526518057 0.6904682113014302 -1.5492662894619318
Ni 2.7352942705810017 7.564583919268612 10.060999264067512 1.1592592504709 -2.7835287329126 0.7778075572490475
Ni 3.112622916363417 3.4139030134567507 3.8711484375679954 -1.4273430348918579 1.1404297764692228 0.4150259296328724
Ni 5.952317085799912 5.049473227914354 10.735582792042313 0.42575591445586675 0.926461028725114 1.3028139672678207
Ni 1.3515114945210562 5.565005305442985 3.0712681103995263 0.21943696994753178 -1.057668022589959 0.48222248208402757
Ni 3.5550581441261264 2.3286554424978996 9.077953798307355 -1.1037100524506862 -0.39418431029717277 2.1880378437200187
Ni 8.873041970897704 1.619204265969632 7.161765379218544 0.027688209943887796 -1.2260025174347209 0.44030090214957723
Ni 2.3278752163494207 3.744888106082531 1.563893752294516 1.8871781504196208 0.9136793035794136 -1.2774605761046969
Ni 5.1278906559939985 6.485314948676418 8.733335428776286 -1.2087193048742408 0.9250559208474715 0.16812263594427174
Ni 1.8729281692659243 4.639271680430367 10.083026082273724 -0.4995056946445074 -0.3721841518769977 0.511563654250306
Ni 8.174260151942008 5.87331683818767 4.5587476417498305 1.406526612367139 0.3645598025625205 -0.6841504966135186
Ni 6.356173420630609 0.6325312186348006 3.2241642345562522 -3.7940581501435435 -0.22560170399734691 -0.33022297695386355
P 6.778820985230089 8.120847561873854 7.476748315548475 -1.6999074807919885 0.15472538870175934 3.7531249022642914
P 6.264774157478081 6.8513538160934955 12.2410451260678 -1.9741297740105161 0.9647522109958289 -2.03398916937031
P 5.307831486526311 7.589814364841109 3.103640915340869 1.020509411261791 2.2370001325513345 -0.9475584728253615
P 0.12876457541262945 2.9598865975624036 3.9089696651076307 0.13422444053493013 -1.728812336751797 3.9368857589664517
P 1.9396892066935953 2.281118049330942 7.157913130114367 -0.5588421276212957 -1.8337303150131257 1.7967269983158989
P 0.3467024193758605 2.765892296042431 10.40403462054552 -1.2979604958302615 2.120418344798832 2.4458981506407556
P 3.3258502624591455 8.356692065960427 8.282861051589732 3.0471807068144487 -0.8505219541946384 0.10710238750715749
P 5.545471450785888 2.09469100141971 9.946763815583665 0.45163715309800284 0.5754355132036024 1.7931631922240407
Ni 1.9439569497226241 9.108096848520756 7.139366308536672 -2.1496795556567947 2.0479330331449117 -2.1686609818553038
Ni 2.017777623746772 2.2108036928174277 11.839646033589059 -1.523323601454241 0.8256262193942233 -0.9054193775634665
Ni 0.721895313580753 3.323594186849086 5.982237348546819 -1.1581001971657927 1.9523175632314314 -2.822808504348829
Ni 3.4538543523848837 6.786726650180339 12.472720590433282 0.4970220089907053 0.1160120312919615 0.019241878948747508
Ni 0.3168667594643306 7.711125430457004 2.874014719654522 0.635808357864705 0.6848441802464335 0.39166051543405456
Ni 3.8844921847699916 9.325591937645513 2.3535521768864083 0.7161293635129602 0.8127892155305549 -0.7969368218793308
Ni 9.286402024235775 9.22513077079258 -0.011358400665144305 2.0387408251226824 -3.4830994207359307 0.3411650777876641
Ni 1.1764682281255816 1.4949227008004913 9.190703056983075 0.5748971242016292 -0.5725275955281882 -3.467061136326145
Ni 7.604779666387835 2.8769288173175154 8.920641406143938 -1.040522364048608 -1.270928945633766 0.13512226975885117
Ni 0.7567037401494552 1.894436090081823 0.09721429803745454 0.6537459161797321 -0.5862097210009711 0.8367621814063847
Ni 5.724867063045769 5.794861808847858 4.542196507055533 0.05245333270370966 0.2805181535295685 0.07241357787572045
Ni 4.2205064459431965 0.16798456983050172 6.582856377677332 -0.40703134146317 -0.17608534243477414 0.8901274844014023
Ni 8.114568151425855 0.9758091032408919 4.347667327609675 2.7879872829045858 0.23901772029293678 1.611690360225108
Ni 7.3116684430659244 7.583318747147146 9.547319048602137 -0.9701463854282065 1.6406818623614516 -0.012139463576011351
Ni 1.1236572582201103 6.659681392388875 5.263998757517371 0.2123651507024149 0.00432356707601836 0.4609147217451868
Ni 0.24143581147350268 3.272841885937794 2.0516666995043753 -1.3746755292948132 1.6798793584965197 -3.6951138729671458
Ni 5.086632673275039 3.0987010497863428 2.2818710145657994 -0.11817741437439647 1.0732190829506807 -1.5801658072542657
Ni 5.42518501950956 3.3517293297695336 4.705314533788836 0.8267744740660535 0.17383022785201033 0.6420720793862297
Ni 8.426997022158899 5.626586769282562 1.6855310088423665 0.029136512354640143 -0.17117942049272455 2.9101802461962785
Ni 0.46371378089158527 6.568329130811558 0.19324133628511542 0.2551933016115347 0.8810522615730118 -0.9766106529963117
Ni 7.478467633169641 7.963505088702304 3.1035581925685 -1.032825766735299 -0.6267696447012044 -0.06114109028569469
Ni 7.515862086406374 0.801649466459357 13.023466248108921 -1.1978831334906852 1.7719739597409356 1.6218624156621035
Ni 5.771257617777613 0.39595819013247985 8.745952531625543 -0.5731953110191742 -1.286068886598998 0.4727657075465019
Ni 7.946518719421565 3.6925377516141142 0.29362448052319906 0.24368375831003836 0.19889077036506392 -1.3075167720601288
P 1.1555525271573235 7.611820502354229 11.425286726762033 -1.8071631060475586 -0.13073699620696194 1.3632590599277554
P 9.192737285158145 5.4785694086325885 7.104530621054348 -0.22762490507496283 1.1295429543533901 -1.2233797350998932
P 7.130862783549756 4.4505133543887405 3.280642267359574 -0.9955033761357565 0.7498388399502635 -0.34605223067663626
P 0.6640232140567156 3.9381491830292346 13.459976457300712 -0.04382831003886001 0.6846611177013499 0.4529018787430394
P 3.8147982490492436 5.406901406753039 10.579205731225567 -0.15165060643117753 1.033182378743769 -0.27434364928774047
P 0.4077104639978803 8.891569991845316 4.895069293224906 0.7928120010776797 -0.10495834458096118 -0.6441724135586843
P 7.703877787559689 7.76705730495639 0.7957253879199431 0.8237277168199298 0.7212607712022546 0.9633082794604505
P 8.101417110682219 4.583198801205352 10.181892955695547 1.0713858863966839 0.017875080508207925 1.6391291731623512
