# total energy = -340872.89251005714 ev
CRYSTAL
PRIMVEC
9.21352222425984 0.00000000000000 0.00000000000000
0.00000000000000 9.21352222425984 0.00000000000000
0.00000000000000 0.00000000000000 13.48492109230106
PRIMCOORD
 96 1
Ni 6.952892518782786 5.561309741088262 7.358788718532951 -0.15635623943696297 0.7136407927631516 0.32799665872650613
Ni 9.072988510009797 0.4558574461356619 2.5631733604878657 0.37669900902821574 -0.9809131370264076 -0.8322141570243861
Ni 6.424303527084643 5.702617533625858 1.4024455205648263 1.141885535079143 1.2401939784437546 -0.12984970850600216
Ni 8.3049216449572 3.2459055027326116 3.3992516835944966 -2.174729042426255 -2.4307363552986527 0.9533843354785193
Ni 2.9769812118942887 6.280102688523912 13.184328460813719 -0.9805781222844919 -0.45101083236791356 0.5519929659099461
Ni 7.585916786507118 1.7158434838670586 5.094387775942467 0.770286566281654 0.328510365138131 0.12867497147161067
Ni 4.425770749963458 3.555314010850076 11.123064495306833 -0.11535948530962714 0.3481006285652327 -0.6536117045947131
Ni 1.999233004821051 9.020628062400018 6.1776040948991975 0.08082519897818338 -0.8669322772318617 0.7838681616208306
Ni 6.201327072288896 2.9764836816864886 12.56019247811651 -1.538111558396693 0.5408670312001136 2.249251696225178
Ni 3.503331317657332 2.439381395321543 3.4865802126424916 -0.11049855767290002 -0.27444726474514025 0.1749651127874019
Ni 1.1521970395637406 3.8634694799256737 3.9882058311345796 0.7599815848112201 0.07281672685141008 1.4744916675532027
Ni 8.311601448673038 2.3037952001736484 1.18077922864962 -1.1313296139401678 0.43756062040027865 -1.7298438633401048
Ni 6.902743316541009 9.040953092740889 9.240218547726014 -0.9477399927085484 1.0734062592608224 -1.4272682157898646
Ni 8.58400845096596 8.652815036000241 10.7582025601211 1.5471155616675163 -0.534941409744298 1.153830366145845
Ni 3.651816444118563 2.4710574852181497 1.1794193127482997 0.6209684646383951 -0.09382932454733518 -2.1545898484742185
Ni 1.53101101166932 5.541067632448691 8.731364920937274 0.8203755125182453 1.3804090893444807 0.8726555528688842
Ni 7.874032844435211 4.208958141631013 5.50724202778394 0.6804820466229958 -0.503553639461636 0.759273503000602
Ni 1.3008111553381052 3.6686771900495665 0.30840791958844443 0.6240581593073123 -0.3589080035933818 0.11280406587762508
Ni 4.576236783733522 8.008375214063607 5.412537152729191 -0.5642126479045896 -0.06270792055218233 0.005886540687764056
Ni 8.7691173288347 8.778450626992134 6.773731890953969 -0.01148743181430925 -0.39744318355410263 0.6338594616684502
Ni 8.756798849430462 7.027079800879202 8.677924648506123 -0.3041077679240505 0.08937823075451705 -0.8937010606852739
Ni 1.5897195761897323 3.469775669197925 9.682119350180646 -0.016907060167983785 -1.3969919334038265 0.4970436062572601
Ni 2.7281331862929368 4.393947243708984 2.240816168036285 -0.07054824253220754 0.35010788880324867 -0.29399407652881626
Ni 4.2897607327866965 5.889090012804864 3.244849633069391 0.8065925998015399 0.9009400016358742 -0.3037161889125866
P 6.108399485698676 1.955837314474042 10.450490261471339 -0.0956074994936805 0.6495403627388168 -0.18182430180108042
P 0.38544494415287056 2.8581359868866305 6.09426778509268 0.5484448435473716 -1.3302265549528187 -1.8575955516664975
P 7.885328622856748 5.3234442341479795 3.49419887428749 -0.9569607399758681 0.9617159952726664 0.23114243130991804
P 3.336824541446897 0.26000560118738764 8.679030271190124 -0.578689501364526 -1.1908591367643684 0.10940892415314706
P 6.3485499461858925 7.7826531296025925 7.332816720333549 0.9468465343600017 -0.961337528887325 0.15244404886675036
P 7.808856387213399 4.891560373210389 13.07735301667104 -0.272649292304453 0.6826602852212372 2.1310226026772394
P 4.800558412794803 5.873491519438094 5.362440467564904 -0.6117775421677464 -0.40989220795073283 0.6705678728330774
P 8.915538626285796 0.6453114211525214 8.849115579487773 0.43190984987240455 -0.7019628422045912 1.058112052105913
Ni 6.997495180559828 6.470067092679885 5.05646768193797 -1.0013894026028884 -1.2949993563194087 0.0066920673081949265
Ni 5.798318390448444 4.018809467027706 4.490924173379355 -1.127489414258471 0.6317773823284409 1.0360098208902353
Ni 3.198225524485102 4.282629466474895 4.922023042211305 1.0558836769960267 0.46967755553948143 -0.3966479413463169
Ni 1.3092323147812401 1.8559350914522545 7.922701433632666 0.3055702114021899 -1.3249203122485569 -0.5625977380089859
Ni 2.808530382464487 7.799412526787563 2.6626784806956496 -0.3447918759069739 -0.032082225246525396 0.6789609819927791
Ni 4.541059555337582 4.447781854897429 7.008504418435761 1.5842716018925231 -0.7733708616339326 -0.08393366270017803
Ni 4.106006242705858 2.1511087075132163 8.3146409897018 -0.41654339471866325 1.934070186985469 -0.48182781774877015
Ni 1.3591603924862175 8.42470664924626 9.247635433231181 1.403613295375086 -0.4431944216472883 -0.9605983367284552
Ni 1.0652766695565892 1.4052187907971938 4.471397955427674 0.2311761127613309 0.46510767678061193 0.31932715597696615
Ni 6.275505140862945 3.3288732716444622 8.481125653458555 0.5775852125567537 -0.6587261430031429 0.7884146433409326
Ni 0.2246800350813436 5.396783872186661 10.790310764216706 -0.3288788042211433 0.4296681050260794 0.36961433426729245
Ni 1.367065594676819 1.139371816429338 10.61462916243354 -0.4921726513182041 0.22563769944160494 -0.34110902773874807
Ni 9.01061296358745 4.6539712719411055 1.8592473527430717 0.6832899483854361 1.4869617749957553 -2.9292431763650004
Ni 9.258668626265267 6.126660687029413 5.828398698271145 -0.6108594012288512 0.01951287322194704 -0.1928175675877905
Ni 5.266265114340434 3.953789639686126 2.0591743386341235 -0.992401083061349 -0.959974072880895 -0.2116660677528613
Ni 0.38426561328993697 6.1834528388975585 13.136686258007911 0.19732625409142146 -0.32206898038816145 0.5460241499210209
Ni 1.4689763655745403 8.263018545233592 0.32056239829455363 0.7129921034355591 -1.2608772178247187 0.9497238559077966
Ni 7.217781286824509 7.165485333871297 12.753755684108905 0.5339821311548224 0.22282516969347432 0.04184444683961181
Ni 4.576614538150556 7.527051592106473 9.214894260148988 0.8398251366024246 2.853182745765312 -0.9606788122574036
Ni 0.6431886255992411 1.0266627973178812 13.179137562312338 -0.31366095883012435 1.8943132188025056 -0.1875108106628964
Ni 5.232239576240326 1.189023488463315 4.65905345087856 -0.8904069633150343 0.2718748760322737 0.6560588805836249
Ni 8.530431818403782 2.8297859785643915 9.467669088983014 -0.23956870770040029 0.11834839273462198 1.8751165912693966
Ni 3.4249334558393487 6.042495160209896 10.558976723282152 -0.2516444079180118 1.049284169401638 0.12091255391737242
Ni 3.2614671420099146 8.339509207921676 12.013041924258477 0.0026153261356600117 0.5726029288508138 -0.5364851000823342
P 0.8456760493559901 2.587617756678874 2.266249175177237 2.0392568455271523 -0.7010884100194378 -0.06259556334403414
P 1.7759893578766712 6.272381756780645 1.6409799292289295 -1.1826200366840276 -0.14512488949751778 -0.779997880032147
P 8.001621702168839 5.059707156402091 9.281792724701132 -0.9523294118514437 -0.4833725365280707 -1.408381920408323
P 1.335758045674879 6.9742033960168905 7.122829489370331 0.8035157606484291 1.5295415573394948 0.6565412195366822
P 8.984022738037243 8.784153797337101 4.58245959673997 -0.6789540400142436 -0.17131363207774367 -0.4213001926773583
P 3.9362010254881556 4.287660049687096 13.314417868517658 -0.5335843814957714 -1.815325330143377 0.29830170276523466
P 4.43854069196366 0.48260798697504753 13.332972981211894 -0.5681695756698086 0.9076454386805078 0.6380634724474689
P 0.7495578199701932 2.890936126511971 11.882764560698256 -0.19855858383662578 -0.5590791833327661 -1.431023826177555
Ni 5.294476919827173 5.787593850413643 12.68572395630566 0.3903813916113148 -0.7964429129620476 -0.9044333595011133
Ni 4.414880366526056 0.2614779220615813 2.358364129094716 0.8636579773559643 0.5800755830787752 -0.1852533820872874
Ni 2.190487302108358 0.84587782549582 1.9530889207520647 -0.857353375294175 0.10746722704574395 -0.041260549311683783
Ni 6.321858371889655 1.146991399426573 0.6818734419601725 -0.09291015516717548 -0.8553954802368559 0.5026627522162505
Ni 7.928401839920923 1.9461170483772066 11.796784891324743 2.915661581025824 0.4963573788235129 -0.4253409384056352
Ni 6.784110002547784 8.62875852910087 5.217963223333174 1.2723278828638216 1.2272320189664478 0.9605371444732167
Ni 7.892294045765949 1.9249075198891354 7.4642273471448695 0.06171367495971307 -0.4255548541886542 -1.2622453018168391
Ni 2.21797123932813 4.523627571019845 11.663054299581493 0.19858043821349672 -0.9811591915989424 1.7509377078959265
Ni 7.1155941102557865 4.563365492987287 11.182991087484119 -0.8785600912787772 0.029168136923523956 -1.6186459656073349
Ni 0.6573212475574741 6.146368411371718 3.6059220465057136 1.2165999931738984 1.620573521647351 -0.5055506152870067
Ni 3.151457684951892 2.0250769350595563 5.819120681247909 0.33059501558130167 -0.44495177065802727 0.6165973321538929
Ni 5.215212986906723 0.360887221636752 7.1737489420819625 -0.7894191733460469 -0.2680552451758674 0.3406333736539101
Ni 9.273133856380937 4.239897149738286 7.549560227248244 -1.914707723298457 1.0920287594580163 1.1771728975265272
Ni 6.864792817912702 0.44058879686961877 3.0574898916864752 0.4590041349860353 -0.2519326285823919 -0.4365506910785256
Ni 6.836967980365362 6.92364879879098 10.123036148446518 0.9398366787010718 -0.880126921545265 0.6973448838166054
Ni 2.6552818649396883 6.653185849717423 5.081927408293786 -1.1496903758355426 0.05417777159398412 0.2825081873764038
Ni 8.414654696344225 7.053236990878173 1.8086789352336112 -0.03392210666874158 1.5643036434110285 -0.7088300016380695
Ni 2.6979496870197304 1.7821071367281391 12.444519468859697 1.2280928243048463 0.44486358181959507 1.0679465216978317
Ni 3.403493589292111 6.532838820563999 7.558932222199619 0.09619422523508595 -0.45186520994840884 -0.9714519916135076
Ni 4.795417267314202 7.616404332018425 0.7289803391164756 0.019018964304664022 0.48356305527232196 0.07219400566574663
Ni 6.554287900633603 0.2087747314197636 11.85053565945965 -1.7317588209746306 -1.4451198992593048 -0.18867500617432667
Ni 2.2847416359193775 3.9126604758413177 7.0217331938498235 -0.3292148474043234 0.19100108320434203 0.4404423128234479
Ni 5.388943164652626 5.254656076158431 9.326130958386251 -0.560586621116228 0.07814353838096219 -0.03364545596858722
Ni 3.9689274569345625 1.1888852856278151 10.595371979334967 0.6126296057553966 -0.6430357288510796 -0.27967740279582803
P 3.444116009406753 4.2494792129996215 9.077765721356913 0.8008726665986272 0.7728664111936884 -0.48398600174235357
P 5.855147396406057 2.3281926074005863 6.544798893948171 -0.5830045838001121 0.8441229926468301 -0.35662075022110196
P 5.886104831558063 7.838312018219638 2.642922846037039 -0.1576145373240963 -1.5283909886748195 -0.2966862786489987
P 1.3850688173812893 7.174846272595833 11.332242779006258 0.19845316860701306 0.3401068117264788 0.13546782602372798
P 3.120122495382852 0.20543575091408292 4.349696538486349 0.34245037225799085 0.4408593457562085 -0.9756824847550875
P 8.430981057977961 8.842530675052314 0.05498353742756816 -1.6761774841649002 -0.9528724288391072 0.6675995342333728
P 5.201180792342287 7.5066436400643015 11.300175114409067 -0.06328976119758133 0.1281131854308697 1.1197303391383424
P 6.300031537403016 2.4780874027839177 3.1934050095828606 -0.49356310390782737 -1.5297883832429784 -1.7648975125101283
