# total energy = -340870.489515878 ev
CRYSTAL
PRIMVEC
9.17471418049505 0.00000000000000 0.00000000000000
0.00000000000000 9.17471418049505 0.00000000000000
0.00000000000000 0.00000000000000 13.42812159747662
PRIMCOORD
 96 1
Ni -0.061695364950249715 2.206197625512945 10.201128815124314 0.5328878696493791 0.2926311347430186 0.4454045419247296
Ni 4.310922913104891 3.04270218337435 12.679234689937736 0.5034320262821071 1.759938111622324 0.16200803840610165
Ni 4.880902026426961 7.035803825419444 12.771446071448477 1.2688741199872664 1.5279875825888136 1.0512286947225185
Ni 3.859591202494788 0.8147476408500254 12.670748996868738 0.33964812692250534 -1.3066132864092528 0.9925260386749873
Ni 5.493974771866115 0.9039809101646404 4.176602346299754 -0.8831510530835694 -1.118931497386131 1.268381239511248
Ni 5.390933557834402 8.9456581855754 9.0142575228842 -0.36992775174265324 0.1058695435413209 0.6711093471588442
Ni 3.3414675732531416 8.267454144756396 8.696306888355625 -2.2178886085328644 0.6767128093885507 0.44059015125522183
Ni 7.163836960653399 4.346263911809383 6.920760250405069 -1.022753470100961 0.08070898511529326 0.7990921776594367
Ni 1.7807019098020773 4.240378536407371 7.484083108649229 -0.00736955299119376 0.879805276539788 -0.17418298320573875
Ni 5.459725564139252 6.089175174242872 3.5775338844593905 -0.5790353147397189 0.3733018104212087 -0.07377600544088585
Ni 8.730419392842432 3.6144978900877733 3.3884522016190757 -0.8884236143364183 -1.532091320344542 -0.9665478694436709
Ni 2.636234824702194 8.395505629418546 6.248884009899273 -0.6608311051612877 2.14860663430759 0.1467374854002763
Ni 2.4198124938506154 4.117373144498977 2.7046112164584177 -2.042053177325367 0.6534204145195134 -0.5818473302672172
Ni 7.343110874123231 6.540635330850343 12.649666421343541 1.0526561711976647 -0.5928632217617467 0.9742418956538189
Ni 6.047622894094209 4.23401128482354 9.712546847805978 -0.47786703332880925 4.349588182672471 0.44815587941762175
Ni 7.075236746611529 8.031251130310089 7.764300896508029 0.725668413351647 -1.116288146226013 -0.9541016732605182
Ni 4.052764807822695 6.964176832458391 6.916476576392833 1.352988788349999 -0.8771143599711861 0.4601989266250848
Ni 6.545387832752971 1.0782674490509405 7.278418130077251 -1.8260416881196164 0.45565681578035716 -0.42296703885682
Ni 3.086621539760229 0.7467290629436136 2.281289907988714 -0.07548733170503774 -1.4640966974721237 0.2465965610814592
Ni 5.245899677377334 5.450284783332679 5.767485843719467 1.186057601610667 -1.5080826161347705 0.5758749147338663
Ni 8.50787752768766 2.220005570230043 12.567016009394054 0.31586079469492057 -1.0286538947457962 1.6074814643500834
Ni 3.5522382802205126 1.1842262221657347 10.115914070584509 0.061804434901306465 0.49666128321717684 -0.5055166767252778
Ni 2.4657411126238995 6.595894633861028 12.692771063117542 0.13203720307562422 -1.0681694363419152 0.45300215176632946
Ni 5.031963694046243 2.8035173868462797 8.374743251415362 -1.751578169693403 -0.9659793985347106 -0.4831807322322388
P 0.17785366772750105 7.254501485367262 0.6909376265152593 -1.8881410285535225 0.5885049447930509 -1.0922475603370416
P 8.123768947271696 2.5140459823484984 1.563100628188939 -1.0761097742349144 -0.30141556580386797 -0.332127393065428
P 0.4803623409581701 0.6080468370564117 11.839494210414058 -0.9814630959926065 -1.6800125416402747 -2.2481270957024315
P 3.2515737245234893 6.164829866692831 3.3273541105565885 -0.14245094220978047 -0.3010846648270105 1.3313799518309715
P 6.43146540780134 6.054604851522589 8.477522068623879 -0.2982086288307961 0.5649376989960723 -0.02885600499974385
P 4.527299370385981 2.6455655089395953 3.459419532636501 0.6167433708134539 -0.27505995862847465 0.5830346657070992
P 1.9726461034408866 2.6530612503574487 9.569121294730246 -0.8372229230928873 -0.45489731190651334 -0.36378821450381865
P 8.520364313574683 5.54960106344071 10.966182534535342 0.09694858690260723 0.6860389718854829 0.13335669321799615
Ni 8.720107014196572 1.673788966421118 7.768343275539493 1.42206044633668 -1.0831859643554054 1.3828015008360572
Ni 7.71437485480236 8.863516970258338 5.316972517606883 -1.3092934043445774 -0.5623588825253024 -0.24304458206414273
Ni 0.7812792012928813 0.7471281630068654 5.772239263093507 -0.8293610038463072 1.1037730444781377 -0.0745499074924329
Ni 3.5672297630562193 3.659674182305043 10.44694417753082 0.7749142948616525 -0.8463367124686972 -0.47806243716906693
Ni 6.382362337950237 6.151287988684568 1.3913013542945363 -0.18771932712927672 0.37898523395923117 -0.7004698025988324
Ni 7.456858979507006 0.6249374857103502 9.49092887636085 -0.026107238610013104 -0.11737523018807529 0.24518939632128744
Ni 6.35158117215232 6.866860640023668 10.647762154644962 -0.288772937339193 0.3047448872874171 -1.6604328197361338
Ni 7.317485897648245 3.9416131465285797 11.730618795687592 -1.0068985053465755 0.8639102025760863 -0.2855428604376695
Ni 1.6276309797953903 6.617097398140904 7.899656371063392 0.46171742015214035 -0.011960257685669724 0.34705933178491194
Ni 1.552783662186031 0.07188847231283839 0.1102341898843409 0.9008566978934485 -0.9487596922223144 0.9640356445447784
Ni 1.8320069110366368 7.226408510799984 1.9482725579688316 2.2687923373612664 2.720436432437805 1.9201206667839124
Ni 1.6093365998844975 4.8573321859098675 9.739281964686791 -0.29589129355152916 0.9226473114059787 0.1974704929787696
Ni 2.0488421040226137 5.791400653486636 5.51599041581505 0.85838310211027 0.32806093630553823 0.11035020502049384
Ni 5.105902714959926 2.670997816418529 6.057572871533207 -0.4355075945259919 0.5382439917549697 -0.5127509896901878
Ni 0.003407488815900475 3.20124124298329 6.237214691038357 2.4048761997024393 2.3970387059358913 -1.385900451476355
Ni 0.3723383396999746 7.3126049497482475 11.871668097812012 -0.27739272052670944 0.7226185707817296 -0.6067836884975808
Ni 1.0157234230466499 2.400582293101753 1.1446134765773344 1.517251427118232 1.1456249475169173 -1.3683300466927595
Ni 5.723260051882725 1.091699230490031 1.799072439839981 -0.6645556052007265 2.4987674878359614 -0.6186315889751023
Ni 1.0981949280712306 1.787582945375382 3.315980217489621 -0.24657162138079475 1.151750857908997 0.9270120161325777
Ni 1.9582051034510446 2.0775130855780497 7.456729616038228 1.1738967978784172 -2.1429818319216447 0.4001950352676269
Ni 0.21318640918930593 5.663367518252681 3.5086611406704793 2.6958705701729833 2.339801578690293 0.16437268198353627
Ni 1.237100099511008 5.339674430170331 1.0653760582722065 -0.670723167464019 -1.25361359428377 -0.44354743411133285
Ni 6.391537052047976 1.3750419259705222 12.972854900150516 -1.0730925846751456 1.4794101879007424 -0.21207255916266057
Ni 7.573992554392847 1.6396773794057222 3.6633523251868265 1.2935996477584044 -1.446785974107818 -1.735057032109928
P 7.193737353897933 2.7560015425340865 8.903475602568225 0.1753482071584335 -2.4037533989519058 -0.26703605988273366
P 6.980205057987142 8.789724744770218 2.6686509245523276 0.9254788673175027 -0.5287985300713538 0.7870622430780961
P 7.793561812179951 1.86065036844978 5.7431132157188225 -1.8997834978884571 -1.1186144803663445 -0.8520641018707777
P 2.4559425179675136 4.0904912321925995 13.353769762589058 1.0704674883474727 -0.6192471110719141 0.33918352858126105
P 5.714177084925962 7.596525652216895 5.406833337365785 0.516796363404155 0.22578528076306276 0.48127271657624854
P 5.376153093422944 0.3027215265977366 11.203256229349522 0.33926760365463504 -1.2917224853403495 -0.2381882824131059
P 4.027112307205415 0.9856578849483572 7.091471403207479 0.16250091888212015 -0.48374226116266367 0.7356144688207654
P 0.569965351250924 8.4285712990268 7.464155629628939 -0.8386439718101298 1.061476854813088 -0.19744915282253092
Ni 3.8124056478901136 5.858889850389608 1.286670162309685 0.4269496776536518 -0.6457161038967202 -0.4738471135361388
Ni 8.487069276113987 4.321125195181577 0.389538176219007 -1.626496057779373 0.011837616064876388 0.8635438203756031
Ni 5.678285603375604 2.3711773344184977 10.857764020570944 0.2084480750361958 -0.7641390586230196 -0.11863918450216342
Ni 0.6903394351560866 8.983246989233841 9.60128142005705 0.3988246372826615 0.5851931068109986 0.2513962964629477
Ni 0.8266233907781395 4.100051284282444 11.930577102090776 -1.1660857864744305 2.484785571734572 -0.4678320176903104
Ni 8.788779749218152 0.4299638014764671 1.3877424826960232 -1.3712819302322319 -0.034432213535940705 0.08713031526060477
Ni 0.6331139909142557 7.5774330721795 5.3580348680227265 -1.1826362346339439 -0.7318956252082814 -0.46273043479768694
Ni 3.5886160216180496 4.217276606309262 4.585005569646533 0.7368611967436728 -0.3372695993879998 1.610650091886052
Ni 1.8278599402644584 2.1872426661870152 12.199609078521615 2.172408621823194 -0.9861296482303403 -0.5782115332868429
Ni 3.0921538923611664 1.596849813997474 5.155028721596273 -0.16879677919316088 -0.43705462729813754 -0.9106052926397802
Ni 8.525181038475997 4.406844548996758 9.079840214197661 0.05968867410988431 0.6349128426336291 -0.4477414175880224
Ni 4.380265402255606 5.444073501888509 11.4048659842903 0.4059321948617203 -0.6975546858345664 0.4276127651589474
Ni 9.001220254151312 7.873170806406036 3.019380060137896 -0.7560933055004075 0.8721351615890399 0.2116663248631774
Ni 4.108400274111387 5.9809594214600335 9.125012836529292 0.3949147607052941 -0.7778350680528734 -0.6138279969388719
Ni 8.725584318512922 6.9411758242153585 9.231189050368203 -0.6753784068478432 -0.48161107375227374 0.24822098405875961
Ni 2.5453134079935946 8.516703602649686 11.204559038751402 -0.3901546203124894 2.6874406942380746 1.151752914791526
Ni 6.538204031614441 8.515987974950061 0.4686370563412589 1.6819182433034197 -0.982777701038972 -0.7802943282266432
Ni 6.035227855348163 3.6206449485332586 1.6073998177384645 0.9223660327201342 -1.775793847707658 3.4280343614409867
Ni 3.9270803993977603 8.150036153733524 4.194690295143447 -0.8186029939988546 -0.3222394445277547 -0.01133419406589661
Ni 3.7095387534262576 2.797113436406057 1.5174848671663876 0.4639625074325751 -0.20381134759513286 -1.602076748394744
Ni 7.577946856168973 6.228786798668174 5.123956717361458 0.012956817270984137 0.14807420193382884 0.4481173128702024
Ni 6.637180847300855 3.6356547807971604 4.588603892515666 -0.4276839847165151 0.7339900458434649 -0.75092358837401
Ni 7.530174119862043 8.963668149349264 11.622173675052311 0.5327184339510503 -0.9919503686771757 0.28259766176641654
Ni 4.971217912005109 8.125934179798762 1.9950424980248789 -0.8960633902698631 -1.2700295737479481 1.7357800263188818
P 2.509339354016358 6.709982203666419 10.491042440841605 0.5349434666268271 -2.305974859948835 -1.4581600202727145
P 1.6359983190525287 9.098747465010284 3.9051124639621326 0.9638350984981982 -2.07823785477604 0.5405525852834884
P 1.2673674813194507 4.025332412670453 4.570596681156033 0.7973947353523558 -0.912478598403093 0.4698004542705909
P 9.076911645457663 5.376400810703582 6.962588689448072 0.1771639202109336 0.7641010062962325 -0.13326336217324147
P 3.860618770473735 4.608669909718833 7.234507948405468 0.7152765285943617 0.14453147888789303 -0.27866438815028133
P 3.451967829846317 8.12654888564331 0.552723311047042 -0.5731680573256646 0.691573528550467 -0.4609198639515094
P 7.41065511931079 5.355555860273517 3.0237582337053377 -0.15511156839658446 -0.5613368690186913 0.7572814122712377
P 5.87426667121742 4.626808319490063 13.404300417953767 -0.4703761242684028 2.1668370412726876 -4.6500264721647335
