# total energy = -340867.75083472044 ev
CRYSTAL
PRIMVEC
9.32656748239932 0.00000000000000 0.00000000000000
0.00000000000000 9.32656748239932 0.00000000000000
0.00000000000000 0.00000000000000 13.65037425438162
PRIMCOORD
 96 1
Ni 3.948439580609553 3.0833351758357694 12.853083252964876 0.45107536705726187 -0.542887146953936 0.7202282161726822
Ni 2.3582785059184728 5.601284514249118 4.896061722391611 -0.6077164847244954 0.4263902056057559 0.4455672927548391
Ni 0.6290014204460367 1.1602902604082934 10.295399007147255 0.35973692725258044 0.09069797800720508 -1.080146149087817
Ni 2.564582175006478 8.987332085545528 5.927852403597341 0.19574733964007576 -0.7868295582419997 -0.7952499210952111
Ni 0.36149961458340396 2.4831332626129177 8.35417940998597 0.2541700025533429 -0.053018204068244174 -0.33473294900907513
Ni 5.068700214086304 8.830776326535075 1.0490560226259695 0.5531558758697958 0.011050344276890646 -1.2493851580247193
Ni 1.3535087555482663 7.474609499301 12.499320025972272 -0.37631668598813256 -0.6783539445363995 -0.6081849397204816
Ni 0.3861030991699391 4.431275970694816 10.278636367705488 -0.22018130431272404 -0.01682607041840328 -0.35945153480167774
Ni 7.223174570958163 0.7480261399096088 0.8327831857310852 0.8096753524919217 -1.5147206902765784 -1.01576495459827
Ni 8.775861498163005 8.483902634820739 6.0981135532825155 -0.552832431092106 0.5154339358389897 0.1424306304948063
Ni 7.466756529618716 4.108110413104428 11.114420842799706 1.2271152908829255 1.4272275923599163 -1.755865484214847
Ni 7.017561067851736 0.6742296760009812 7.781000292912107 0.41289397089153407 1.0361268060840738 0.021310331442002006
Ni 4.565158844553691 5.349840259338964 4.02737871373767 0.9663982312396842 0.06816020191600519 0.20655857132296684
Ni 2.0169074889221275 4.39995735763887 11.972497679098904 -0.35622865698900585 0.0067835985807367044 -0.18648185517774982
Ni 1.9325859937944305 1.1643566437592143 1.8320717124881352 -1.9409651143330895 1.7165234920821146 0.7913076486180114
Ni 0.7901243994724223 3.696874080324256 5.070963771974535 0.8469208671069415 -0.38467662791705365 -0.25115384143483843
Ni 6.835273309609193 7.120852800905519 5.113607635725487 -0.12725212298215505 -0.6327598008463683 -0.209398097654291
Ni 4.099315460122964 4.011337950606366 10.811574144769677 0.6657321420073309 0.982420060589237 -2.5671562608230047
Ni 3.581075420496197 6.13259107468928 12.290592382038156 1.044783453317807 -0.46177526997326923 0.11348695087726261
Ni 4.074777261507659 3.277803430996438 8.00967093574364 1.0403315881940405 0.03966029470409944 1.4992246515235081
Ni 0.31192890928490724 3.140357808421848 2.738128141701273 -0.20448394818212529 0.8282957958065864 -1.7626333990663
Ni 1.8845541721035068 6.088038062608204 0.7120321186568357 -1.128804790635785 0.058205918916770724 -0.8816014492082623
Ni 4.836132931429049 8.2900499331031 3.796060258444379 0.9314870211847958 0.44543076717697483 0.7404440289989247
Ni 5.818546899936508 4.676424792664898 12.450219379666635 -1.589476286021914 0.5471312669422707 0.5813922450076697
P 1.9985901107083461 6.771274404668782 6.729893358132771 -0.9503141811936279 1.3610959908381655 -1.2345249530834352
P 8.000478670994402 8.051830750650756 13.625735261222585 -0.2827568130521001 -0.1361234573298559 -0.6312647043580806
P 0.2875268785524544 7.1832941691037195 10.415890795650045 0.3683724914403914 0.21431816066372766 0.2756050324986673
P 3.506677392995518 7.942094359579804 13.356494983211759 -1.3081574909679212 0.7997755768797065 -0.10684167764660309
P 7.589755299416755 6.19401584704975 7.337813005811786 -0.10910733375232821 0.8177933536133658 -1.8055975613326516
P 0.0025657386693539877 0.19957641608108023 8.26662532662564 0.7692815220559074 1.5502664485916722 -2.081276641602364
P 3.672149350362579 8.123113704667015 9.216677971850931 0.8471029012107604 0.7518134471781309 0.06748682999806442
P 2.2815954694247305 4.320233860199257 9.300655316644571 0.7770830203781972 -0.2837605717262661 -0.5828588022508672
Ni 8.21661254203624 5.737247212620046 1.042231773318931 -0.5640936058282221 -1.2451821756869652 -1.029225193868234
Ni 6.03289007005317 2.851840448420156 6.268948286857786 1.3700899668066597 0.3098770663076599 0.30260135858185305
Ni 2.517995971249942 8.282952415373625 1.6128871212763758 -0.42944724726452493 -0.07894417990538662 -0.07687315630897083
Ni 9.138776885665376 4.856968482818858 7.971777092728063 1.0991604854067907 -2.2788206681315466 -2.269066674068576
Ni 2.020880606599862 3.755342330844722 7.008702694212505 -0.8948439160404653 0.15865506277346872 0.8354100382538644
Ni 5.7588195628280285 3.0541896529650634 3.420305918371187 -1.324882774142402 -0.3008326967172045 1.4227924394066982
Ni 4.354882057787951 6.711677639502763 1.8183803116643924 -0.8347423227628784 -0.34591673354003655 1.2201861678632597
Ni 2.5948282328207815 4.817964778292365 2.4045130980870972 0.8566730613976988 -0.48838464503068146 1.1796306150384006
Ni 4.51256633144396 0.1343818452104214 7.42625404572412 -0.3860876493319674 -0.03959216047032536 1.5578859128101428
Ni 0.2818311438909696 7.263362749534122 8.017711369429028 0.5934152376104748 0.10416387370412382 0.35490479597125973
Ni 7.961419007063998 8.585515585757168 9.347639764825612 -1.532077436387471 -1.5461688814835306 1.7018887728880756
Ni 9.142936534689483 6.37782383576523 5.173888038275963 0.5241558890930199 -1.5197837066217825 0.5050649338998399
Ni 0.7992373883994517 0.12025769166309433 0.10418428554617444 -1.1211328759128238 0.07636896297904268 -0.6127409345222801
Ni 1.0623799566973586 8.0057854877987 3.5807387314159946 0.8906519894463049 0.41371723812377786 1.720074956878799
Ni 4.348726523357659 7.317755290136349 6.3622895052393265 0.22342346539910551 -0.4212443997387584 -1.448187739551351
Ni 7.3771188911194026 2.8965613387129667 8.971298783668079 1.25995933399614 1.3812572962773888 -1.3595245325859875
Ni 9.222688011831053 2.5412377770079573 12.06445949817402 0.6622092164557369 0.7266068660055164 1.1078592987323694
Ni 5.912232268652105 4.762779479468056 1.890057779478228 -0.4532942290854516 1.3041203447840701 -0.5834789523333693
Ni 7.8423467221070995 1.1489864608181188 5.084340867479639 -0.7542853057573913 0.49597582711437815 0.8228777101148087
Ni 3.49648345491626 3.045655843868521 5.25613157420507 -0.16830158472429724 -0.6007408247376106 -1.2832643272706674
Ni 5.606460759110955 0.09439325517508096 9.901039097930134 -1.3115570035677735 -0.40848195786676744 -0.49540632776415316
Ni 9.13582969039269 7.606375242378546 1.757253989458118 0.23351761641031393 2.0220569367090984 -0.6780227864492259
Ni 3.4124324302408033 1.8056607391552504 9.895456214733205 -0.44579303561239997 -0.2671391611195012 0.37282255679194504
Ni 8.034194211851235 6.000163145332111 9.469919456283385 -2.2244348942918144 0.7231459040401094 1.837855907145725
P 3.1121915751195983 1.7640829020488162 7.003979720522354 -1.4738864298690357 -1.5980707125591447 -1.2085269863577766
P 2.3532235064317772 2.89654268557833 3.3497196589336307 -0.13346853620551208 -0.5669603858530559 0.5059283103413996
P 5.028521362077663 1.0579871434902859 2.391995912088769 0.5868825786982795 1.4445701974034217 1.4026198211135652
P 3.828789048478901 5.101026096412661 0.5449765101590721 0.7005973293156321 -2.4371327457432996 -0.6923065500617496
P 9.137312614596352 2.0141934578324068 0.769362527964429 0.16973626028829478 0.012816177928061799 0.18345283854343888
P 5.629870443080707 1.0164279595184886 12.783342913183118 -0.5910238545601628 -0.6505418074201377 -0.08169217496416899
P 8.545103569565562 9.168118266449772 3.371505587533209 -0.7814189287493897 -0.06594751053540254 0.17283623936985718
P 7.220768316589957 5.528863719019988 3.388623569189815 0.5929490966073337 1.0514107288263375 0.3392326366516416
Ni 3.389899443599003 5.627921190511113 7.731667415080234 0.9446670102101796 -0.3630762760384586 1.1197835609737812
Ni 1.7119473907376972 3.272944289423434 0.31854797411093605 -0.9172860470940654 -0.6018412568906408 0.7637369380885943
Ni 5.855340208008487 4.747801012354342 7.936778216208188 1.4020570066315594 1.5601361422969002 0.8149569126058351
Ni 6.007708338292879 2.7287857192182057 0.9880509457948377 -0.1458712807452391 -0.6604804066900882 0.4021279906242817
Ni 7.335391828935871 1.3273011013829275 10.768998364960149 0.3864764001299537 0.4121606922699353 -0.046583247076177836
Ni 5.087773044252894 1.0475227349587874 5.190200204516239 0.09605384300247972 -0.16348025207625394 -0.5873428061641498
Ni 6.966367539839799 2.6802222831901203 12.643563783465408 0.1913643800810317 -1.3695729179609253 0.9880109244134533
Ni 7.573368520637929 1.8689321718448086 2.858251530794979 1.071819888610309 -0.5716670473001058 -0.7996652765540873
Ni 0.5041979598718441 5.696443480601058 2.8742363345223723 -0.7673462527064074 -0.5532075550433375 0.8302778592336217
Ni 6.561585191644116 7.5023933433431855 2.290123682580882 2.23139255655657 -0.5506991867991871 0.7732361358282812
Ni 5.249299863644176 8.064850638627558 12.105192348281388 0.25944719179188225 1.0066588785319437 -0.8753228152884023
Ni 0.7632013975937448 1.1681245769559392 6.1567692678060855 0.11755829273315882 1.2593954910728697 3.129957630202364
Ni 7.501348767803499 6.675928906970469 11.824868377669109 0.3733120948338538 -0.08603991040990344 0.18885009829961025
Ni 8.009096419196812 3.767616093436034 4.380909709204041 -1.6913300235356228 -0.05082556729229956 0.11118144267253754
Ni 5.904090175382946 6.514597945492878 0.1857852209870281 0.9365631501561226 0.5610913286667886 -0.8527644703719119
Ni 2.705562566594827 6.3823752006167185 10.156205585857153 -1.2106386333841408 -0.046531053682003734 -0.5869764239636666
Ni 5.914097582115831 7.324899440702416 8.390079232908827 -0.2703774655511408 0.03200792036516423 0.4362123339025003
Ni 2.1501095233667424 0.26317054799986284 8.302075609003735 0.029062721693911237 -0.23762032572477787 0.6001397008185019
Ni 3.274772296617885 0.8620350314692236 0.11760521591767711 0.8026685821567854 -0.06647098713904036 -2.189984683033744
Ni 3.2620228790933234 0.8139519136580478 3.690624347564045 -0.3360807212862212 0.1935439042308538 0.3210012012452794
Ni 8.833070662095457 8.962103720948646 11.50202365399448 -0.13538709338446359 -1.379755772031198 2.1051578190953357
Ni 0.8179744621425711 1.22526845491716 4.027228556003841 -0.0707719285072394 -0.5143630713723142 -1.244206184926941
Ni 3.7932455004276178 2.8357054869589327 1.6065804964555213 -0.31460763901410976 0.017836256850472507 0.8406188361483136
Ni 2.4141353175897233 8.946276536208938 10.952964905320044 0.6679312065411788 0.3160186604290235 -0.2739734104325153
P 8.398862994009507 3.03792411956138 6.5588683625841995 0.012861686454016558 -0.34361302510752434 -0.03316285990521385
P 2.0397389257181233 2.063941367909958 11.705182404582645 1.3626756766204597 -0.4438173999432679 0.7871771713894056
P 3.1200445448018814 7.1942808654050605 3.4971027389862166 -1.2932378935436115 -0.5785493762422358 0.7336547739912332
P 5.5310368092052276 2.444334742567434 9.650132053297533 -1.4357302305142887 -0.8138683075273467 0.4750095092753561
P 4.709879189636809 4.542998920604636 6.074771020597458 0.1748231878928989 1.888280382344864 0.4592723010457574
P 9.269442093799324 4.915977674243805 12.61081634029625 -0.492006815164301 -0.1973941312148794 0.17299770464838593
P 6.20392998810945 8.88734195732254 6.219123898928222 0.4727862763717922 -0.9676686133116753 -1.2247768725577357
P 5.829319085189521 5.89672218720123 10.315027700726032 0.4420317687977549 -0.2543144985510072 0.8283171359628251
