# total energy = -381166.9583001716 ev
CRYSTAL
PRIMVEC
9.27386879060612 0.00000000000000 0.00000000000000

0.00000000000000 9.27386879060612 0.00000000000000

0.00000000000000 0.00000000000000 13.57324439207188

PRIMCOORD
 96 1
Ni 2.6840152509361146 2.617465969308852 7.6663177329194445 0.3184318978562064 0.850211107822439 0.3627901122566074
Ni 7.605184390599639 1.399695725574299 6.8954116335541995 -1.0297694964074782 1.4039819915684144 -1.6602055342166764
Ni 2.511920069894153 0.3198603676094081 3.4547432920227585 0.36219850141919563 -0.2934227774063785 0.35399873921722264
Ni 2.498769724109948 3.1225208574667027 10.278108094597878 -0.4809919521110361 1.7267289718602068 0.20850566774700866
Ni 0.9550693657167885 4.050519800514877 8.31848492728987 -0.9168731279263629 -0.42882529740980985 0.17213098577271646
Ni 8.018696921045295 2.8164460956458854 1.1044194564411605 0.03043157701697985 -0.128295733755321 0.8310625599184462
Ni 2.8524379799819237 7.908745934008948 7.319155095924493 -1.3357228021806997 0.09913685280317765 0.5866460372074412
Ni 4.271887045838563 4.635292863821551 10.713510664669089 0.30841076617477853 0.5916059523158779 -0.12113778255430108
Ni 8.110869901827538 4.562335338938373 4.866198283079689 1.3701334184500853 -2.2760739586243446 2.037765862803923
Ni 7.244820401542758 6.930770112659587 6.256505144005238 -0.1021779536223466 -0.6829024831390303 -0.4841559516613146
Ni 1.1090897767069758 6.1277272761673975 2.714092261829863 -0.8599429903982222 0.32232300538049646 -1.0140770253728857
Ni 4.7512162222859855 3.688059917136958 4.249823584868743 -0.17501396374746633 -0.1223523716876925 0.46710568104724715
Ni 2.5905624762764257 4.337527488335464 12.76416983645952 -0.09246689698216978 -0.2127891256137109 -0.4945444939844902
Ni 4.316791117973345 8.834899377190368 1.3968634860802958 -0.5023822448613542 0.26670593023682454 2.7462510795080637
Ni 0.857048283346733 1.6136438759562604 2.3439499056397897 -0.7076115558499362 -0.012554439626242893 -1.5234022772109763
Ni 3.8019152028863874 4.54256345091868 6.168428431017695 -1.8814181080073917 -0.1265134450439176 1.2218504429395602
Ni 6.552099506834002 1.1282588632626547 -0.27854713742641884 -1.4416602228454785 -0.4725643901689732 2.1286890694480562
Ni 6.72645751183319 3.4864645598329664 12.693413000613432 -0.5311269210942143 -0.45586481802610523 1.5416763929298158
Ni 8.3272941751463 7.3279977297081595 1.6442624807807549 -0.6133078627693438 -1.425857708595583 -0.6654182103113379
Ni 0.4113758311024395 8.177892150757335 5.850149258017741 0.4270610064205355 -0.4487377200630207 -0.11870680451530523
Ni 2.556647938524071 5.577295348572228 8.68568190278808 0.5641596831794671 0.4239461149406376 0.2709546782108495
Ni 7.718214302036803 5.6127957178683765 13.500056880312961 -1.4698153451234557 2.218084012373122 1.004597882237857
Ni 4.328986255283804 1.5298637463268439 6.342953365653071 -0.8847273964317536 2.309416795750849 -1.2647248737055832
Ni 1.8282226494082687 8.64446975777367 1.4233858231100909 -0.18021324856021867 -1.5109535099246623 -0.22686488698048674
P 4.254999330977463 2.391804922787644 9.369460933318322 1.378378174957381 0.8716065427790796 -1.0595112464462848
Ni -0.04093949327529993 8.322471763434178 3.3976413004169133 1.278141404221805 0.8804693924863481 0.7279278988097851
P 8.022489933334253 5.472370798358898 9.124680879132292 -1.306777065680627 1.5236629870715308 -0.2969225630295209
Ni 3.4418387037584974 6.552071685227971 11.926158023346382 -0.7851727393648672 0.4317746098461209 -0.026466421721644744
P 3.3635765259919883 7.007696853336586 0.45868739954581256 -0.6102454217939361 0.10419189872858185 0.6277926866490802
P 1.8629440137355362 7.36916443276605 4.283959768082482 0.302489258484021 0.8618029264250965 0.5966298878930306
P 8.91521107993453 4.81424143381593 1.6847651748413608 -1.6643897475013527 0.4491953764257296 0.019196627533108874
Ni 8.10026986992955 8.553873334666546 7.597569617028829 -0.09519663720850702 0.14072521776792538 1.1888323361423268
Ni 1.5861561291971735 0.8964000903045041 6.5459685522515345 0.3589136600203367 -0.3977182915923602 0.25742064828015665
Ni 5.376349162075638 5.331213243223925 12.966655485156519 -1.4569567439932327 0.8204477605170774 0.893643467974461
Ni 7.733256517031148 1.793334355444812 11.560820458517943 1.6589837459944332 0.10346761896804761 -1.7254359640803965
Ni 6.137566850833859 3.146169222593448 10.497981319677672 -1.579290603738164 -0.4162086370870639 -0.8788539683701123
Ni 2.8116236839337647 0.8588140279428633 9.59769547839744 -1.998383247241242 -0.9175362154316585 -0.4909392931317351
Ni 5.646320753136291 5.217784555433645 8.68007584917274 0.6204313611880025 0.5322744044350962 0.22988799007752667
Ni 5.358534060346823 7.993305068607246 4.151037408332822 1.2042345296300099 0.15983982711018924 -1.2264272636769653
Ni 4.841172748454388 1.3670238862246826 3.89733960202684 0.4540095099849213 -1.3174918809949696 1.8198437868390205
Ni 0.5294562914211809 1.66208129205704 13.23414353418543 -0.5159736103925437 -0.23990140844947067 0.7472690223405581
Ni 4.535394750431239 0.2416677438579773 8.218952204325438 0.2083305756217251 -0.2733206073398648 1.115458451235866
Ni 2.9032124109893465 2.9167800808640236 3.1449209598695025 -0.25932455017108885 -2.333137536406556 -0.9805696376440596
Ni -0.23917121841008723 4.059135224515954 12.908440629309414 2.306984275049956 -2.0300245282956073 -0.9142894263595868
Ni 9.469732783616324 9.021999677751966 10.660195193644126 -2.460078555906195 0.8410680078705902 -0.8443687901090489
Ni 8.925625634458974 4.224673780403167 10.549355769988509 2.421212217858301 -0.5216714321082693 1.0815324879123827
Ni 6.688119338721832 1.0389329601642996 9.3174484408425 0.8863916715080542 -0.5620025276271482 -0.294405453034622
Ni 7.616600522941218 9.059855609692113 5.066593601776858 0.6640470409954241 -0.19923272708551495 -1.0821135572268332
Ni 4.974577349375259 1.8758717866714902 1.8164531826700916 0.1693955891194244 1.704115348225749 -2.3984538411158627
Ni 2.136217102045257 8.01858563462117 10.373365564102142 0.9119875176992875 -1.36616363516906 -0.559011049098992
Ni 0.08258009102259276 6.557227956212469 11.535954434433886 0.24840816036890123 -0.5536032478198595 -1.1738070663780882
Ni 2.486296370739174 1.067468654083905 11.958177909727993 1.3322232736678734 1.1865638518231243 -0.9505309251901242
Ni 5.8419901083555805 9.060003991590946 6.413738023105191 0.6801981968339897 0.6988134979423319 -0.9940712716749202
Ni 6.621625700306632 4.508009016227601 3.3249694106889924 0.33569736980487347 -1.5072722044183333 -2.2067606169405027
Ni 8.680415272766323 5.137046254730334 6.980542965849877 0.0360491803140734 0.7206349646927976 0.8839254693557486
Ni 3.7648104543090914 9.026432586979647 5.354699315648819 -2.268772796977241 -1.932484073445272 -0.3689957268466871
P 6.640553666276705 2.7955520695162557 5.108005134967825 0.14200177048750381 -0.15208769396859614 0.8417490930980147
Ni 0.3206681215711883 1.1707424556727009 4.493313643921781 0.10758318379831795 0.06952237237085446 0.7298078894413172
P 0.7661458225732616 -0.22864166791404564 8.417542828178032 1.2162798908303183 0.4267830701688005 0.02996646445510323
Ni 7.60244859933988 3.4972871645792063 8.858903858874315 -0.6729507712429572 -0.7780492409462085 -2.123688016689039
P 5.043704766494771 3.864838401860883 0.7632412469035766 0.22866723029654812 -2.1761922572353423 0.2986809404815243
P 6.931326544780217 9.058928222824397 11.668334272865932 -2.4188442318467565 0.8692496125111288 -2.795448367168321
P 5.960816187715966 7.725336633180858 7.953826209648597 0.10667686993396468 -1.0183026334184593 3.0644268954894063
Ni 6.247313812759309 7.9640552867995 0.4757095855027302 0.04741705583138285 -0.481393558424829 0.18351557346057426
Ni 2.812801465255764 1.3732002827636678 0.6623684499152961 0.2442509436674181 0.8885262013525536 0.3716761018923277
Ni 4.258885081953191 8.756702116504599 12.798768785720249 -0.49886214752323765 0.6486435619561604 -1.9415184157333982
Ni 0.6669274837569853 2.042755053516891 10.90101159635754 -0.5381671157704473 0.1302729120863498 -0.2993663965843231
Ni 1.5207197118111695 4.003232344130065 1.3501658477433505 0.249627377487983 -1.547880979078631 -0.5888700414419535
Ni 7.4110266759747265 1.568201919438202 3.4983137818417673 0.09773405891838007 0.1325596512379975 -0.7409207115250271
Ni 2.6532909240087013 5.008872115743378 3.979484748608474 0.5844395164744257 1.160906556266336 1.8921678903247285
Ni 0.26049184249886614 6.923184088081675 8.990944273712778 1.1106322334918164 0.2083172058852864 -0.5081086058221701
Ni 7.757683887126773 6.454083988785153 4.015712189208911 -0.2735980293709675 2.5196852118252346 -1.3005441973970377
Ni 4.166239133868414 7.181136745336736 9.353729669881265 1.274671957615966 0.2022650861539355 0.06309384313669134
Ni 4.819258596770271 6.832773142348093 6.3678064063209785 -1.3130983799129643 -0.43927528909854024 0.5328721859200951
Ni 6.90256827801236 5.1868840250013655 11.159745113355218 0.4374045544383886 1.438354555511013 -0.9490227160757138
Ni 4.3254158158431 2.5375808645238402 12.398995491719797 -0.34311114577044133 1.9842092697337055 2.2437289666347358
Ni 5.668336917375857 2.6635756443716656 7.686528274927568 -0.21121586758932012 0.6388502300148223 0.8973188599435191
Ni 1.6623966035920634 6.009874953018114 6.020168019862888 0.015326860165057476 -0.20708976123608852 0.5641445136708155
Ni 4.95273738864056 1.1296221219581963 10.937320647002338 0.5479879585156111 -2.9459625460022103 -0.25111913154216103
Ni 0.6746312864670978 3.8109015816345506 3.617866932506441 -0.9697722899182394 -0.8632576565937521 0.3534732057310558
Ni 3.531415001311136 6.912296566254695 2.7223450775656635 -0.6117623726590947 2.3337106353012067 1.3167783998677127
Ni 0.10121036580812906 2.863919029404241 6.086608797226629 0.5899311357166163 0.8079539989254408 0.43038518569776196
Ni 5.7618082397729005 7.0995637964524825 11.70191495134591 -0.06298662813486572 1.867973552466712 -0.5017016738545618
Ni 7.289511174697967 7.623732127953949 9.95384356675369 0.03081724249117273 -0.18115890030293963 -0.8302241231775508
Ni 8.1798953063916 8.081212069797996 12.83363853194635 2.315280453620477 -0.7742527500182537 1.189577184728151
Ni 6.0649431852230595 4.656585666304298 6.3788413826599255 1.4307307204171682 -0.1967549549689837 -0.695970372066582
Ni 5.857625850945264 6.276906727708111 2.2077835466268607 -0.35317830019845625 0.8532141563148209 -0.6404224595979486
Ni 0.9125097275835897 6.100248803276988 0.09116398387016726 0.9244897639313562 0.7147913614278271 0.5052798781241233
P 9.079506937419003 -0.029327682304634384 1.034717059463665 0.5972909185157972 0.9407229379607669 -0.2439023020787477
Ni 3.589376680543354 4.941673663308714 1.8710577214411788 0.8018756539418448 -1.341385914003748 -1.9365808692224644
P 2.269269295956397 2.983190254461129 5.256782100607948 -0.029300034515697924 0.1074875387607181 0.7361983663486934
Ni 1.394864039993501 8.603683283331543 12.532189575821699 -0.39279411481786547 -2.0190304911779484 2.131976996170709
P 6.289185329836664 0.15436261674437418 2.158526320535021 -0.05917136815383357 -0.21412069994094093 0.3945874592728624
P 5.337630760348516 5.872464040828711 4.531482105236347 0.28819006825252946 -0.3910501355435652 -0.8915837572319548
P 1.836884442752731 5.435377336205727 10.81746887776626 0.40120856413380585 -0.5840911319960714 -0.2908329051920152
Ni -0.21270916152669367 1.896116641993719 8.522001830183768 2.3267460310579153 -1.7099800345366423 0.680204624591893
