# total energy = -340894.9539716319 ev
CRYSTAL
PRIMVEC
9.05632958557367 0.00000000000000 0.00000000000000

0.00000000000000 9.05632958557367 0.00000000000000

0.00000000000000 0.00000000000000 13.25485377631679

PRIMCOORD
 96 1
Ni 6.505514854668961 1.8471471280105785 11.21644280228436 -0.5729726534854067 0.54410687829365 1.3005598811263215
Ni 4.59836954207954 0.163019369257348 6.157105170411374 0.5894505965357719 0.8817287188147459 -0.5048697871698983
Ni 2.6607587362186873 1.6441404403850153 4.838326960708898 0.44463578207950516 -0.6045537707257975 0.05647222405511565
Ni 3.455415446264756 4.503549769620598 5.0676223623262295 0.15857895811989464 -0.7583139673008102 -0.7571384589354702
Ni 5.268836802294714 4.513656633619087 2.614665640334539 -1.9040777543884368 0.16273283238726813 1.0163223697636368
Ni 7.3264168083240095 6.001937639045326 2.684770688911872 0.012052817399476017 -0.19664902551873875 -1.0883402548628351
Ni 5.12217859835965 4.744248901656297 11.467503281184461 0.30845498914915265 -0.8151518022254607 -0.6942207363653269
Ni 5.519615629339658 7.808557691434722 12.60897123328764 -0.8906890133318273 0.6297127864899283 -1.3792271532212375
Ni 1.7849391989732837 6.507679317478675 0.2908322566203181 1.1614071500518384 0.34104963525572235 0.12755654159645127
Ni 2.6005250870664027 1.6465584804276643 0.216233457222152 1.4594314307859704 -0.4001243299306915 0.565819073159761
Ni 0.5221852563563386 -0.10410522734931017 4.95518168907709 0.794275987217716 0.8331940044391521 -0.13819679491911682
Ni 8.535228534064432 2.317234036227036 1.495744326771359 0.6250408349355558 1.0136389093942026 -0.11687823594699871
Ni 6.638416493717194 0.6534558504169996 4.900531267214293 0.23148490225100135 0.1925776836628425 -0.27920046315940944
Ni 0.8157226386723097 7.445525657166417 2.5414198566006867 0.3186967214818189 -0.28537573873218597 -0.26078956475238957
Ni 7.6303291219990035 3.8038758459689315 3.8484275545300126 0.6711584552292248 -0.19603736007666883 -0.3021411311159829
Ni 7.500470409746017 3.8495378605570867 12.723480372251165 0.4506251668937207 0.1003550414809949 -0.4984818813656835
Ni 7.776462058808697 8.832901036543225 6.965028497904921 0.28582491045446257 0.2959604562265677 0.14117387526956976
Ni 6.813701755984893 0.5796105376538464 0.40153230329193973 0.3512594859091886 1.0053740982822492 -1.1583704201080438
Ni 1.7286359969315221 6.475592741182396 9.276475539423146 1.0256832421532465 0.9823223586691082 -0.11676819273169567
Ni 0.2225049655724689 4.986759299641545 1.4067504912391444 -0.3486752701217801 -1.2529528207713196 0.13263112790588125
Ni 6.218954468790658 2.0455350874647893 7.043868376523959 1.6055546796410154 -0.20083426724467993 0.08415143513793895
Ni 3.284531560254462 4.251158915880555 0.4233073425374298 0.2849715613152318 -0.01932672535306994 -0.028127097253519303
Ni 6.010387194699976 5.536134374799553 4.852337102828667 -0.36816346075337886 0.44552332689078106 0.057185962292688616
Ni 5.3590106775930595 2.9535589332931913 9.29464797069498 0.4860325998587371 -0.3732892120157184 -0.28896525585565713
P 0.021896394064109863 5.495679749816354 12.508896978309053 0.6514146969433943 0.15187840617126747 -0.7837352355873922
P 3.9492389947500657 6.056891447954672 12.684616944404645 -0.4104182556575319 1.3888595341046792 -0.1215797551877261
P 2.367831750527715 8.548061353316994 1.1958213263502495 0.19461939668321965 -0.2789027294133326 0.6198945148479259
P 6.349510518434221 7.676779037275213 5.7616197784920065 -0.8369100198381587 -0.574352821662385 1.0493852137558766
P 4.739974314015359 1.1722150972297645 12.63521647689662 0.5704365173271144 -0.7192951628354516 0.5618012102496196
P 4.025909882394517 6.012252798628013 8.121620520686841 -0.10194141213150831 1.0049123281544823 0.1917004232642118
P 4.61784970736695 1.119996299904238 3.7566905567172046 0.5857224969519074 0.3425249342496682 0.1086018548708194
P 0.2209210134995874 5.608068801985931 3.571825508842334 0.45077737620086883 -1.0432726731002353 0.4414010771922914
Ni 1.2560223727154427 0.7978572169789232 2.6070574177134542 0.2893537495433275 1.3317553328925196 0.4573812546706317
Ni 1.6172431410341979 6.618809539813314 4.919340358467396 1.5179014019974053 0.43993940504510043 -0.744033546122396
Ni 6.023998858310844 5.5680035991818855 9.134251314532579 0.3968348605461424 -0.8561621831995513 1.012268254298921
Ni 8.598260589108772 2.3680038207929224 10.104003103921647 0.8466776407478838 -0.3975833086763927 0.06709216566280704
Ni 2.2699690512735287 5.301611659651821 6.968580390431988 -0.4381841129168905 0.3833373402803398 0.8326108782421725
Ni 0.6102970053711224 0.1983635073638918 9.115389696566941 -1.0037525035184263 -0.6646152547940682 0.04079723652202006
Ni 1.3753304608123007 1.2998640650243 11.291465437914724 0.19444096212382644 -1.1265743586433694 0.08213954691423273
Ni 4.075185372552025 6.894031400847435 1.6094972622009474 0.16372347843531157 0.33883668676480355 -0.5947776651756402
Ni 5.607163169011156 7.68600743728817 8.104375457581177 0.1820263905095575 0.8063313757203533 -0.4380727841500068
Ni 5.500887139421311 2.886795670392779 4.930196180936024 -1.4035549313333247 0.02839012110691885 -1.020185966484101
Ni 0.6730320127997359 7.486297253690787 6.975393467301221 0.581946831959559 0.24156182687102917 0.38880247715996913
Ni 5.156728496347316 4.413593246236197 7.0804251571837264 -0.5971032279850232 0.2993067469909813 0.044019857224375805
Ni 8.172015373201171 7.245281150113917 9.207696337520884 -0.31606596872719117 0.37098858890699976 0.17304012785054715
Ni 4.604355776042803 0.4121626231498487 10.550890412223294 0.2913684659805111 -1.0514138141501312 -0.8488939316729122
Ni 8.214371827431398 7.1576883287936806 4.761355402916821 -0.7654667762955075 -0.3612423081535133 -0.002557733424847208
Ni 7.251330778385414 5.927585171816298 7.068243488040028 -0.1719803191274651 0.8079092617304344 -0.37387233821269805
Ni 2.41285076570378 5.254536857623016 2.718212997771388 -0.5607897382659698 -0.20762815023806175 -0.4056804838622304
Ni 2.404292534092156 5.203268974921003 11.349893254915306 -0.3047739407531396 0.003947928904154491 0.6667783238836581
Ni 1.2000995365230867 3.2831459418030557 3.7080589716047623 -0.5884753771066962 0.589322812708656 -0.4544543108318238
Ni 3.4964949580005498 2.807788249673408 2.6532637177194496 0.29100542621413755 -0.4453559480749814 -0.02581978927658134
Ni 1.1518111863080838 3.6123978661122536 8.350690419693455 0.50498522970184 -0.739018866516624 -0.3956282418325509
Ni 3.7055693865571055 2.547690459318029 7.056261058150779 -0.4671969552094728 -0.08814872922279013 -0.028189575060338548
Ni 3.975058590860901 6.841667702245946 6.002407662559234 0.7754827657706128 -0.24864855851448145 -0.47416490188687366
Ni 0.5900542971189516 7.399374600771883 11.50184669485388 1.234094807524552 -0.47214530035368363 -0.8978546778423311
P 0.1248333548759603 5.705949613899613 8.026132391092515 0.36161511811189984 -1.0538291084598432 0.2618390890628265
P 8.612696378726685 1.7532148758669157 7.789121902163076 -0.9281232469188854 -0.6695659139311243 0.9758904870008355
P 1.9558774229620643 3.236388111315423 10.413662564454564 -0.8000128897014932 -0.4935170811612404 0.17232587539234193
P 4.08723934744628 6.132502745018636 3.701577356404297 0.42475729798802325 0.48255338306088513 0.7812091267314287
P 7.0541020291389165 3.889195528522484 10.450948379659025 -1.1517056064933584 1.260693383948687 -0.23552101999358793
P 6.293832203145055 7.855342690911599 10.362949834766086 -0.29552285446851684 -0.24440675251899194 -0.5793016810272281
P 2.5716263388413325 8.565404224783935 5.783954498915907 -1.3162412964173202 -0.2464872891971045 -0.12725417986468407
P 6.9223958256173885 3.9238450461373753 1.605428253245283 2.1260714293195515 0.13083778345088434 0.29092649334708603
Ni 5.357987312331564 2.958793491887391 0.5706547331662964 -0.9689708770628667 -0.5845225631065353 -0.6626756145691942
Ni 1.4842599950182374 1.008476655390445 7.056844285786536 0.3691291671007578 0.7400596490763125 -0.560996197849821
Ni 6.951231179534224 0.5673835868614091 9.128988681316162 -0.27247959949580813 0.3347085235290429 0.16770020369487246
Ni 2.786016832959817 1.4269787093637187 9.18837103547216 0.3429874757083835 0.7570104179980381 0.2499261396753244
Ni 6.488751588305877 1.7967486529643497 2.645377465775109 -0.6831552225797847 0.8315937498315679 0.5694620692289869
Ni 4.194348559372918 6.812705559712641 10.230255585669079 -0.41797189963507375 0.845963902510311 0.6721092491782683
Ni 8.387909218057784 7.292192938207263 0.3145308603042301 -0.5125226757294657 0.08348012010252719 0.4417173228811295
Ni 7.827684659861971 3.776172533270564 8.361254628344206 -1.1760950910813164 0.45862052639437145 -1.4218460163330287
Ni 3.140680818541201 8.576960101542063 12.31748420402656 -0.424358776998024 -0.7500995498108178 0.6843204465324796
Ni 9.215449461417933 4.904962529359868 10.21945228991299 -0.7566188389865743 -0.24254553094053716 0.9701019053435164
Ni 8.871897592437037 2.4075890381203373 5.569662718791674 -0.49333761816058264 -0.28197314080854013 1.4006914937426007
Ni 3.9369767242716125 2.693542649905542 11.36677968736296 -0.9238449312585058 0.3357778453338217 -0.06492935368353334
Ni 1.0217985164493852 3.2319052280902865 12.551193660762944 -0.7057269372327136 1.9752134939929982 0.18538142302471944
Ni 3.1960149932999538 8.3298762570342 7.997090552857432 -0.49845462767217386 -0.4563898372916398 0.6003911547076758
Ni 5.904065883461391 7.703712561945021 3.5834628925681926 -1.2198555239967186 0.55366032631004 -0.742649778400992
Ni 3.211573767806588 8.499175285338639 3.4293621968464287 -0.008221102358211649 -0.6459534167185069 0.5304054695471575
Ni 3.4491665787388084 4.285853715144184 9.293654491321652 0.2648992160453889 0.2552904893110313 -0.6261682636717797
Ni 7.128454496367944 6.16766847342915 11.427049561834238 1.0720739136026438 -0.5889379185654114 -0.062084170925254374
Ni 0.4920620923493727 9.52046664732215 0.2994765233645454 -0.08634021525914164 -1.3990485588225388 -0.18552360502953855
Ni 4.772323523874322 0.45530426116920514 1.5687519290328453 -1.360819340138011 -0.6360937503156077 0.08753706378072021
Ni 5.994457110673684 5.6980162690405844 0.30949644659745595 0.12113983943683009 -1.140767619424616 0.9821156419749408
Ni 7.905360800108421 8.859300237757918 11.49602800299095 -0.18549403734318376 0.3267458170385405 -0.28863564043038037
Ni 0.07955985683398344 4.937927569641677 5.78024321498528 -0.29729125922284927 -0.9350292300100993 0.031324778255210566
Ni 7.978209916599322 8.938588404699468 2.314218278421035 0.028635661458821647 -1.312455604122643 0.29702849247976587
P 8.41859206324316 1.3221698051930084 3.785055887120132 0.15683086508053634 1.3257312381856265 -0.9340300993216235
P 1.6837799956909167 3.1840787506924193 1.435474452300083 -0.34982352479361045 0.03463018847935972 1.5136601102225482
P 4.865485987989426 0.9726588712380939 8.288830253718475 -0.947258939307072 -0.45288619501375554 0.34993691044302316
P 8.37597297545025 1.8139737921445702 12.377726909508592 -0.08458775134440916 -0.6898418905713409 -0.11544124639015604
P 6.450452369802642 7.587003640485767 1.2769434000657198 -0.2450212461745393 0.6858705646284189 1.6809551080592018
P 1.7675601021873515 3.273727358865396 6.192627718213949 0.905814556119356 -0.05808533417850642 -1.0673819074436133
P 7.0026439635122015 3.925330284216006 6.0934156258273475 1.046934438222539 0.4111471634037565 -0.5278886166625747
P 2.2096448388237664 8.501412198786333 10.339780120739443 0.9527256188485979 -0.5282621979519095 -0.6929994623637161
