# total energy = -340895.6494596369 ev
CRYSTAL
PRIMVEC
9.03726326595602 0.00000000000000 0.00000000000000
0.00000000000000 9.03726326595602 0.00000000000000
0.00000000000000 0.00000000000000 13.22694829030364
PRIMCOORD
 96 1
Ni 6.25217733811145 1.9729881384582701 11.195249297439906 0.9346841879658547 -0.5311945411073562 1.9322876411637493
Ni 4.632654628691595 0.372335234106738 6.061156710846544 -0.735633752094475 -0.6746965502894703 -0.36601967493749865
Ni 2.68985094853227 1.6028399219887608 4.8629403560814275 0.19658011995401628 -0.07038986257747232 -0.03828321185091472
Ni 3.325812180554727 4.28462963195736 4.7163993296715345 -0.7035618112605948 0.3807875772752926 0.25759574040544025
Ni 5.110427609796472 4.494023014827582 2.771469181536837 0.1542376504320634 -0.0380852369074957 -0.33375592980778646
Ni 7.081608295661991 5.946293098577208 2.5988303471402108 1.3131001796851773 0.4218959172798282 0.31669820299455137
Ni 5.154402931378108 4.254625918917691 11.545009448663183 0.14494156984211812 1.1266064974328855 -0.1301394718322791
Ni 5.535061484674465 7.676034267103027 12.464400936660136 0.41659455967157283 0.7637533931488266 -0.31983597729258467
Ni 2.024979512288757 6.366272783028867 0.4625578451790974 -0.5180322926937851 0.49356156124593065 -1.2936137888257915
Ni 2.738344901595783 1.496417113327573 0.363463353055219 -0.48375023158246366 0.2052676204256852 0.22706569013738312
Ni 0.6443351598846739 9.182853270101884 4.693688687843617 -0.2944013392695639 -0.9369994663625928 0.6719341570529848
Ni 8.655655497848226 2.3393045554311467 1.395865814413937 -0.14090493787889927 0.836816688793404 1.1705520497759003
Ni 6.872486030680683 0.6756293940755674 4.894618673948281 -0.45016416809690213 0.23858963161658267 -1.1781627722436225
Ni 0.662456679579597 7.209874168906577 2.4023439832348252 0.13977673781172703 0.657428507237642 -0.09006600085016102
Ni 7.573398071623653 3.750599688903104 4.018888914508121 0.06082433037622429 0.4678916672836522 -1.5652948036797043
Ni 7.500792700972839 3.688938443701398 12.596763401206191 0.6052027171637061 0.7813924463868285 -0.32993861294422533
Ni 7.9652628309950675 8.930017764164887 6.831652061705248 0.7348986737006634 -0.0438229107222213 1.0669923853146783
Ni 6.78251104061353 0.6618294935299124 0.27911857781448635 -0.1100154473888944 -0.3708384364823807 0.9090546603232086
Ni 1.8830131483911174 6.534971370773295 9.188205137229017 0.48999004184458844 0.5368946768159268 -0.26122536673822755
Ni 9.145258256172658 4.919904031994573 1.304529812544443 -0.352042129711484 -0.3991722504300674 0.7691041159377787
Ni 6.36021781684315 1.8519701501106165 6.972413758449819 0.12189908620035779 0.6835542577904163 0.5329552325522047
Ni 3.366570236521266 4.140846778204006 0.238714782556127 0.18393646304807676 0.27148149724859694 -0.2301960082362487
Ni 6.048323797438011 5.640815535876334 4.828788539341394 -0.06351421850356158 0.4811642160228424 0.5517857349951464
Ni 5.1585962213932905 2.933613042453654 9.28560875745238 0.09468010258340469 -0.16832960974875524 -0.8476783140982563
P 0.18742108542644192 5.70211529055949 12.527519892377894 0.745147090901549 -0.5772846505971994 -0.847111900071825
P 4.067726283564258 6.0392232736335085 12.489201897411569 -0.5202799510773813 -0.41929216110839396 0.4398936394088295
P 2.3496070352098286 8.409390082085881 1.2879961399522517 -0.3636974545622252 0.5873921713448463 0.8126148947362198
P 6.234464302702488 7.829848482746151 5.986768288212981 -0.09247255340912462 -0.09388666014783185 -1.2208245727782072
P 4.75617593888021 0.9512803740908606 12.807772646694332 -0.17877677322400823 0.20474182982920225 -1.7796844410113157
P 4.043054555673205 6.2516712513854795 8.310808906498345 -1.0745501430572784 -1.1387894126523228 -0.42591995083755685
P 4.592990081543672 1.0924333843217622 3.8761173304804117 0.6166649521670348 -0.3884942018909309 -0.4840531075348631
P 0.11112760776011929 5.5728282066000006 3.666430236563868 -0.2274798948566663 0.04330740453838348 -0.5421330423967309
Ni 1.6931673653114998 1.13617373706634 2.759141451127978 -0.7003109084234649 -0.20620195931449647 -1.7128676404970824
Ni 1.8866009417877285 6.625678379140512 4.603785092153878 -0.011281229340774121 -0.8398333641325406 0.4831761042465485
Ni 6.100821257994467 5.448195313066845 9.148630058984436 0.06838568766324997 0.38474579059209224 0.6041598777214886
Ni 8.673458905886825 2.370175845715336 10.168083929968686 0.12153373244113908 -0.09548562920383556 0.6010562990955004
Ni 2.2527004644494752 5.275384770673906 6.814748765057839 -0.23069197403606076 -0.3656710333488283 0.8446315568521325
Ni 0.46928699118191003 0.06473481833567901 9.187927693256032 1.0667177914970531 0.17618278724458689 -0.07055107074568495
Ni 1.2823876145569448 0.9859744266087191 11.41102027678365 0.8301667875770541 0.7328284214351959 0.43960619007539775
Ni 4.1780441525628245 7.021420124323377 1.365841315669451 -0.442563987152141 -0.6564892832528242 0.7176990219929252
Ni 5.712227987815933 7.686300597829854 8.149942914564603 -0.5514386360683728 0.7857939178886337 0.21594669740608616
Ni 5.231825163188604 2.9693554174753087 4.915094400645262 -0.47057409921182186 -0.7224187960660977 -0.3429116281651256
Ni 0.7412941467702169 7.371424281646675 6.841334585244616 0.3098410708634019 0.14087357042033158 0.2779344519627923
Ni 4.898042892885248 4.528518247560238 7.146321424566557 0.4760297230097544 -0.007929282149405699 -0.5934851716164617
Ni 8.300400690742986 7.140974076070903 9.15851049858271 -0.08352100064279164 0.03739258171584528 -0.45436252244896586
Ni 4.836987144302114 0.2134330394150202 10.5257137297808 -1.176960010184773 -0.12621725395973746 -0.39091566684823
Ni 8.08168085249417 7.243022849457633 4.825270332869604 0.3310860962851072 0.4143592425831509 -1.284775107488239
Ni 7.436673320244992 6.3209509092656315 6.926846974860267 -0.41751192927951963 -1.266412288710335 0.9379980828304362
Ni 2.597173816838954 5.194772385037205 2.3563542557385686 -0.08490836790862151 0.05740913404708822 1.8413934879853386
Ni 2.235755596392433 5.400550862721924 11.382370345735952 0.6583538472653887 -0.31255769846361653 0.24077892595841757
Ni 1.014432767681586 3.3011043036118193 3.7298013319183165 0.3858022568810646 1.3155933784206761 0.318660983147877
Ni 3.656467557872624 2.6604346575852444 2.559771296610858 -0.2907292897346154 0.06668593136332387 0.051399694628214705
Ni 1.0159329533335695 3.352698037871901 8.317012083796666 0.19930137553992128 1.1076710939809633 -0.26900475357333026
Ni 3.570975050235494 2.501216158689795 6.961778707394071 0.8884392980657022 0.7190506509248132 0.48757346198329576
Ni 4.10875545741971 6.760667976030132 6.13697302102838 0.3215730145883494 0.675022051949689 -0.4774682552284938
Ni 0.8717931276931467 7.477440413474494 11.394380868214784 -0.08826879974042218 0.007896886249573498 -0.15586104496809933
P 0.18614863880114513 5.530985679077811 8.029392152712175 0.6825481851234051 -0.32843631736708595 -0.021185118718047388
P 8.62847141085325 1.688504137622202 8.034339150458534 -1.0443767047976917 -0.4781989627469313 -0.14342127654284975
P 1.824460721648944 3.3883138912120625 10.63213834589458 0.30590368348220864 -0.9783721157721087 -1.1296195732275964
P 4.172242229740093 6.2089792211446975 3.8230640782516834 -0.9711146628787468 0.11559371280762026 -0.5221319166844557
P 6.957391116225168 3.7751358578497007 10.30146399032446 0.04275770268250056 1.4009848566133032 -0.055277432416066086
P 6.486811796439441 7.6993865546013724 10.275208933962157 -1.6344361385620563 2.2978607154821327 -1.111317175373983
P 2.4591748113824035 8.392146984351035 5.891679111034638 -0.3342719502122566 0.693429093701967 -0.7201562252841661
P 7.02253170766792 3.9373547280491175 1.5571692098751246 -0.8470617635601799 -0.01459872374978131 0.7128542923061143
Ni 5.2928447627198825 2.848147646605416 0.571239065854928 0.3418001402685017 -0.2169725675674392 -0.08046704430781626
Ni 1.567648820007896 1.2247660259000381 7.085371411960098 -1.2702985111386187 -0.5951008528430138 -0.4444936000746861
Ni 6.877501711625567 0.710874719634215 9.17574546278089 0.17218215072562604 -0.326406945641883 -0.23863745413538257
Ni 2.785139849222111 1.8306422095161528 9.250253177285574 -0.13330912780951235 -1.214091624929748 0.22289433236851292
Ni 6.301936507989889 2.0166742676250653 2.774140596468923 0.5387630974832334 -0.17810314419575132 -0.6995030678101889
Ni 4.374496174868948 6.778019520920544 10.414568047494752 -0.5039220785446483 0.14880259545942115 -0.10844090381292291
Ni 7.9913443719084665 7.237591454416416 0.15387295785238775 0.045153199497870625 0.5546802829341222 0.9199769636626671
Ni 7.57868487045745 3.8350709858253293 8.034656358388563 0.6938391846561922 -0.21950150463688003 0.19778956688108515
Ni 3.077034405688458 8.333621669397752 12.352077699009909 0.49936634085316584 -0.13080255933757473 0.027114339718288787
Ni 0.05470345644591009 4.838613851635589 10.418205545837665 0.04348275377398318 -0.5556251633458946 -0.6556721866681676
Ni 8.482022564525586 2.3568278083178695 5.803601042463578 1.099940300995609 -0.11374020453864929 0.681861957689658
Ni 3.7385259055835265 2.413843900356204 11.408718485906784 -0.6424356333732355 -0.14451373827608016 0.38977666814778034
Ni 1.1223557619947575 3.2190188441120253 12.73755040228706 -0.7851447143404091 0.3776438894399883 -0.893131818445365
Ni 3.1404488799051324 8.664539127341598 7.990161394186511 0.1457401544840135 -1.0277604363972492 0.6961932867106655
Ni 5.734965741432743 8.08009933147551 3.4303687944138996 -0.5046378736647502 -0.6513576184532137 0.8667695264017524
Ni 3.1526401476432393 8.307305159647296 3.508209451499617 0.26400755746905497 -0.03551799040095173 0.2701388671777735
Ni 3.229628590831475 4.269907930589403 9.04105499929537 -0.10363474067353118 0.7211797814526741 0.48399217238994063
Ni 7.462375296113913 6.299153030997052 11.232720500866527 0.007366724777716345 -2.5523976144565914 1.9534845869563389
Ni 0.36435352345714894 9.171737436656464 0.6443080480957827 0.7978462210674776 -0.37956578905304955 -0.627504723095016
Ni 4.476337091207512 0.35739392724876057 1.6610932153268343 0.37385614026278197 0.3997736314594922 0.32571891843592293
Ni 5.944648316717804 5.536624931167195 0.4475894265322288 -0.08068867340031911 -0.4197133078062126 -0.554180203369252
Ni 8.08279243583871 8.997770124604164 11.304318216696883 -0.8370938537141906 -0.37604029239829434 0.05104822482606692
Ni 9.029373433188418 4.90492928726363 5.6920586243334235 0.2357652747939101 -0.4436919301089972 0.8345384342821885
Ni 7.901767021411719 8.947495830736791 2.517868219426812 -0.08033386116406165 -0.05751994859333965 0.2545386987466713
P 8.589267764116476 1.7066961479682423 3.599171310682412 -0.9591695747017288 -0.9485640312717405 0.18470856532741092
P 1.7400346110415372 3.3501856787679767 1.5871810564514615 0.7820941004395434 -1.0852292200376796 0.2500302693533565
P 4.812080447574003 1.018617020433805 8.263099387860084 0.056707479994373304 0.37136602685107656 0.29451523913960886
P 8.425828863416953 1.7039488200272606 12.562968556353226 0.5696245629487803 -0.5939189167197707 -1.3177230231691694
P 6.237311040536071 7.647386143507922 1.365841315669451 1.136454593871559 0.4317015905163404 0.24824823775226926
P 1.6427123261848513 3.243383305062311 6.087451531165888 0.6803540056855637 0.2942743267733964 -0.9564981985171528
P 6.769705238993888 3.8523050462972117 6.0206155491911355 0.2223124917231139 1.067473438716155 0.696999841772361
P 2.5499541178533303 8.60838157528482 10.184829074514228 -0.7582882562691973 -0.16256288246830713 0.031758523358519496
