# total energy = -340863.1139833446 ev
CRYSTAL
PRIMVEC
9.33884450734118 0.00000000000000 0.00000000000000

0.00000000000000 9.33884450734118 0.00000000000000

0.00000000000000 0.00000000000000 13.66834292136280

PRIMCOORD
 96 1
Ni 0.9051964273962649 9.224079173118964 12.338795715541195 0.027545513718436433 -1.1517925097802098 -0.5014180811758719
Ni 3.665346938712258 0.596652220654776 4.469889302999095 0.3247318719323053 1.1442175256464293 0.9430230468488533
Ni 2.795919218600779 2.3484111419501317 9.174861596258758 -1.285849057278708 1.922758875737708 1.9445024380623865
Ni 2.3160520466936676 4.271951565662795 7.662335847599718 -2.1402263806636945 -1.413228964087979 0.1479173646409904
Ni 2.293190556018971 0.21789671522435572 2.539632382516316 0.6144574029927546 -0.5005228230551122 0.8507569530235801
Ni 8.88081127576201 8.132032084256089 5.89037233681306 -2.429626152953609 -2.205745545412427 -1.4408904345589897
Ni 7.949326935743114 3.0731521484083943 13.588724371069656 1.0567249419503995 0.5222244763982619 -0.86822014280535
Ni 4.382411415213577 8.563626770339056 1.4388936313287106 1.118801656676486 0.6013226653830095 -0.06745931919423867
Ni 3.649984539954139 6.366999863656834 5.128293697239395 1.9311419575950806 -0.9465441726282343 0.8992356173502577
Ni 7.180768072158349 3.806942494925391 9.536553165512379 0.2047271745411829 -0.9351842675307249 0.43385257542107214
Ni 7.256309983133684 0.9000245754617686 9.692126169884343 -1.0561009352131552 0.8706570343816166 -1.4594381156541898
Ni 0.7960421482688186 8.941028143356146 7.316567941642431 2.554943520806897 1.688899559717259 2.6042943033258825
Ni 6.8257052145390835 2.1752689699285326 11.464595846028258 -1.1503773746002381 0.7038819136041748 0.8080308749099633
Ni 2.330742048667237 1.4392933338617486 11.40214512689434 0.3217470782723685 0.8061799377441535 -0.011256032529793519
Ni 7.879780562763348 0.23591227962817807 12.151635004446154 0.06798253868756034 0.5092388627718714 -0.5377562534852738
Ni 6.710239744481098 7.895862052527166 9.391818823753589 1.2630557135332763 -0.11655453405899281 1.2783139252439275
Ni 7.964633301435853 3.524610556168273 4.637628019749298 -0.3183326532741808 -0.15740293553392246 1.3616474924662614
Ni 1.3188782763619373 6.339468950867207 6.340333727842892 -0.7726226706139984 0.6487214663819473 -0.4286286080179714
Ni 0.9609390547198746 6.7115845380501975 10.889431372061965 2.1200990137862004 -0.05090450015935104 0.47010538710551936
Ni 0.47512957622930346 0.8282294087914531 1.2306971736059102 -0.38969233596409014 -1.9903799173207917 -1.6708982380438322
Ni 3.4750026156192577 4.387566457228459 0.9654002206084785 -0.17052224652469988 -0.6608681290468102 -1.425865421905067
Ni 4.291740576585869 4.355861081068086 8.749584638297291 -0.6423713557942033 2.280109047925667 -1.0294573644836982
Ni 4.894992558457886 7.355609913829783 8.356810593793428 -0.9624626436307038 -2.421612281510197 -0.1923123458165978
Ni 8.342632360483655 6.386209866237655 4.614295851325416 -0.9844972548332399 -0.9703281624217094 -0.46706814294109245
P 6.432287723667783 0.7943611563074439 0.3173852905738972 -0.27962212407786036 0.7910592800526312 -0.47061395131082173
P 1.2293747932629622 4.473913410977742 9.684198425017614 -0.8923669152548824 0.08194877105966532 -0.13902443302673476
P 0.37454181891390753 0.5150391270456091 5.023785493116304 0.34639932960340986 2.21149067542632 1.9507741300037116
P 3.7586046371916373 2.621105393462035 6.046724200793794 -0.9685088498247837 -1.6283994454496729 0.682789868820566
P 0.21637635138373454 3.5755539514421573 6.610598012086186 0.18935120630574487 -1.3866609837914634 -0.352359918062219
P 1.6458031963166364 0.1587370047970404 9.358987182979094 -0.621412237044033 3.124147451278491 0.5017672369851746
P 7.326239248726874 1.694215764804229 3.7395216428923423 -1.1734483974870886 -0.6759350506822618 1.6093928224401832
P 8.623059175017882 4.786596593481905 1.6199579449104995 -0.05730937524443034 -1.301708650018784 -0.5282902229763676
Ni 2.495768765053088 4.569449787449207 3.052468476208101 -1.1618388382726184 -0.927748637188286 -0.898642463850949
Ni 4.895328756850161 0.5472441313722801 11.963162185736817 0.07567682200802452 0.0593757708551558 1.0252636381173246
Ni 3.4021316140936624 6.695353626778701 2.6991426436155885 0.630145760262289 0.5631402407760172 -0.8971314265230613
Ni 6.135742063992817 3.4929705519175083 1.4150011322510376 -0.7495043394289801 0.31637990042318415 -1.022626971825426
Ni 6.747473716425548 8.111664064990764 4.714361567248362 -0.6163973003279448 0.5197117372787372 -0.6463915326971901
Ni 7.054282765909129 8.057993727201762 0.01467039040068662 -0.6040256661364695 -0.3905904222983273 -0.8761728219935233
Ni 1.9462711705681428 8.471368328192272 4.923965388796603 0.15111633119426232 -0.5894518820873527 0.3881998105789637
Ni 4.611558636081645 4.371597033595399 3.2984993935593323 1.7098643348943843 0.1745712197830929 0.473665593652952
Ni 9.038208156412066 5.120170770528264 12.155707674414796 2.2248053902573552 0.7790386014426711 0.7987823597285016
Ni 6.638218577780418 6.922231508498913 6.765227793190934 0.4526342269039495 -0.6003561877046821 0.00355249323794872
Ni 8.032965624665737 0.7711177069037461 6.852090251141705 -1.506955958729495 0.2217764167139858 -0.20870184291821478
Ni 2.541220919919815 0.6742935038129837 0.18346439654886296 -0.44895446405951706 -0.697497864454702 -1.5585250890560385
Ni 2.6212921703466328 8.452438490938345 10.876925725753761 1.7118548829618518 -0.8764607855475872 1.010224741506331
Ni 4.25370346403765 1.6808798952439896 0.9804721813110492 0.7783785992611691 1.0863031698281485 -2.6055034931426353
Ni 5.761908129471533 1.7021724600880697 5.35186656198666 0.9019247341466466 -1.0355987014947456 0.2775323314283672
Ni 8.15921745980921 6.881196626952909 2.1310999722589883 1.2881391388644654 0.49753391563011734 -0.3147464785848192
Ni 8.08201323456096 2.006572087760347 1.9170536625106036 -1.2751861782482232 0.2621638193920969 -0.20614385238305144
Ni 2.699878544540902 8.000242314484309 8.426259842793202 0.2186921213617072 -1.5521474676644689 -0.14429082363199666
Ni 5.318453111216645 3.9543468122494967 5.683255449483232 0.728699486868487 1.9775588542967235 0.13196006998078566
Ni 6.057659987386961 5.768295898924757 10.536050440288497 -0.3129402786140159 0.36250214870254344 0.023348444917953334
Ni 0.6581279644510964 2.117321441482253 3.4644329117199026 0.03607514845600238 0.14380617068609425 0.6507541805412599
Ni 6.861482326783675 8.8561940823721 2.1047196050784804 -0.5340978307970802 1.5159725604058085 1.6070096669199874
Ni 0.3930047139563402 4.777453864980872 3.7178433837815685 -1.0952215553637008 0.15836041435118534 -0.5413362575270484
Ni 9.398239279161617 7.376080660381635 13.227634223384438 -0.3698917562983952 -1.255247016122135 1.317901971949195
P 1.8295449565391262 6.475862770844308 4.185560719345633 -2.0289009562141254 -1.2446422440230953 -1.1843593879726377
P 5.73353672070122 0.23171727080012508 7.292907979786081 0.2791284722708935 -0.03284712843700795 0.8728427291790258
P 6.172761242519981 5.101511759757003 8.122193611859933 0.7845641592465907 0.6114669529058631 -0.5113957612138741
P 5.949422782762887 5.898759552815898 4.641947235205608 0.2829393613765514 0.7605706245454708 1.1884932076353532
P 0.40329985583533756 1.8157981778327728 12.813415390875548 0.01668800217864223 0.9015946045007376 0.28872151527596723
P 9.087582625855335 7.159643606510406 8.15260555809447 0.2314404221663111 0.5461804729932271 -3.617473242364531
P 3.119752981115395 6.135732725148588 7.295915087628096 2.728382169647443 1.1243441837612702 1.0528145511523996
P 5.141659451101171 8.82826159928059 3.5112055791607317 -0.6512984830805041 -0.05404021757485532 -0.8763851951146454
Ni 6.866273153873593 4.978397776274764 2.97346558956118 0.918009041303019 0.43176535387474024 -0.289748670988901
Ni 3.289832012229599 5.979540555404185 10.199796014948168 0.18725370034676783 1.0113889370177616 0.1466852920061022
Ni 8.624740166979256 5.338512948622384 6.817304924154324 -1.8544279525717935 1.5436605132393801 0.8189652624342799
Ni 8.90209450176186 8.706240260573242 9.59736304971511 1.754772251150668 0.6811399919219688 0.3603655619755149
Ni 4.987447116333498 3.6305223885791116 10.65850510136811 0.41522287613502684 -2.107220872271952 0.998619553167235
Ni 9.041784933752103 9.031783031581922 3.219291052339354 -0.6960919852461109 -0.34907996175936656 0.14745250918942993
Ni 5.136214904915163 2.435234376755137 8.196905299583232 0.8230792846026536 -1.74401064175879 -0.9293802592544381
Ni 1.5195140057962435 1.907776454652661 6.603531308657451 -0.10453077012523933 0.047525042164156865 -1.3471223022668928
Ni 0.961844922610171 2.995499658637111 1.0724373837490155 -0.8820819883891067 2.63803206189796 -0.8258709884151777
Ni 9.130419904337701 2.061820690224197 8.517414433552018 0.6939944792871339 0.30056864442254044 0.1345399148928199
Ni 7.080496901662345 5.804838796396199 0.11742475957741001 0.7986352926276763 -1.5880866047632392 0.24397455007757982
Ni 2.314828658099556 4.105001047365594 5.289074041153929 -0.24415632707108276 -0.2586540064666255 0.4778685759907061
Ni 4.513566143577727 6.639283206022624 13.031179494511841 -0.23065237904737695 1.4031155298030609 -1.4311176714429419
Ni 2.6550894476144946 7.465509432726772 0.3537927748040053 -1.7668173552406605 0.5641954215134091 -0.2615138445129238
Ni 9.096286428677564 2.810170294895545 10.927416187082498 0.8070093756239842 0.479268027441394 0.03502999502093967
Ni 5.283245668470074 4.514920275991056 12.773475955757707 0.0001979749434190139 -1.6037657060613928 0.2908516742450926
Ni 4.034352690766705 8.368874512769562 6.43640895562642 0.5410824896450295 0.4263763216486851 -0.9380333069437458
Ni 8.540961395393186 5.9235448454019455 9.622308036537488 -1.0227668398373997 -1.752178522281563 0.843701074618063
Ni 7.306749080819157 3.2765708534231988 7.198829396898898 0.12522789346327465 -0.08592652476049072 -0.4939171448131364
Ni 2.6969461474527257 3.8799255625817453 11.102002144422032 -0.7667063051295635 0.5896920231226166 1.1576397125896063
Ni 3.2631602731091203 0.9031176006706981 7.778926648387402 1.0505797482846102 -1.8846980643102444 -2.539321497998923
Ni 4.670019800960565 0.08215568045892184 9.559803152107035 0.4045854510258387 0.30484001810438466 0.2643384584459125
Ni 1.1705867688359952 5.815176896958653 1.2773671137602112 -0.13552670428612143 -0.46143254192186983 0.04794464620007872
Ni 5.188064168079344 1.9345415822154388 2.8195464945023243 1.0854410789381694 -0.6189254660664373 3.426827742727395
P 3.8789543227818393 2.6565649850028126 12.511344870954199 0.9584293541015945 -0.6291944520926132 0.2117650552245708
P 2.5383165393643288 2.467490744725073 2.315445021818727 1.8500997575100846 -0.33546005698308673 0.5354201491529296
P 2.0262957267738106 5.58101471673915 12.842064163319488 0.04250213502826874 0.5189720308992353 -0.3174317387264662
P 7.28588610280965 4.280113715519693 11.876928232002715 -2.8680195536678283 -0.7012534748423923 -1.4633906725440347
P 0.8558369001037643 8.020825127166919 1.6585852724140453 -0.19119185905890942 -0.3481173407357811 -0.7410911756646205
P 4.7896877509219875 7.550502254062725 11.071699462664983 -0.15157527310855184 1.0380564190066188 -1.5103822108022247
P 8.377867819762916 7.4922278660684 11.321871223547733 -1.723506094047535 0.2675901326139908 0.7121683219826831
P 5.1685273059504775 5.738000688243093 1.0966156514601224 0.45963328392960195 -0.49699089864245377 2.337475758770594
