# total energy = -381168.0227256973 ev
CRYSTAL
PRIMVEC
9.23967344231065 0.00000000000000 0.00000000000000
0.00000000000000 9.23967344231065 0.00000000000000
0.00000000000000 0.00000000000000 13.52319604332650
PRIMCOORD
 96 1
Ni 6.150573289632207 7.505331139646527 11.766167650389201 -0.1865433045433045 2.0058900971412488 0.42061319391266266
Ni 2.536391942419257 6.590076826922359 12.432225203768098 0.4845644999536428 0.5864840577082803 -1.2040764067855907
Ni 6.742790146331436 6.5408201288481935 0.650716923888644 -0.4088660806790636 -4.2870576682384165 -2.318878712494697
Ni 6.451380091827388 5.669934727051081 4.631315993016273 0.051620038169136906 2.226164475388411 0.057787343322113376
Ni 4.555048034174895 8.695511929803969 7.251015601322998 0.07006616068946643 -0.4562869931651884 -0.5107540138648172
Ni 1.9920643121537913 8.179457699671113 0.6100679054104071 1.449101252504556 1.747240204439681 -0.19680174904651915
Ni 5.142266227648065 2.577351413918558 9.428886046583566 0.8638664938223445 -0.47794673752680905 -1.9216782410790194
Ni 7.883021262921266 5.629585073986013 6.9796454741220915 0.5991531685355166 -0.22272746777334546 -0.9265921549863396
Ni 5.09960665627151 4.118057688007642 6.23255691034353 -1.083274924524786 -0.2974776642020425 0.27213507167219586
Ni 0.98332298552709 6.433861671353065 5.347206800079882 -0.7714119381353488 0.10704710878918983 -0.3536231010453587
Ni 5.709351173118309 6.241473195025873 7.071725285789267 -0.3871070917354172 1.1274495621594711 -3.922145110322168
Ni 1.385027019568056 2.2482989306105043 7.058228895078906 -0.4828701429703555 -0.16192730576683725 -0.13290829282666786
Ni 5.7280245527483755 7.468668116206594 2.814136520192544 -0.5090555431164717 -0.514818670852494 0.6759440495433262
Ni 0.19120764608635932 4.201639772190515 5.997510710574431 0.9042284425791588 -1.258270119219175 1.6171518975603116
Ni 0.23740324041414057 0.500556526197422 9.85320325692667 1.0142500606156402 1.215380004723868 -1.1293462649615518
Ni 1.0891542028862127 0.8111453704580913 11.933597921344429 -1.1081634602363495 0.2550652606741027 3.097485625716588
Ni 2.4504722209051586 7.569325116547984 6.746221760974983 0.08869174621045371 0.8385275008369236 2.1569861166205366
Ni 0.4031463470346589 5.281794533335171 12.64240282299572 0.7326839254375318 -0.6746510417635155 -0.6494002376165268
Ni 1.5154542471079002 2.276904958979969 4.747493796476212 0.4345143773747871 0.05586570081936831 -1.0599681314780454
Ni 4.0492128826520615 0.5262982558606415 1.534815058427466 -0.03399204067472855 0.833229742773094 -2.3065466732919053
Ni 7.512297853273974 6.433796993640343 9.14876687278607 1.5278914233305816 -1.166156748921682 1.0018383172148488
Ni 0.6805139461395114 7.133877795812805 2.8696355415116734 0.045765122050256665 0.7055922114270622 -0.1628942976657969
Ni -0.30259283103362333 7.4360151109554025 13.193635261077883 0.18902287643204865 0.5525285266984419 0.07534463547958636
Ni 2.2013706301943192 6.051560951128596 1.0361443495395426 0.06849007445159817 -1.8951174598713556 1.3453104458691347
P 7.568317992164175 1.9571013885911126 12.752548967760701 0.31225816494532677 0.5195546428755826 -0.4544039172098626
Ni 3.258675679401739 7.33668862356143 2.892381769108556 -0.6694047057629116 -0.9993626019808465 -0.661765444050099
P 2.6208795145802326 1.6435900356827489 10.324810962877205 0.9188423358375919 -0.24205676422957667 -1.091746195220591
Ni 3.9563911252232375 1.3557372553783913 12.513553731646283 0.2577644047728206 0.28688960427355104 -1.1407110551550677
P 3.677426910581485 8.48202927945627 12.197340698280803 0.9101625486754067 -0.9900364394839143 0.8796265848700786
P 5.836775506853219 0.7040085872693156 8.495082165850825 0.1697622284302238 0.6390242936988414 -0.27105417990319125
P 7.072156778529852 2.595248660995965 3.177234427509953 1.6656444458440602 0.4996635603786105 1.0685761848620308
Ni 1.7010977619655478 0.3456256852093155 2.798003126737789 1.2989318586045953 -0.11189698068232343 -0.3941449724188051
Ni 0.5234783075859772 8.888824373455755 6.0823142795604195 -0.3350584506692939 0.4859122722307889 -0.35007086491772615
Ni 2.150857336558705 8.710406283076441 10.71825472903629 1.6723753368099905 -2.4970906143541707 -1.4985317392215418
Ni 6.411150554514517 0.3610402320855356 3.868675211230126 0.03885219698050728 1.075483196394509 0.903882886314282
Ni 4.941257136182402 5.1699852473859185 12.360782202295756 -0.29745709537675225 0.5474130598487476 1.2012736472294732
Ni 4.877531109805076 7.84424235430801 0.4445881294773984 -1.4513111156716814 0.17779281204418412 -0.25435229376747814
Ni 5.502613484240155 7.267926975265062 8.927310384427114 -0.5609918269744467 2.2212708947415356 0.2592960109259986
Ni 8.630852696428803 1.0805151084012488 7.617778887017076 0.29869148200448564 0.6746248165112704 1.5794700667388215
Ni 4.540421631426554 4.937321035379626 3.5685955713194013 1.1431582311439796 0.08568098440858793 -0.5021667864164383
Ni 7.1993870791265975 9.222450495020555 6.281416302468118 0.31774412776056243 -2.39947611173279 -0.9659575441578396
Ni 3.400874250656925 6.073181786524121 5.409265065436312 1.8231635952408731 0.7482912929574854 -2.125106494303121
Ni 2.377099975659062 5.218743003104802 10.547497251745193 -1.495806884091211 1.2858310595565792 -0.3374984275693543
Ni 4.532826620018382 2.959947803686897 1.0045446670383902 1.0460384087708308 0.26588137745300017 -0.5377652523463383
Ni 1.3715093776092298 2.936201843444803 11.36412267240546 -0.35232855060365126 2.0859699333129758 -0.39365209194278655
Ni 6.877458383891173 3.640348101845483 5.176557426965763 2.629387241738768 -2.343506024125074 -0.5838887861772784
Ni 6.193870398462733 0.3908899204739049 13.167778959466416 -0.30300733577102007 -0.2909439768485828 -0.7445081717659695
Ni 8.198546864597247 0.02095465495449229 11.57051387353689 -1.2625543484168256 -0.3542987869561447 1.6958757339247759
Ni 4.661174921077888 5.698549995093791 1.3382308464792878 -1.2017762978975044 -0.6421687528650941 -0.404082286137175
Ni 7.513304977657783 4.294498488312323 13.425801454696218 -0.8613390994148004 -0.2287291938827351 -1.3293922319769815
Ni 8.566544570636983 1.9293638895067675 5.383895694604903 -0.6833007470187135 -0.45297618362440056 -0.5917159955311809
Ni 5.809074966461857 3.0042335575547403 12.061690283455023 -0.6352869381435963 -0.032895979397072374 1.5555107277097469
Ni 4.419086242360726 6.709388727547323 10.663458846851178 -2.99918489566146 -0.8850395283555337 0.5447203435079329
Ni 2.111302295392789 1.7558982639872835 0.29869091702185824 0.7772863946382549 -0.8432693863972832 2.2259186779261926
Ni 6.548331983197151 4.448893428252164 2.0328473058940943 0.5843312730313356 -0.10850569561258733 1.1689093719661545
Ni 8.69941107191376 0.31131138670850267 3.1778701170292747 -0.4545311868163462 0.6226072857933986 -0.1602450329684079
P 3.150830213274999 6.227013106395959 8.614735934385891 0.07636279233145558 -0.39229043570856953 -0.1621237380483595
Ni 0.3955550314957856 7.02010969913541 10.780150376143592 -0.44202739792238066 -0.34600697926099766 0.14658784719628948
P 9.010575547817652 3.570690205244259 8.081326825995166 0.42821697440184964 -0.047292871548692744 0.5111170536311908
Ni 0.6733088489423189 7.936925516638145 8.647800105096525 1.2793138272633515 0.23770208680530677 -0.6540603620963574
P 1.6213593818529908 3.991141536301259 1.3057533950197702 1.6672434149000641 -1.801575327547136 0.17643964045039937
P 8.263159899606183 7.787603157310331 7.446750687299874 -0.4721792389154126 -1.0525800665440903 -0.49281825532200285
P 0.2597992843950012 0.02409799179276482 0.8004486007412539 -0.8048198241718333 1.2193312760621322 1.114400442284997
Ni -0.23801398281569797 4.866230989425279 3.9972535801534557 -0.6712016497623344 -0.1518580944562933 -1.6653451694360868
Ni 1.8541899079777102 3.4615234658433476 9.059580926779526 -0.03493820663808176 -0.43129818443033463 -0.4037760677506658
Ni 4.497891415475443 -0.09213340177200047 10.086343312105132 -0.9091330789696278 0.30376169743854137 0.1814620333656552
Ni 2.9218249118741033 3.8950951329095984 12.993884613108317 -0.15300249247338166 0.8671690758330163 0.39439488364608205
Ni 6.963322667365795 2.8781397367672468 7.935749306233935 -0.18867757727748796 0.8195239631512273 -0.3048958110429846
Ni 3.3555351740390433 0.7568308752490929 5.601983398098384 -0.9942589622056941 0.4508015445705849 1.1227297880862988
Ni 8.952263969962456 4.6106708671155205 10.26303727945675 1.2475805007158127 1.3730364510294935 0.037591070879896556
Ni 2.9705826675929865 2.636291289554479 2.638213141589637 -1.3403399892377368 -0.3130271819008673 -0.20948140139671664
Ni 6.248550784732272 1.243031721124281 10.782179408388403 1.691108908663752 -1.4019472205265726 0.5133562273743546
Ni 5.0300041977097605 2.447644880891897 3.8431570816594585 -0.4514288937419387 -0.3233463044386883 0.4806883048276882
Ni 9.125997546006072 5.028803040187787 1.530623018675778 -1.5530221569599383 1.0958249932756547 0.21778477905608945
Ni 3.8696028744240194 3.622312259669387 10.69207411489389 -0.7779032022866474 0.14484721035609893 1.6581751340502089
Ni 7.364481560685251 8.763275693389772 9.391034801164203 0.1384017118410713 0.2186000758685332 -0.5252614634523728
Ni 2.573498470174996 0.5187337353741814 8.375199253419261 -0.47891450075671715 0.04773715817496295 0.03762552366225778
Ni 7.76831995924603 7.813668275537158 4.38012254028255 0.5866930883952928 -0.13559072475483744 1.9397027026808982
Ni 3.006719029657901 4.579856556840273 6.9080943684727725 -2.3799722373719074 0.10211599003615962 1.4995133864085206
Ni 5.706459155392326 1.4704016003606433 6.430401413722455 -1.7657639742754816 2.5120312948244026 -0.4990734922030953
Ni 0.23342648504908328 2.8832769950919954 -0.1424803812891875 -1.5883352304389353 0.10585848779772737 0.19060127666276208
Ni 0.8792214349996091 5.653589745078994 8.275776673423529 0.42372242896560575 -0.5908482482142469 -0.30761783795983794
Ni 0.38091014940095325 2.328323740593686 2.388953552466292 -0.407165295937873 1.0909663796317726 -0.16433205855358793
Ni 2.2545911480909973 5.225007501565557 3.4333369186392493 -1.690838942831817 -0.6993292612364859 -0.6734325959753822
Ni 5.225136856991 4.94401979848294 8.706097823441855 -1.0863864735705742 -1.5360176519821418 1.2121738390817447
Ni 7.489318785911294 8.204755925018526 1.4591800172034357 2.409579518715379 4.212291273859804 1.5607300671271571
Ni 6.503898394557374 1.2256056973824172 1.7202857913954146 -0.41823646615037 0.3552583226559366 -0.24898974390398407
Ni 3.663068458357277 2.5640093257514045 7.593180104934381 0.9792437197437844 -1.0534678684656824 -0.160343249109169
P 7.680395228637561 6.232067207661495 11.765748169223833 2.5033340241607207 -1.7309293830947996 0.20987452307007723
Ni 8.328890935077878 2.5075826412383817 10.104166641796569 -0.7690334106008433 -0.7219356857820921 0.01601900113607564
P 2.0295589061858603 8.36519361126122 4.565525823635803 0.2729979338931233 -0.562901899512966 -0.08701512983897917
Ni 6.6188768884299884 4.668178593398319 10.775566574246277 -0.37828126591367106 0.08548018125169149 -1.174358568006184
P 3.1884079643662817 3.6448755417359995 4.559981095720908 0.19235014103306874 -0.3777403058085365 1.8117453261016023
P 5.3020756161100335 8.075714648465574 5.13943611573283 0.6091483320750154 -0.27056824140570823 0.20493851922104062
P 7.843918965744402 6.383477733142893 2.963635357279356 -0.9980968478945457 -1.6294029470135227 -1.8605628618249377
Ni 4.102562755974183 0.025519977505316684 3.576533374604998 0.3949795525049585 0.6839522645597833 2.1405534249858102
