# total energy = -340873.33120368834 ev
CRYSTAL
PRIMVEC
9.22410186242404 0.00000000000000 0.00000000000000

0.00000000000000 9.22410186242404 0.00000000000000

0.00000000000000 0.00000000000000 13.50040546216146

PRIMCOORD
 96 1
Ni 1.3213894616968374 7.666842711727901 13.56466691073689 1.2786736225761914 0.8744059599010877 -0.2710022436193333
Ni 3.8119522592097606 7.003648249324902 1.4025440306649286 -1.5743887955611724 0.2676469539938552 -4.191003311015304
Ni 8.97511550083945 3.248018354957457 9.083355721973113 0.39081487960430755 0.7402211143548413 -0.38500675756296276
Ni 7.515770374455149 4.675715588486536 1.377932282569242 -0.8498786641836846 -0.2373097364628945 1.5001566764194745
Ni 5.031424621472806 2.208342182590642 9.602986265868777 -1.001577093133662 -0.2804073389833171 0.2440758515421345
Ni 8.21929260939182 6.95725101788749 2.2315223501059935 0.9845021399292464 0.9433567760391882 -0.28463860345584524
Ni 1.2905994102976162 5.629792097286911 12.78358750648632 -0.7359674812848099 -2.351063524757357 -0.8683029323271433
Ni 6.505362276710783 4.411159128276511 12.749647424364262 -0.4891850294447898 -0.5668004632364239 -0.6781073757432322
Ni 8.180173194177891 4.052553727363532 6.416999072281789 0.5286812877671991 1.6069723859241487 0.85466400138747
Ni 5.52769973992125 9.099041306875561 8.666287964628658 -0.389400001534652 0.8098015936571409 0.6480748339368838
Ni 3.4251764517739467 1.569065815837188 7.134181279392547 0.6488865312049018 0.07963580665577254 1.334232076567786
Ni 7.837580833776909 8.340414288517996 8.23180418090707 -0.07716497651777678 0.4872088795550254 -0.5584063256354577
Ni 1.5237847007027432 5.707200758563804 6.49504511898459 -1.2879673891732915 -1.1189726350367117 0.2802127064740077
Ni 1.9851465943021587 6.5449152247035505 10.754868100680374 -0.6427233398169834 0.6998900188359625 -1.3179477375854658
Ni 8.0448832948752 6.694493257504561 6.483799094219483 0.6007999601103201 -0.8271405991562206 0.20016629464337785
Ni 8.214496076519563 1.7702250252183196 6.323657620177493 -0.132504629630346 0.013702180077440918 2.0395419808677393
Ni 7.802372437674204 0.4585144134115969 2.2717671057245683 0.3686468281477006 -0.17886341940054357 0.08941139798529762
Ni 4.852135757168833 5.893186320685582 11.445886143383136 0.6137740037724848 0.18906504252389375 0.9219009201582574
Ni 0.580627683468095 5.164869700440012 1.5544769766241835 1.230791711293248 0.1687780101400835 0.3605223992683533
Ni 5.7078464456812235 1.780823518045673 12.12357997121287 -0.08494719156635692 0.07383308393106638 0.1636669141657633
Ni 5.171584846461173 4.533996490314686 1.3572767516829998 -1.0485133526738843 0.34230716181190723 0.4064253324480549
Ni 6.086228320590586 6.653861089615535 0.27047833348692785 -1.2245804402762137 -0.3058340065865378 1.0850898662463377
Ni 2.4362051663278987 3.149892361313084 5.483324431571527 -0.7330490220864343 1.2737826130324772 0.6488294527147214
Ni 6.141526810146707 5.185365654367236 5.6529980922869605 -0.1932042615032479 0.07808774544236229 -0.29778233992665487
P 4.661907108275441 3.66130423061417 11.636552937106206 1.0716499386913478 -0.6974405288542054 0.06764520995279963
P 6.160685269330704 8.720142882272263 6.50452196104797 0.4337073080924595 0.2278326502103947 -0.17871943762351156
P 6.395060468852218 0.7224417898872225 0.6049331913880914 -2.556435789081707 -1.558036579455394 0.5217704195799788
P 2.9668954081347882 5.009037726701713 2.06635835270065 -0.8098769269797664 -0.5670092368131202 -0.6647232411268423
P 0.24903229708693103 6.358745180548224 4.781182122245799 0.49780902366837493 0.6468085656299506 0.17813322610273838
P 1.4903288839187478 4.65226792202254 10.082021538282127 -1.669448650081499 -1.831751079799568 -0.3033081548408905
P 0.8070830692893778 2.9618221522122083 7.151353789485397 0.0107999188289814 -0.2831005695447641 -1.0240590762862622
P 6.55292174495955 6.209794386661278 3.193669025463942 -1.4397645484846624 -0.26708259684995295 0.7869992510506445
Ni 0.6398039853694024 0.8457993912600043 8.313360920708297 0.27060526529123075 0.32639974655303144 -0.4316452833571083
Ni 7.85511585106568 7.967216358751342 4.433843961531785 0.18446533896835327 0.47025168287539665 -0.18950033028909943
Ni 1.842154570098825 4.945732716889593 4.010848796449421 -0.7148877777963752 -0.3188126782343929 -0.18565627395266088
Ni 4.336637610824651 3.944382686992451 3.7866477810781 -0.7042593515482516 -0.8042364408645375 -0.09003206228843204
Ni 2.414519303284289 0.41877052651410596 1.8038293500393212 0.5615266164319942 -0.40913527518005016 -0.24534109140780327
Ni 8.591475887973958 9.116235032402269 13.012406107157357 -1.8676763329412673 -0.7348287396946764 -0.1322961131639657
Ni 0.5368906829544499 0.9046842115483053 10.91490165273274 0.7089004498646888 -0.7524827053310137 0.17880762646194365
Ni 9.04078188068099 2.8188485762122295 2.12060344984521 -0.1063264285730814 0.07999241866424289 0.40382543293136264
Ni 2.7196341385699214 3.735853420371062 7.902584000707841 -0.7520366189325306 0.9812756625721488 -1.0957005518826486
Ni 8.869693242768241 7.230653391606159 11.41348556383104 1.5070919700867271 -0.03300807949490444 -1.6689750528791902
Ni 4.021828244676052 8.091870868819967 6.944122353970021 0.25567384079237904 1.2486914743918043 -0.7886758674221193
Ni 1.8855724166944314 7.473459420060833 7.986070422579983 -0.49771106463792997 1.3197133141263209 0.5099562005538701
Ni 0.9105101541677626 3.202017759892173 11.795681604784017 0.8133227194365218 -0.20620401619702552 -0.11010595022017168
Ni 5.844602977150623 6.822772839532413 7.692841764715872 -0.16895721603042513 -0.1054216573706249 -1.485105695623623
Ni 7.969799107221018 2.3029076729875313 10.984374819336548 -0.9804156285646987 0.45876785060551317 1.6425885924658612
Ni 9.357113223606364 9.035579487334926 6.137405481517237 0.6521798572441929 -1.569249674562394 -0.29473481134958274
Ni 1.6482824010428536 7.003841955460129 2.8017120401159223 -0.6908348506122296 1.0857257000581237 -0.5629026708439144
Ni 3.701364504199196 1.4509788661628829 4.724952920830425 0.22258014356220376 -1.0386112630688242 1.3345871459143595
Ni 4.114871758296167 2.324888707284819 0.6045208740431108 0.23685927918903724 -0.13686136393714496 -2.2692389379803823
Ni 0.6598534927754381 1.393604953729343 0.4553035036176877 0.9070450860923476 1.177258258151482 -0.48497639068008097
Ni 4.002263925018249 7.174893696966168 9.707817259022466 0.24157185417335814 1.0708876066040267 -0.7142588859631247
Ni 5.094166961082603 4.417099449756768 8.131726367347756 -0.4666806776946866 0.17042968681089357 -2.8029742432317213
Ni 0.27839814718715894 2.7115907219072133 4.562474981833547 0.3518667804758843 -0.08948827396982006 -0.7494128081564383
Ni 5.599850663242013 8.189554105583825 2.237165655512238 2.357215917511998 0.7929341284778408 -0.4264675958109107
P 2.421621861575901 1.5716946848152522 12.576221399086455 -0.1640168413060143 -0.22866131675927717 0.5696777847842189
P 3.179640089222757 6.877905295258341 12.491209310796867 0.7717855194246838 0.26110683888249225 1.1032215428500418
P 3.536308428783479 0.6005093122236017 9.793774817733988 2.0583727404209973 -2.2031122215546377 -0.3306590360500176
P 0.351418903296103 8.262129337581749 9.526615316030595 0.553714319476427 -0.18468542539895935 0.7950295775542889
P 4.593611859455839 3.3975041467416927 5.928041433694042 0.4786417067113047 -0.036024497723725055 1.195682783405257
P 0.48748731678036683 8.75441042000387 1.5696247963988395 -1.6086114641894682 -0.30746819975585116 1.8331564447875268
P 6.142550685432901 3.303436757835384 2.834571979931556 0.8502126504843358 -0.45751700891754754 -1.0405596450444468
P 3.6793742458002314 6.215928414276761 7.826076534164833 -0.4521146069550536 -2.163484579860687 -0.05268010400253508
Ni 6.570798054010385 2.957542169033886 4.8882398135444145 0.0967963775954591 -0.3027995906355882 -0.23712513125591422
Ni 7.619633759342877 2.200593937181611 -0.02172460427065486 1.3030052573430206 1.0650388611327335 -0.09484542451667537
Ni 2.508088590700017 8.786989947128511 11.409422347042137 -0.1980739308907234 0.4941290037136264 -1.16074226277433
Ni 8.295880325619422 4.808985409521871 3.770298983265044 -0.3569105135473789 -0.08024695787721017 0.1970596306935961
Ni 4.096377434432944 6.316157503103585 3.363963468222265 0.43604289820417164 -0.466517412643945 2.013896512385493
Ni 6.531254330119295 6.548162108494002 9.7856336255935 1.0885153469881188 0.9543770384090918 2.38849878678568
Ni 8.37387932940367 4.922128240697081 11.281100334146569 0.5245081302261161 -0.489977186328782 -0.33793757198930185
Ni 3.653187021138042 5.5055249994887365 5.644586633967322 1.5389787914929947 -0.5664394803525793 1.1540987893158832
Ni 7.6271514022099725 -0.2438695673780802 10.741300369523062 -1.0476283789657699 1.7998642583933002 -1.3475179950434149
Ni 8.400481638641342 6.594328737389479 13.439720919055256 -0.8455502120116599 -1.0350142897461851 0.9411394566728952
Ni 2.0609225895821477 3.4031677451716273 0.7172984307918943 -2.1403305103417267 -1.3057234276051317 1.5581448228984842
Ni 1.5098747553731968 0.14902735393086833 4.0917976679501065 -0.6736313422497494 0.1000717059126212 0.009224346811745405
Ni 3.4322790100655585 4.600557608018934 13.143940874667171 1.8657739737122319 2.044894246318588 -1.2226994212034168
Ni 2.3154340030654654 2.1720361183883248 9.655921540575145 -1.249032916891623 1.39418377453107 0.15488556842870743
Ni 2.4350982741266085 7.425715469778519 5.103976793216537 -0.1290593513942229 0.1706448881454932 -0.22150670799236688
Ni 0.12381603922614949 6.080306447313684 8.981589897806831 -0.8606477297747307 -0.4617930105850821 -0.06896521431580381
Ni 5.920480437549062 1.8905257592952052 7.109340773575261 -0.18569509761039632 -0.17878294387159532 0.1857902284273639
Ni 5.218867591659618 8.82918098820102 11.235239945426782 -0.8499758518831813 -0.2257333444792048 -0.47957655982074826
Ni 5.809283891827788 0.6820024057232543 4.415415128790472 2.142354482750291 -1.4197816776048322 0.5619511055639226
Ni 3.6895207576453912 8.940598912362553 13.318433206098888 1.2934970607422691 0.4870618124541999 1.1816453314755844
Ni 6.3902085913698965 4.097604239956041 9.913347770188524 1.466156922435262 -0.07787408676965944 2.096904577947608
Ni 3.5835173811685035 4.322211115801169 9.890869556810825 0.6341751931366562 0.836662679714043 1.1689165710550062
Ni 5.486864641795321 7.389640008118136 4.760742435338807 0.3575977694223906 1.024878229753448 1.4367779550525126
Ni 4.486630728201145 1.3967780447063747 2.5638076992926284 1.555754982510069 1.1340760663370535 -0.4917216798237144
P 7.2742926166420245 5.2327590887858095 8.24511640444792 1.0257855720590656 -0.6647134709348294 -1.2620059321125232
P 2.2307475255650906 2.011924161471703 3.292842877058869 -1.1091569344978705 2.1209449067262636 -0.34796924519369105
P 2.3110710029720467 -0.007552694453469853 6.394804038825586 -1.7972892985772726 -0.2647722035492214 -0.5999671797963797
P 7.147285960645656 1.7839043680059306 9.158229600109049 -0.7786393091217235 -0.5614517973300007 -1.170743854071732
P 6.704086323249077 7.476300443377478 12.003655580484423 0.800074596177364 -0.5452918997406867 -0.9055595026857566
P 8.14023283391467 0.9782713275002428 4.413822126430781 0.04398514733169844 -0.4301278182713173 -0.924479222408395
P 3.9022562146316826 8.729791292626842 3.3323321787500637 -1.4383704963506132 -1.5023997068173804 1.429454424807906
P 8.832621578126698 3.9859741614559283 -0.12242227746269163 0.9589276338942517 0.8359471417042572 -0.32816917974862836
