# total energy = -340896.6663887806 ev
CRYSTAL
PRIMVEC
9.02940614185043 0.00000000000000 0.00000000000000
0.00000000000000 9.02940614185043 0.00000000000000
0.00000000000000 0.00000000000000 13.21544859496408
PRIMCOORD
 96 1
Ni 6.51957444419295 1.7951452898939455 11.429169632865582 -0.21999027134784047 0.9984244064372932 -0.013101313268648405
Ni 4.741585026211518 0.5024467295236308 6.105418152115498 -0.36702960425925174 -0.5472351395099866 0.1402649903020552
Ni 2.8800916590474976 1.7115961936800106 4.785036335062777 -0.36924229563985445 -0.9445551672226636 0.4070699080105893
Ni 3.4497298123867965 4.167134199330445 4.72428468379869 0.08252289839558047 1.3264814860880896 -0.23469698143039577
Ni 5.072287030840868 4.529041832028029 2.685167545318159 -0.42557105213857027 0.2794686292191316 -0.013328084567473822
Ni 7.16027402487513 6.097314259988403 2.650173178379142 0.46291375445308663 0.3688162638460294 -0.8485599453722612
Ni 4.888348995719926 4.524184011454907 11.17152094260222 0.00209622040739639 -0.13885036934271572 1.8703055430339985
Ni 5.677744838852239 7.70453954659645 12.395152671474639 -0.05849773912557667 0.7713666867197103 0.6607529436251846
Ni 1.8619899845088559 6.4060477191634675 0.31837235036801576 -0.5352170320031879 0.04341256265768007 -0.3568655192420564
Ni 2.6651737310150665 1.6296904494071687 0.352666035380501 0.6596774511728187 -0.7682047440519608 -0.017409710836015176
Ni 0.6660225505656743 9.072837713900817 4.728289225479321 0.17895700755561436 -0.1769806005555339 -0.18167569203835807
Ni 8.610541142296228 2.3660204718921998 1.3929610875895453 0.6918316673078602 0.3632765649747227 0.4304378933125683
Ni 6.829436579151734 0.8535064335287444 4.792529839326036 0.740228570554009 -0.23677057612997288 -0.23279590775294098
Ni 0.8686505537243578 7.400293702337448 2.4403514472453534 0.37782155266843315 -0.4875348954358765 0.31144852455983785
Ni 7.57931974044765 3.9148435587475467 3.8414399034182947 0.43397470282123324 -0.3199275085651264 0.0901441623862641
Ni 7.492041499444309 3.860676150535356 12.777436062360525 0.3685175016586879 -0.45301577861308434 -0.443939527343429
Ni 8.055909862177243 9.042047438520994 6.82550156389938 -0.17259661255522532 -0.8230939398906728 -0.05319303908321161
Ni 6.716569000779942 0.9054959489486726 0.5268378646800884 -0.7403861791777958 -0.6756069779188817 -0.28972938771519136
Ni 1.8869201752196172 6.459980362812645 9.059005566436198 0.12201067207755761 0.5073568152578101 0.9175238741364844
Ni 0.1458863112189894 4.909983453142231 1.5110810715884468 -0.1813537899225651 -0.722731185100194 -0.15812850084603736
Ni 6.492395931321023 2.0551470434312056 7.0783791158898115 -0.5844297462824128 0.02356878845887554 0.566720759038424
Ni 3.184202062212454 4.3415552402430775 0.5819623899568717 1.343781667929434 -0.5271661366742534 -1.4856227444693575
Ni 6.001214289059525 5.679234690886746 4.705518868748282 -0.6768017695579311 0.47588342723987725 0.6868871788183911
Ni 5.121379912729463 2.9401823577726396 9.48928657223016 0.49914471176066294 -1.3839741809879196 -1.0843079937749907
P 0.18764189757279057 5.3529300071107615 12.380033833616581 0.17080095410738325 -0.15762636439863822 0.038999264081332835
P 3.9112047080208403 6.027697537648682 12.603375294758056 0.7897166499818077 0.43503836819905717 -0.3496975407387074
P 2.562247528946262 8.42117643400717 1.2466675501477904 -1.0165136598388365 0.23783629839032586 1.4984535776854386
P 6.362200922317594 7.976107969565251 5.907715690076959 0.0323925573980926 -0.7807206171307843 -0.3014037387293261
P 4.760646102846946 1.125506462117239 12.537668305333133 -0.2990311247320915 -0.32725618101605575 0.6360713817181045
P 3.914301794371362 6.415971036653915 8.193987542854158 0.876060464785375 -1.2892683673729022 -0.1470511599859532
P 4.77982456176388 1.0245306118026993 3.782922127265342 0.278027783007547 0.1344643244598781 0.011731686614631408
P 0.16729051878141601 5.646295416814723 3.619433891464115 0.32912511590399446 -0.6569762501915718 -0.04710389546633823
Ni 1.582565978085378 0.9554827420579718 2.5209921716998047 -0.42899781843193213 0.791842695185875 0.17626506254574803
Ni 1.8630825426674946 6.4207656513831495 4.783133839161742 0.36920784285749314 0.6189820303359855 -0.29149187893225287
Ni 5.984907181336368 5.630114720779342 9.135165899499603 -0.27115239604395236 -0.030342616847599358 0.09488836193946883
Ni 8.687823830558962 2.1568181580285155 10.36673989412689 0.1887930198094297 1.2501770577983953 -0.6782634417051222
Ni 2.4122510319932853 5.331602549501627 6.906591952786063 -0.5582649149615869 -0.5561920915929582 -0.17194818033794904
Ni 0.49406202286154705 8.987392442370236 8.995716652010314 0.702496603220874 0.16196098721825009 0.5833511685062535
Ni 1.3496705021698876 0.7846535989594434 11.413297742524628 0.10608525909655278 1.0273428892438565 -0.3158489676203786
Ni 4.013869057307822 6.79296680722824 1.5286838991113114 0.7954211565657526 0.18658855595894316 0.5374024696902809
Ni 5.668254932862738 7.94304228380545 8.206542932272237 -0.8822858768697966 -0.36729185678170295 -1.0577744662608364
Ni 5.305444359538181 2.8064478215114708 5.1222684063064055 -0.19491430221581918 0.06818796983014708 -0.7238257037159535
Ni 0.8361284382219963 7.429007214275232 6.923111251556559 0.3077641337297151 0.66910131558988 -0.5321404499603932
Ni 4.882136764206343 4.64650537819112 7.137848591463595 0.6181741897227095 0.26918524501525254 -0.6354167788532411
Ni 8.045164868716249 7.151903765263078 8.988408250575583 0.27410736490721826 -0.055700121775781486 0.4485567144004662
Ni 4.524138864423558 0.3369991125618693 10.407641298647572 -0.09805159015879887 -0.4843660107895916 0.1953220791771991
Ni 8.195676041826601 7.144915004810297 4.8169516744638115 -0.2512641417604576 0.78159556353657 0.18625302699639534
Ni 7.1124452598643 6.1621634558177005 6.985805128109268 0.12092283833001753 0.010040414955137546 -0.5372471750593392
Ni 2.4368651934846057 5.128549261307639 2.6116501194699087 -0.570387923477366 0.45146514629651285 1.0371783872770397
Ni 2.4960258633639643 5.064837770668329 11.184670466952845 -1.355472216893485 0.6182320395438385 1.4433106139647078
Ni 1.0032753894437234 3.3449525820326946 3.8759457794781187 0.5547034228625737 0.19500711903994156 -0.4473408397154941
Ni 3.646381251535537 2.569750965556419 2.6561334894577993 0.3024095542860211 0.3008098138990691 -0.47804443944693803
Ni 1.0933978934220319 3.39120120094632 8.074176351060935 -0.6312590479311257 0.265920972441684 -0.28778563372525917
Ni 3.746056867347234 2.565805115016541 7.198705886781038 -0.34047936457454914 0.14910752829434964 -0.10816630999529758
Ni 4.167107111111637 6.997248094674913 6.00354026411461 0.30753761954120584 0.4229824654757877 -0.01936169235606343
Ni 0.7777145002411456 7.11632790456029 11.193749534957071 -0.505755017988329 0.22825045447410366 0.4189599745799558
P 0.2574744227223587 5.621744461167291 7.8731962145464784 -0.8568401831031823 -0.776646704171727 0.1943915969431297
P 8.475145195281426 1.742603174810309 8.04370210490055 0.4597176161132922 0.4316679090649275 0.46963076146194604
P 1.6486160849485505 3.343498847623266 10.193908028717733 0.5619403069306451 -1.3399296411731956 0.5815951050470951
P 4.018573377974358 6.27649379800519 3.8509821799641597 -0.3331056978182973 -1.0184874957357557 -0.5822682198547199
P 6.82605958120685 3.9531192119249887 10.44941584675454 0.9722240938928417 -0.9748448193451404 -0.19952788972843055
P 6.382923409706655 7.83013858780858 10.297398568678396 -0.3593538328815488 -0.9525842081747272 0.21305934855596206
P 2.647033653819152 8.695932237389192 5.740222912595101 -1.2924470222112 -0.4504955832943919 0.5965440130474435
P 6.936787190292713 3.9446044818126205 1.7178499604624347 -0.344052169527472 0.8522548777253451 -1.1856948189546095
Ni 5.1928747515732905 2.951947674142115 0.48671208615797595 0.026773925659734535 0.06193916070695784 -0.028363638744357607
Ni 1.3491829142313214 1.0832759289936496 6.9262164643727235 0.5631222430538882 0.5321985568918383 -0.07442983697480085
Ni 6.9066650909768486 0.6833156694534868 9.249413171149412 0.06320465768294276 0.619676742410165 -0.2985701259352729
Ni 2.5727848460630525 1.5049672606032034 9.152874371075823 0.005124465710758916 0.38936786274513585 0.643518067804137
Ni 6.394246285168913 2.0597430112225052 2.6560540306826255 -0.08641220614765764 -0.3644592724289143 0.09064449906145033
Ni 4.3385574773615225 6.76552644157449 10.448543606108883 -0.9677971684697396 1.0511729017839186 -0.01278506757981024
Ni 8.271468878054826 7.002105915248036 0.16949098508935248 -0.40805129808725205 0.4240327611171729 0.3330229082965039
Ni 7.489991824221078 3.9620222065069552 8.238074521906807 0.9287171717491426 -0.21366895711550302 -0.06471646634177887
Ni 3.1160571330947007 8.227098375645307 12.400888150337181 1.2075962470133912 0.2413186005119715 -0.3545651532436539
Ni 0.04289780624692369 4.9411981106167335 10.12064162036378 0.19926949386072132 -0.8154225393883442 -0.5771766642644254
Ni 8.541384919676265 2.4955202166128583 5.827841562214809 0.49576782486862997 -0.5366378236101146 -0.18874622573189428
Ni 3.303218666253941 2.3770273181350166 11.396051576549418 0.29672433097578577 1.0742297836033823 -0.3121074983000754
Ni 1.0010902731264455 3.301656578969275 12.532368946793422 -0.05510773960742122 -0.41955621340305804 -0.010384685668433728
Ni 3.072408983186761 8.440174304798711 8.040979738910222 0.28630005031866823 0.15296495436722687 -0.22709962869911213
Ni 5.663686053290248 7.934662994787129 3.712007879244659 -0.08844749141013154 0.009477086252499807 -0.6352411725073254
Ni 3.121465747450277 8.33181240015552 3.5658849975814024 0.21156656606051955 -0.14215835067002613 0.13013818628069845
Ni 3.3689978909290215 4.423731866704012 9.146636857224685 -0.029079690974775724 -0.2948602811838535 -1.0420444571200893
Ni 7.222892957355801 5.914423635994751 11.29874617988353 -0.2818525560702759 0.8069551253472812 0.7365814607197251
Ni 0.70079659999171 -0.12344191605428835 0.27046864128514636 0.22164734733528924 -0.8634265780714485 0.5753596656603446
Ni 4.497177057302104 0.30492937031362183 1.6571642238641164 0.8177280475930692 0.12810470079043745 -0.5385034160639436
Ni 5.884021625084525 5.6016991792484605 0.4140678038960098 0.19707608575382832 -0.3729146022851191 -0.01773315561370494
Ni 8.02607670386201 8.802650790091288 11.28078669081301 0.4261690907338854 -0.8893301853110877 0.22569426371115325
Ni -0.07391742854600002 4.825188298863072 5.760402732667351 0.7806074885916879 0.8342527847209696 0.5717187264736476
Ni 8.208750622105189 8.97922985910239 2.246005215517279 -0.47740654875262295 0.10643827156059733 0.6842600256081892
P 8.601818735839656 1.6452842340350151 3.609508768092413 -0.5866987448222477 -0.05024964018417152 0.5190918443065512
P 1.8155517480635657 3.14774131969523 1.6335216264874206 -1.5784038302578367 -0.23320625581748225 0.5620056129509418
P 4.871283417870112 1.0166659989417528 8.317711176384062 -0.5976115350800094 0.7146396663413112 -0.11789587857823566
P 8.497935416706259 1.3619234064779293 12.62446708486355 -0.05718493385142409 2.0597616503487233 -0.945921708552887
P 6.601832335310313 7.832648762751569 1.3195610440228016 -1.4499322330462836 -0.4818900384452733 0.48526718244762235
P 1.984699615714668 3.304618224225751 6.0182491669280225 -0.9676071639461208 -0.372174638795301 0.005122151717913759
P 6.788704927468921 4.15501673611645 5.979289987695961 0.3451227768838314 -0.8463256567251037 0.8690056148211227
P 2.367718000270911 8.306837062413411 10.349057607828852 0.398713565626094 0.3980288808542436 -1.91790797540331
