# total energy = -340863.8999818546 ev
CRYSTAL
PRIMVEC
9.27938437667546 0.00000000000000 0.00000000000000

0.00000000000000 9.27938437667546 0.00000000000000

0.00000000000000 0.00000000000000 13.58131700981116

PRIMCOORD
 96 1
Ni 6.324150937826946 4.481942612648384 4.598036061577126 -0.4590303602382804 0.7579465566590624 1.0602545523702127
Ni 7.042616545957203 8.113086317789744 6.77097927372412 0.06226414814654438 -2.037782060753839 0.8212581722335147
Ni 8.838260920762536 5.263740018566063 9.624169093921216 -0.4247038190422686 0.26636320218542514 0.15873733807462986
Ni 2.5162628000911478 9.07044967449688 2.7200937554315914 0.4985042499631866 -0.6767899424833893 0.13347033597772498
Ni 6.086589420588 0.47263151979570694 9.013540138577396 -0.15468887903686906 1.0385066191701597 -1.6485350398572833
Ni 5.345676981857337 3.1468433595994725 7.751862157855725 -1.617068593817886 -2.3905217307529796 -1.3354590069963517
Ni 8.532867104354937 8.368380738409169 4.356560500044153 -0.24386347842101225 2.5228988336665257 -0.5392228107284713
Ni 2.179690252465124 0.3060647158918539 0.10273206348784732 1.477255860561901 1.218866934831204 0.8314253425745035
Ni 2.6166935762747783 5.600525992030785 4.479743398571371 0.2635763834689073 0.013981916101388823 0.3131094572020285
Ni 0.07273923758183883 3.140366349364217 11.33052630513822 -0.9422339752886546 0.568426171765305 1.7150523068532268
Ni 4.277629129324798 3.5718391601363173 3.8887793144174547 -1.3682523993772888 0.388704261019208 -0.809484062416722
Ni 3.5038027145132573 4.510142661509333 6.30137747289949 0.4078381536351815 -0.30578104186141536 0.05929323844367853
Ni 2.630399226872877 1.2626365411189502 7.870658691428494 -0.20951508284812947 2.833537717840875 1.6301434247239734
Ni 3.7756329979395966 6.219980569773964 8.218488988076599 -0.43697929397551194 0.11772644287990693 -0.024051898742881158
Ni 4.142335706359138 7.791963945008564 12.511163711091143 0.1593376906627901 -0.4873189227703284 0.6640244152876047
Ni 5.1827217143196185 6.763882400618213 10.311804875682396 0.3427532482103903 -0.24153585872910016 -0.17322139062341782
Ni 8.641751399627848 3.1677405330232493 4.260024281447538 0.05387566697253302 2.1025887728165786 0.8905393751278405
Ni 9.14113074464293 6.391741973004029 12.018311484986489 0.991059224321474 -2.5234544490596797 -0.14982666584856133
Ni 5.2443368260131695 8.656004533899127 1.6930468623897086 -1.6937275772335219 0.521998733540701 -0.6829307652738045
Ni 4.846919355589764 7.298718273009962 5.890597689096759 -0.8728105903895097 -2.3990145987153393 0.46048894706167787
Ni 3.7239561068219174 1.902459367381308 9.846903083001258 1.5649173657356275 0.5195795825762471 0.6635832139851281
Ni 2.2817356415154224 1.8965205614349414 2.100092621953661 1.2217051756109476 0.6441148208478714 -1.5320216434488712
Ni 8.106191735261385 0.7283008275404964 6.295660444237683 -1.5246333214046002 -0.07515643072818023 1.9809424260569757
Ni 0.5264593721920854 2.563337116600392 6.868275473894184 -0.8736359145042826 -2.244151655994451 2.262941020786813
P 7.3316415284751315 6.691132027775224 10.764796578625786 0.4142831379295769 0.016329590397958973 -0.5988001560714721
P 6.893960809612219 8.795093225039887 0.12363758835748613 -0.10552990081371502 -0.07281312730698428 -0.12445501985299211
P 3.228492661977719 3.541217191975366 8.126978484012097 0.29279414268344417 -0.6195332748537653 0.42082479570283654
P 1.2731222453680033 6.6303891782050455 10.251435985299153 0.33994637488921453 -0.49643554035961596 -0.70206054412472
P 3.2579175895651065 7.840346654702868 1.1314279031182761 0.044441775253142815 -1.53453078302397 -0.4410820032899759
P 0.2227404846490461 3.1025342996090046 9.297077293225508 -1.423398705532129 -0.07418686772605933 -2.585092790696767
P 3.1380929002128735 9.144777542669372 10.215581372336395 1.732623740078087 0.6999183009707365 -0.9629501247900836
P 3.3371171344904766 2.7384483775595805 13.61893753571273 -3.903132316665091 -2.807193680629707 -0.7962868470001576
Ni 2.9000581343750755 5.4258323033647 2.1157107536541755 0.57543037099728 1.441193824732021 -0.08178267779544625
Ni 3.073796046459166 5.968778357626956 11.303879625207616 0.01078706331317497 -0.42910657609565456 -0.25827965384634227
Ni 4.427017937028786 1.8774328679479482 5.458942074454122 0.4927231245050353 -0.7068700496982213 0.2434132782574711
Ni 4.845156272574436 0.7334666607754061 12.560531891397172 -0.14249285119130944 0.5791137333861381 -0.3416613006977922
Ni 6.117703196116384 8.829361991227278 10.937278990015278 0.7057395356382038 -1.0553727987978792 2.042181475373115
Ni 8.806098574809246 6.021141923182184 1.072960358576299 0.654211542962241 -0.1665573483396809 -0.8317462162490321
Ni 7.109223966399418 7.233883214967365 1.9713829221426062 0.18446533896835327 0.09627624342593097 0.8169073514639865
Ni 5.210587705346084 8.902075246533101 4.372192550821104 1.0840578254373976 0.8193936082209502 -0.07430539558179461
Ni 7.167609852359632 0.3922785474029406 2.2672514505752925 0.7855802592159309 -1.3952582385421715 -0.29313789917610805
Ni 5.132510965919948 6.302891868415813 0.8880333649138825 -1.5384031214951828 0.08284582895263796 0.0015241499540102784
Ni 0.12984735232515549 7.712421062864419 6.382363299300916 0.6219105168366903 0.23938667359658125 2.5817884089138827
Ni 5.048922272224841 0.0716758201420676 6.866550436354451 -0.2031464603176243 1.0800127088337463 0.918142995777722
Ni 7.5573161544370535 2.375828598228165 8.082866146968602 1.4347303284948645 -2.965266645647461 1.551412132160341
Ni 7.4652553828840835 4.690236951832894 2.645749184367376 1.3695289520968672 -0.16695072712335762 -0.17052738873102244
Ni 9.045534527675015 1.2814087355400428 3.2409641544650887 2.06268602308437 -1.455799490460338 -1.8936349617885582
Ni 0.05379073485921357 1.9298149922717578 0.6956123404978951 0.699949411318988 0.6241746302805186 -0.049438200026469696
Ni 6.967202989822641 4.280227356926333 11.402153872481973 -0.1936179520018988 0.9005347957776555 1.641160344659767
Ni 8.183516844559934 0.8661655678932466 10.614586545412026 -1.0076616087648453 2.396625272547556 -1.830635478137886
Ni 8.522566987791706 6.107941283842045 4.89966337590093 -0.008249384492985793 -2.7834809103938 0.37571890450313356
Ni 4.566579876768396 4.409257195495434 9.91085752747462 -0.4829534467127812 -0.4155254949771102 0.20315185963426302
Ni 1.610381467431576 7.754066939563314 4.451656558198773 0.14359379756497206 -0.14237252356336128 -0.38530474841935575
Ni 5.870027150000033 5.275561954153048 7.415969789098246 0.9412039913622436 1.6730389385359183 -0.8296919048231646
Ni 1.4300366337321528 5.76298945220107 8.042801477352928 -1.0235294290350372 -0.539710034777535 0.1732540436335661
Ni 2.267807285694335 2.3517021990710516 5.412358637373882 -1.0770155738786356 0.4865396214021427 -1.060245296398832
P 7.600715834766984 2.454248674873075 1.9447492333500112 -0.05703426720617274 1.5259893212118623 -0.921128046547975
P 4.497708286559129 1.2201276816809745 3.2331277144311725 -1.821803995889185 0.8308748693876723 -1.402607994039023
P 8.831422014539925 4.303323744427124 13.407285915291663 -0.6065772289137296 -1.167582168514299 -1.010152750617815
P 0.14443083267720147 7.6405243933762215 2.631977650140809 0.8290437297162045 -0.3842783640373704 -1.2476704893264576
P 0.30157720564863083 0.4176465281782163 7.898717693648217 0.7141820099786023 0.003970554611973807 0.9480356695720963
P 6.131269655950116 1.9421844115319242 10.757883437328843 -0.09805930346828273 0.16784727079569803 0.361171602816578
P 5.074310667645558 5.565422081257185 12.395233579325925 -0.8843985523374251 -1.147581557022656 -0.8277304102214197
P 5.389132338493014 5.229944500977522 2.660879220454173 -0.5343415713767701 -0.29131190171096283 1.48186430586819
Ni 2.2811695990736593 2.5660374174291314 11.647079509094413 1.4577586710692378 -0.660397874278611 2.1365646155413915
Ni 0.8671213444752399 4.43099879288971 5.932278827455961 0.40242598148067465 2.3211415403869444 -1.19510145698049
Ni 9.002700889786848 7.921550546635137 8.988332691150356 -1.3856942490028201 -0.491170949526567 0.7651975817945208
Ni 0.6363439850915877 5.504215262472446 3.062831525980687 0.48977329784809204 -0.5209304401771867 0.4033834602979376
Ni 6.747133111972602 4.044512437161335 9.239451388838743 1.1873336401096133 0.8975546301034091 0.0427679870951457
Ni 2.061006927380708 8.192239465793659 8.522751647539103 0.08713905701135315 -0.2772916761724708 0.8311448352196074
Ni 1.9543496843376842 8.333499532858559 11.668252280231638 -1.3169622337437448 -0.6917640472947183 -0.8451156955774026
Ni 1.3808373382202237 7.223750127321377 -0.005104589298587735 1.5319167424398907 -1.108358349855975 1.1999729261401786
Ni 7.691199110990452 3.7498363096100675 6.438127759198867 0.146722830112257 2.4189352488986664 -1.2668331782978375
Ni 6.45939796387115 3.992297341754766 0.5841595116531805 1.1824475156619054 0.5890932131963532 -1.0786178853687487
Ni 2.667553881574831 9.096422671127941 6.406253074158603 0.06038492884596053 -1.7305254627881617 -3.73586302986005
Ni 1.3768193648221354 3.994394482604577 1.221899116142164 -0.6348228540229841 -0.6279716354291056 1.2314941366769114
Ni 1.1425427496222724 1.1972076024817166 10.06780346574536 0.9972895215019019 -0.8630375701631459 -1.3925696359664148
Ni 7.585089351620607 2.205319911877411 12.696833983435285 -1.209039407217821 -0.16451820642246506 -0.005440197178964825
Ni 5.557506766456793 1.6764599629691932 0.9689904252240059 0.41318913353444975 0.2684295977961506 0.7724015557421279
Ni 4.2373194839638355 7.13411127506841 3.3088706887080717 -0.4343169166520004 -1.1916266110580123 -0.39838883529682356
Ni 4.748511485181615 3.1492188819780194 12.2636983069982 1.9562678061284309 1.1867901089013175 -1.7574719094700184
Ni 9.225313318932674 8.899328548782908 0.7702946811503106 -1.2666812261010054 -0.8658161613495475 0.7668130059107569
Ni 1.6370596972687685 4.6627328567937845 12.777534004800541 0.3149215707101028 0.7125948679971404 -1.7469398995904428
Ni 2.1003143992382203 4.028988027242161 9.8249007349084 -0.5399177799129669 1.1676572447266085 0.2593142657584437
Ni 4.334465358108383 3.6655052651716646 1.4188670388608384 0.38446296924435075 1.2523748367806624 1.9922072003375173
Ni 6.447269808602555 1.996069796110908 3.74928511418317 -0.2820410179319981 0.8076835188728735 1.1057201409021795
Ni 8.479519924064842 8.488446691752975 11.897396467980041 -0.6183842488509866 -0.47273896807362453 1.8471185633945737
Ni 6.9256684657352405 6.4989745378731065 12.977952930537114 0.4977303479116396 0.8971337405159066 -0.2244310807280135
P 6.449320552530909 1.9573562048480322 5.974190094545583 -0.6632582265455416 1.0486691615254584 1.0253700817882019
P 8.27245046360677 5.774430933032116 7.325246176821637 0.426150321680808 0.16736724583548596 -0.06397727418290917
P 2.2042991796053797 6.968214442710382 6.480569807069946 1.8922465660814636 -0.8856933598894488 -1.0919151166982872
P 0.41961932527852486 0.9143821766087379 5.206126177378876 4.126752985676667 0.31241860178259095 -1.9202667054434734
P 0.750606611499677 0.8415724157062859 12.190209295165635 -1.5832452175105376 0.8878466587870257 0.23247606251967706
P 5.589826861943034 7.338267008859046 8.221721925563651 -0.3641651382272631 1.2347859200543054 -0.3998885597708016
P 6.833858237558133 7.275436297823348 4.702992393479573 -3.5942217280357585 -0.3615397847892741 0.09504134257756534
P 1.465855057096175 3.2422354301129825 3.3927618903310717 -0.9066748472371225 1.7628236607002348 1.6251791387401622
