# total energy = -381171.51563906745 ev
CRYSTAL
PRIMVEC
9.28533230317098 0.00000000000000 0.00000000000000
0.00000000000000 9.28533230317098 0.00000000000000
0.00000000000000 0.00000000000000 13.59002240146226
PRIMCOORD
 96 1
Ni 7.051067742707326 9.120944720988962 9.276114693701732 -0.11629330997780615 0.2140119422772185 0.31945571113503046
Ni 3.0314845560332095 2.93929049219227 13.544699849537226 0.0399909385706408 0.9649267889004801 0.6048239936680486
Ni 7.511332376661554 4.869933913489832 9.184191761562289 0.30214473066040864 0.5404497411570369 -0.7290118759025831
Ni 1.72364550960393 1.7832573426041145 12.03475254737349 -0.5672614620332425 -1.0219140049188011 0.9926669351282259
Ni 4.884344749130998 4.365257535417242 13.087598728278195 0.1757978931013424 -0.8838465364886973 -0.5605727371591571
Ni 1.862108384011835 8.648200600500116 2.862044884729367 -1.492404286167565 1.3532613252850951 0.561190316138498
Ni 4.534380576891596 6.894387046438617 12.02446532778145 -0.23515232380025952 0.12488465119124299 0.8570067905880338
Ni 3.1431499615877603 1.0250078263069091 1.095304291119136 -2.463972491643963 -0.6818172204946515 1.8170777940581093
Ni 8.651636173430035 8.055684979408564 3.1163004948738458 -0.3809521278776149 1.780357041598308 0.1653533007292507
Ni 1.8048550254013775 4.530369313362613 9.08982214437681 -0.5782123046177913 1.3613813832890682 0.20189484729871035
Ni 1.0231321891938192 6.6971480189324 4.065251236244959 -0.3975609400788895 -0.697555714275831 0.5227021873656288
Ni 8.721666149206886 2.995828880220015 12.140674046402511 0.5214803991433857 0.6059143985187501 0.44640367261320535
Ni 3.058217027560862 1.0103927133563966 4.5858983857755415 -0.6979372659849657 -0.788791567064377 -0.1710117845666087
Ni 6.367973705585119 0.1901450336725508 3.549672949585841 0.5219102875919528 1.6037572214209603 2.0226531755322004
Ni 4.4758644130960885 6.096758436098766 5.907854851347107 -0.6934326932463928 -0.6680764738697914 0.6135084088159241
Ni 3.0183550962415797 7.588038506321136 4.89738228413342 -0.29123836816055004 0.6133595419428857 -0.7338445214045362
Ni 3.7195648165699176 1.2283008904355754 7.025905420861968 0.23820833701776395 0.34679167994582205 -0.10737980953826023
Ni 1.7096896552426717 4.18242934355219 11.998032772485246 -0.7298449133268399 -0.6240172787670479 -0.5136295356403993
Ni 3.1130190584591624 7.030705009098384 9.578316045416265 1.3596916542914712 0.07547267641701841 -0.029304405391072114
Ni 5.14817817948415 1.2785531085347963 1.7678037641520572 1.1458476050506847 -0.06597296445669928 -0.2448844634863589
Ni 4.985229883951402 4.278764665573516 4.487411652273507 1.5189928352893711 0.31277649934264196 0.044495254198897556
Ni 2.31289269374594 4.605088381922189 3.9207352537478295 -0.3287890727208144 -0.03179786123688718 0.09743272562787736
Ni 6.947452720207473 6.857505706769344 8.058978486755164 -0.11200959500078775 1.5559077060378494 -0.6494377757226816
Ni 3.2932844986251406 3.2256965652282026 5.69424671162967 -0.8707614211699648 0.14653179714737344 0.4443609311515637
P 3.2677498349568377 4.377217043346251 7.535096327471113 0.15512288125049412 0.2249411875952126 -1.0120414830000957
Ni 6.700787869171663 1.75993258800965 11.88999236063837 -0.6538649582560997 -0.2361167445960579 0.5906469308367183
P 9.205942652341562 4.303900059955369 10.493916658970125 0.5351460695559365 0.13368065221631817 -0.11932206950180096
Ni 4.137024068883825 6.12592366467409 3.4544750807642846 0.6285771302235884 0.3531189077154306 -1.132897729758236
P 3.9210008142499797 5.5067219987161 0.9269482180880543 -0.5878254022275231 1.0841655546598554 0.8642249056030277
P 8.935655916079511 5.74243944303739 7.563241098032929 0.09729028651274212 -0.0978728984890895 -0.450595856317682
P 0.6192128083566818 8.818317172524475 4.8540299964239875 -0.2894753627228563 -0.5101012107721666 -0.7323203714505259
Ni 2.317396079883804 6.622428950372822 1.9835317452205752 -0.5341631368173768 -0.6406111785699871 -0.13389662488186618
Ni 6.7569548439096865 4.366956751217714 11.586730623981683 0.32212348777518074 0.37862090864127695 0.26581915675649703
Ni 3.700223469507708 0.4328079065116192 12.67549525560206 -0.13933425095766971 0.3986626577835005 -1.7087430768057477
Ni 7.437281852023474 2.5939411300776505 5.737829275578731 0.6227510104601145 1.143690706608682 -0.2762066706384082
Ni 4.9292486158582385 5.5146423871193955 8.29896439830857 -0.19093217763961956 -0.39072463388334644 0.44217575057478686
Ni 6.814171061191172 0.40259250685960984 6.38993351633986 -0.21023884838803147 -1.7485612372439499 -0.8580704559658577
Ni 9.199554343758365 3.819215002202001 3.1796441029024995 -0.6283236194518855 0.05394457253725547 0.5566564328238864
Ni 6.543689332952018 5.135977252916822 6.439686183564406 0.9113365143788499 -0.16907497255521206 0.1809511551675077
Ni 3.0584213048702087 0.413187070948895 10.270726984911118 -0.0106119711878914 -0.10693372313977713 -0.7881266797868686
Ni 7.624390582052557 2.688233679005512 9.820544364706361 0.04257746835089441 -1.5628597118756502 -0.47552475834887786
Ni 8.177907807723429 4.513859992634524 1.0262604176264924 -1.7842928863176044 -1.1569966796889688 -0.5383604627281761
Ni 7.308800709776815 0.9177622389000353 1.4372533645663619 0.15015499572225752 -0.34067065464974877 -1.8237562345195495
Ni 1.7951518532074222 8.609685042356073 6.620841158559266 -2.4583895982395467 0.03049791147854103 0.2599423862607459
Ni 0.15023946129172644 0.6144754318462934 1.8321520451294058 1.6832341339013657 -0.6187711998767601 0.5713279187931322
Ni 8.348210086392646 7.394597179702314 6.072633285864954 0.6734585641173111 -0.09485339493647535 -0.6828065809911144
Ni 0.039912072113394495 2.5758347322037625 0.9341239228454598 0.32860703861699536 -0.07085060426397476 -0.9454483684608942
Ni 3.510533417115065 2.8236138231087344 9.094239176924814 0.7352892242708627 0.6036867947398119 -2.0029238154240727
Ni 6.2800880359049405 7.914742921291774 2.128006872255835 -0.30555812721733183 -1.5583466544966451 -2.26222394011513
Ni 1.0936171462505793 6.221497589451489 10.746337487463382 0.21060625902977922 -0.8856301107516812 1.4479799944159193
Ni 5.383812055815252 9.188829785017678 10.952755994425049 -0.789087501038241 -0.7012357342305794 0.2999088993513545
Ni 7.05726105931342 2.4385232389939917 3.105510010274233 -1.2701357603085095 2.2153720127585976 0.2675518231768876
Ni 8.31712279404302 8.020874268829484 0.5758150225192579 -0.42926521316070587 0.218989597997468 0.38297430051396625
Ni 5.204939415485727 1.96901969945796 4.869984054283943 0.8948577999975362 -0.36180435130457045 0.47854734722528547
Ni 1.889927239411921 2.4031089818191163 2.8267652648720154 -0.801490245577968 -0.8340447824752216 -0.8869344313854015
Ni 1.390097804770188 1.6755382032528467 6.668474912965955 0.20922043442584612 -0.5378249019396802 -0.19296206358545478
P 0.004348321089405974 6.181774938115852 1.3367415001021257 1.4032816230672798 1.9769183924992468 0.8951491059857101
Ni 1.9074858026834707 6.054770163695832 6.901842239696537 0.19307673478644813 -0.3670175200743937 -0.5763634243345106
P 7.658439895387709 1.5532689482767674 7.851417883927605 1.177742139766436 1.5819948900432044 1.2458984850276995
Ni 3.645607145254268 7.970278493437273 0.5344386535111392 1.2111762510551658 -0.8724886882737166 0.5767035812827487
P 5.139942089784592 8.060671202823066 8.92411889076756 -0.6846248651467757 -0.20389593688913915 0.2449178878274556
P 5.559685533830282 3.62347091318691 9.936399312168962 -0.23379889509615864 -0.22890917110402514 -0.6948288022629712
P 5.022900476861333 9.13028576522544 5.372516449141619 -1.5689077178419433 -0.6644198509538106 -0.7424911413359406
Ni 8.849562315522235 0.7771312394133854 12.809982150743505 -0.3310318460084041 -0.9243938617834402 1.7126020455405213
Ni 1.4478432859895256 2.3421229196469646 9.878818181330324 -1.17762566879323 0.0807570647444093 -0.7975739412426974
Ni 1.4253634966291757 8.619443926543486 0.2761114251780971 -0.43034739048129106 0.06704254337179422 0.030931142361217693
Ni 5.0915840794629466 1.1532754059119787 8.882479746856964 0.5315056445898718 -1.1276596212877483 1.0865875338377866
Ni 8.879488941341487 9.04137870899853 7.939060277903017 0.6856677045889934 0.3566801427041277 -0.5166793782103166
Ni 0.14132554233842784 3.365412959488915 7.399046710913169 -1.5112715553857134 1.048306121759085 1.0819536346102012
Ni 8.772958324517324 1.3744427346084571 4.138433582318315 0.8915773294740517 -1.4952918921280054 0.08320604050553411
Ni 4.09450653254304 2.870365470952337 2.9192722444095445 -0.1628919836729517 0.36470301300860414 -0.054411999091977255
Ni 6.162424305721399 7.320268095096943 4.5105553428892335 -0.04997993146255263 -0.1921611649507142 0.8728201034712065
Ni 5.724704458453223 4.604141278033401 1.905973222061083 -0.10568828076845024 -0.28484943391507067 0.05540393069160136
Ni 4.043762191834939 8.697858557335785 2.9053702449752956 1.677498516969169 -0.032688491371956604 0.2450518423021586
Ni 7.060622349585393 7.714328310158443 12.045271900271606 0.4196839972301739 0.5146451213891072 -0.7195743846387672
Ni 2.2685552322855225 7.998988740732688 11.749212795835831 1.093704347388226 0.6233184529278104 -0.7041637065106519
Ni 7.638940697677369 6.069858828590738 3.008110589177857 -0.3440992207153235 -1.8312072914809558 -0.3106393983949811
Ni 3.9799998153221248 2.4111779355383 11.27068112775991 1.2688967456950855 -1.6185109826913675 1.4022668086495202
Ni 8.25110408179515 7.147783763350615 10.05710584572854 0.46442607733255503 0.3346930969100752 0.7320396069853135
Ni 2.2543022472924874 6.1448843131143365 13.078222399779195 0.4247241307572428 -0.43006456913354973 0.6578362841990218
Ni 8.807258341823038 6.148904861975563 12.73011343692195 0.6701624098645426 -0.7001607559988459 -0.6198333225926873
Ni 9.197288722691068 4.832096184599527 5.385576268941426 0.3249941244547564 0.2344342146873124 0.7270398397778769
Ni 9.05537170468876 0.8310910906772437 10.55704206169107 0.07462832613885212 -1.2182264730337278 -0.8927479527433851
Ni 6.005010068205491 6.4139361001880655 10.32692181564587 -0.8304454951597375 0.3213701545489239 -0.43941464288988197
Ni 3.8231798390697707 8.155028749076628 6.98629047938035 3.1467567040375743 -1.325110573882492 1.7150816174292656
Ni 1.4138218286511026 4.480144951260121 1.4506400280611231 0.7759157395429734 -0.3073249893097675 -0.7681479226720964
Ni 0.8907920628669612 7.214628870168112 8.772971323982466 0.4812179520789132 0.49192274009092696 -1.852499882311145
Ni 3.826717550654361 4.557064643561294 10.858917498243871 -0.18220225396578943 2.9752155293300566 -0.2389855815034207
P 6.697937272173056 2.879158680586477 0.2768477520249686 0.11764031092400384 0.051625180375459476 0.11784882739038414
Ni 5.768131957353824 9.020830268744728 13.359494612617961 0.33284987305374936 0.11253152894252878 1.1287497690281334
P 1.0971734284996557 2.690536441401781 4.803678425269766 0.21975912917364088 1.501345554521253 0.1802261040760251
Ni 6.533475467484696 6.07035095119962 0.024508634455449645 -0.6021647016683307 0.5113055154929129 0.49101796888847044
P 0.18516809559029243 8.185122510876255 11.814907449988418 -1.3422626601817464 -0.3570321267269077 0.049517904224469556
P 7.208992673496599 4.53300634771963 4.5197691780739815 -0.0036365683113227694 -0.6618921994359505 -1.2828321248292551
P 1.6643308072355223 0.3982590423017927 8.578579179341958 -0.30380746307481227 0.008974435584468416 0.2839585466696852
Ni 5.972669256003055 2.871721129459818 7.652106370264746 -0.7077064295565876 1.334041557823535 0.03688478884149131
