# total energy = -340896.85273356177 ev
CRYSTAL
PRIMVEC
9.01706886055565 0.00000000000000 0.00000000000000

0.00000000000000 9.01706886055565 0.00000000000000

0.00000000000000 0.00000000000000 13.19739173671858

PRIMCOORD
 96 1
Ni 6.280713195487545 1.9731691480637863 11.464165409933747 0.942770307408099 0.4607437433849614 -0.4792137771646909
Ni 4.622095483546784 0.47137179219840636 6.048707616113878 -0.23691790034111454 -0.324867369068905 -0.6471741764994855
Ni 2.7082225814394536 1.6917103552893307 4.869203751842663 -0.003674363527793672 -0.43991909333012624 -0.13363951456573758
Ni 3.394403500660012 4.468624968616905 4.955964186657721 -0.060684462364250326 -0.24477159205757845 -0.29505337103126605
Ni 4.837350955486035 4.377967356566082 2.8457797729411154 1.2392503835835624 1.3311007300276558 -0.6499383695081838
Ni 7.143394223946497 5.892348032266048 2.5425700062469265 0.11568524408016206 0.825909812072913 0.5046155050672471
Ni 5.248078449907656 4.416380070643713 11.387092914087 -0.9196969705284032 0.8617188513517224 1.0117105820232384
Ni 5.728949724331598 7.767591810638971 12.269047927602509 -0.6916442338874024 0.6197489904089971 -0.0011505686646754378
Ni 1.733937289567628 6.565905054841376 0.5045519011165893 0.6077452810799018 0.03535086869546815 -0.8109308221655777
Ni 2.7280871845176278 1.5727030782009326 0.3071024353954358 0.6313312959299578 -0.591066277762324 0.4776461755672548
Ni 0.4721337345316363 0.0318176297874013 4.694286138219439 0.17902154224496264 0.20794439592689992 0.1172998968654496
Ni 8.451879145362746 2.459297373733564 1.4361801445172762 0.40006416611671747 -0.09698201124370394 -0.33583440960337
Ni 6.939482224849888 0.7357513545187677 4.911277395947411 -0.4988847732310569 -0.2111287071921525 -0.9437290717769424
Ni 0.8774302482750975 7.427296642428708 2.585382148305421 -0.2363206330767479 -0.014777672529806808 0.3240908959141967
Ni 7.626357458385934 3.6576387969201742 3.610990793695336 0.08028655286589398 1.512238290174357 0.880436996586516
Ni 7.562832207053326 3.9546249825682636 12.441576919639072 0.5673262538329068 -0.9053463582336859 0.4930869356023572
Ni 7.741307054409794 8.769370145990303 7.329699494050621 0.263723707680049 0.1250952245401523 -0.5110700024433392
Ni 6.849735336771328 0.7229371977169552 0.30519803041581234 -0.09550619802912584 -0.46145825295348275 0.4171458041893526
Ni 1.9950896428813267 6.32847661015168 9.259435223999587 -0.8698407091279085 1.3661055282376149 -1.2408043583342436
Ni 9.124642665863231 4.8005342626271235 1.200230499148878 0.042539930244739635 0.036092631957499136 0.790751004783593
Ni 6.491108467218383 1.8629805644889852 7.004212156605213 -0.2733342341866196 0.5500574394501301 0.6860803666463797
Ni 3.5028157216354487 4.316362740937356 0.39098462177538235 -0.6996473066975369 0.4324762638988358 0.04752349950226009
Ni 5.860815341860068 5.343524125614634 4.805131164419794 0.4994082498346948 0.4988657470676634 0.05129633628113101
Ni 5.143714892927725 2.918257170408999 9.302960616218536 0.4553238579209707 -0.5981254986019506 -0.5772838792662509
P 0.27601608990655463 5.617435631609048 12.323275679055905 -0.2750699859308037 -0.680246533573422 -0.30786646363553427
P 3.9877987795381236 6.135087530615774 12.60814202221767 0.34885910399781206 0.6847395363477691 -0.5674280695180938
P 2.499802047826691 8.603645434245518 1.4725252446657993 -0.5606200454573248 -0.443323748136301 -0.7735446682076356
P 6.447024016719429 7.872712801417616 5.804384720442079 -0.6323970181903108 -0.9254354156740772 0.885859710263984
P 4.790191684447066 0.862330264473595 12.536968492931859 -0.6426564911347901 0.027895697969003572 0.6586634080860077
P 4.091549175823857 6.174816736772121 8.123152876720933 0.3597392412454256 0.3066973830280976 0.25090135910440015
P 4.60090537132086 0.9996773582668042 3.726033265530228 1.3344426499166955 -0.005553325718061404 1.2473503869828775
P 0.14816847833888172 5.533171121502131 3.4498638854501245 0.6693010903055119 -0.29625587597979947 0.07158516843715412
Ni 1.4951382503850206 1.211271900178939 2.6425927461947043 -0.3006884578298563 0.15932277826445462 -0.5278510785564199
Ni 1.8464162086766356 6.602162689420285 4.822248266563823 -0.3762647497042746 -0.5770545368642643 0.11866540975440852
Ni 5.915296472953271 5.462937170809487 9.216596932440899 0.2808675664491872 0.738023078262258 -0.7911168727634439
Ni 8.613951944149445 2.12029164639492 10.18135208405248 -0.034058632246605866 1.3131824549863385 0.3121460648474947
Ni 2.5054016476957544 5.239151551565671 7.10258567462698 -1.234740411528351 0.08000630262131382 -0.8371018241339907
Ni 0.5754522132107224 9.029242075501413 9.079673640892208 0.008667702977327007 0.4789450968843364 0.4238931502155151
Ni 1.470368361753271 1.053337936078068 11.445873383694808 0.3931442990684326 0.023839011401126684 -0.644092195140052
Ni 3.9049138809931505 6.737355605421676 1.6503995552247157 1.0023443103169898 0.6799775961827514 -0.18065265009048243
Ni 5.37878988259999 8.078788897081978 8.08208283239948 0.8656369554592058 -1.1622540714331662 -0.023346902256056564
Ni 5.119612267404366 2.83046698631045 5.044280967587758 0.3991362549858094 -0.607561704314186 -0.5699644627867023
Ni 0.7307333556022885 7.496556749665863 7.118462028072165 0.43539909397258564 -0.19433451845294916 -0.9632540291837475
Ni 5.0949054982558435 4.4009698996674995 7.028059599074957 0.0221942767088521 0.5219413979402043 0.6060933472987755
Ni 8.252412561299066 7.088994246474583 9.115411892294857 -0.12869399763500416 -0.7045455153301027 0.1260511606955184
Ni 4.573042628011029 0.38636878413774395 10.33936449665393 -0.8736346289527018 -0.9469496355967691 0.17629591578368345
Ni 8.181538398705126 7.091356718561048 4.666109600907284 -0.4348974717458188 -0.014877431332464698 -0.0598002599870841
Ni 7.142339226869717 6.021779041155794 6.898131749681531 0.22654941262259695 0.6491521261614627 0.24633456566932416
Ni 2.379225800726671 5.157222462338122 2.6154198086658447 -0.5714171360728288 0.3822114542060127 -0.2509484102922517
Ni 2.303049601541735 5.296923912855667 11.394403953658395 0.702362648746171 -0.018227064530987967 1.2858894235983402
Ni 1.2715419895908842 3.447946856573856 3.751384755114562 -1.1445543401605578 -0.17137559566393065 0.0357470756926223
Ni 3.6942120289152145 2.5236792466242424 2.6048878720361093 -0.9795273124224744 -0.16236542174552038 -0.6901280543531921
Ni 1.1421831172533965 3.4197144134337 8.22824411117177 0.32781205351952575 0.27621309839631136 0.09144436925492638
Ni 3.42920938712472 2.7762473502191836 7.134153531602188 0.3268684586593338 -0.2292292734476052 -0.0779260230535174
Ni 4.184659430651467 6.936614796897613 5.958767762758026 0.37626372126301005 0.4470724165454559 0.36125567788995205
Ni 0.8906664039076222 7.415601503893805 11.221597235895636 -0.7873900587311601 0.2821112090483013 0.34540174157683096
P 0.295877987864019 5.534018725991168 7.832190093186425 -0.2658906334243808 -0.03112911730463671 0.9097987375780848
P 8.626936523555969 1.7948656250189319 7.966222512403357 -1.3475046253069762 -1.3388708608913782 0.5465743659975362
P 1.963169218506957 3.234494798441066 10.462654881532675 -1.0508527994403385 -0.6373613041741217 -0.6511997527191107
P 3.9268704440868203 6.313156609865788 3.869607547197149 -0.1310488710204259 -1.3654046455158484 -0.7674760934160525
P 6.914811523977494 3.7827055443982833 10.240700629009321 1.4753056788140657 0.14550824097886553 -0.040259618850995174
P 6.367583638544798 7.656366264125455 10.078320348168619 -0.4504827277785855 0.49945658657412684 0.050858220302447896
P 2.2943932152707194 8.53598134822708 5.752267864849147 0.13656234463948738 0.5286167530778508 0.6116849824539401
P 6.708374745551839 4.049069763612656 1.5678762411479379 -0.03929236984171943 -1.4564882889972464 -0.6864356931032694
Ni 5.139891655658027 2.8023156967915854 0.4270619149736458 1.3202684152988424 -0.6829701031521722 0.26901992308198186
Ni 1.400522145029015 1.2024441895963096 6.975402621046989 0.19364623413667295 -0.24475128034260427 -0.7612781921354567
Ni 6.701116004980832 0.7826779851767041 9.363918707997648 0.5736686511111669 0.0013824821698234257 -1.0796792367537276
Ni 2.568890830752233 1.5505391225195198 9.054889324950008 0.5494961676300213 -0.2895180430353336 1.301189030069888
Ni 6.36747543371641 1.9287871342867675 2.6207777510848422 -1.015597061561838 -0.3949772385121133 -0.08052180880515164
Ni 4.1027934609071455 6.798996289326532 10.369362481910612 0.7330181688484988 0.5184498398471782 0.21277164211221422
Ni 8.011710920550641 7.023052420641317 0.21160987092948974 0.8740285219570108 1.150691049185915 0.25786390646516233
Ni 7.727565041204557 3.840649229999893 8.014287998880073 0.0330589873374979 0.36644364984879474 1.1986238683114518
Ni 3.070771876021453 8.272926393347564 12.352231291132451 0.7461595913264633 -0.07444783469692985 0.2934420606800882
Ni 0.28323605708072347 4.815241102218817 10.163866183785027 -1.2580996550795818 -0.6078779500030241 -0.08845623316087992
Ni 8.627549684250166 2.3543567243355663 5.62942653000821 0.49536596144452105 0.8402668521255334 1.151602762366907
Ni 3.7725523246679042 2.5830566462019893 11.400778119757334 -0.4754381121723425 -0.18138207205733922 0.23650189584961848
Ni 1.0551684010916262 3.3669916108017968 12.46295729202158 -0.16119274159365787 0.1593145507343385 0.45562699098368625
Ni 3.00828358762756 8.35394475860285 7.8147168168156185 -0.09132378451666207 -0.24285560598178824 0.5669084495691978
Ni 5.648526485632445 7.708178342785096 3.7324200555258122 -0.12983505321798286 0.6745332852387286 -0.37144984481413446
Ni 3.028139173636702 8.417965948732236 3.655295260678677 0.8160205779836591 -0.033450309238645615 -0.15412709299612812
Ni 3.403150057621351 4.436253690790919 9.395962666217759 0.697597880367676 -0.4446620073317503 -0.41137187782005286
Ni 7.26062513843553 6.071868859630263 11.23664221557604 0.7216909167611377 -0.322321976939232 -0.054527441623918996
Ni 0.564417124128984 8.922570148849212 0.41669048217268534 0.3030240479415684 0.092133424902151 -0.3521544869196322
Ni 4.716359923210529 0.13085841091756048 1.645938811174433 -0.2599382724956878 0.4733981989241782 -0.5641943930721444
Ni 6.091760513915535 5.694477469421086 0.2267810895763476 -1.5047993173978083 -0.6076015564131858 0.802407872296231
Ni 7.895237439860321 8.892381001729047 11.262231755782826 0.5407942689806493 -0.3382026527252305 0.43420635921606515
Ni 9.030143782404645 4.891534523301173 5.619476194331059 -0.02264833352713519 -0.10177326198476021 0.32172188146138786
Ni 8.098022305327891 8.979900673756626 2.360076251222759 -0.5136405913839929 -0.15759962492576085 0.6652027518664222
P 8.537983137552253 1.7278958533159818 3.6161386384058805 0.08499475697484073 -1.1319114545855666 -1.2192418016721196
P 1.8957666274904563 3.252330560986971 1.4622313586585165 -0.9665010753661354 -0.09466698995728212 0.4291541415041383
P 4.650905019105007 1.124094876774587 8.205874566316421 -0.09437259864531489 0.35756794462571967 -0.6247369305418918
P 8.667215770923288 1.6160661631773006 12.552765496169558 -0.8491070761249828 -0.12459437364433382 -0.3865802726976697
P 6.413336246814728 7.738917531116233 1.5226222767954949 -0.23152552568094964 -0.057368253506823785 -0.25056968679659425
P 1.682900678844766 3.4274240074563234 5.948738076873391 0.4963977451431451 -0.9021589616446397 -0.001578143120397282
P 6.9312857090995195 3.7959876870828726 6.024028799879354 -0.3898491732569286 0.7680738749010514 -1.6675648027952248
P 2.461668862889061 8.42934548985101 10.082055218161802 -0.08346135104944981 0.4017626368650629 0.3438266837802272
