# total energy = -381173.27799114643 ev
CRYSTAL
PRIMVEC
9.16736855461824 0.00000000000000 0.00000000000000

0.00000000000000 9.16736855461824 0.00000000000000

0.00000000000000 0.00000000000000 13.41737053149933

PRIMCOORD
 96 1
Ni 6.4288280724509725 3.7730322248750365 11.104255724796559 0.4359482816078363 1.0593870621635948 -1.6818555083862838
Ni 3.0964345861705036 2.8820556717188337 7.622085770510472 0.033890996320490016 0.8923828560944825 -0.18370454954292878
Ni 2.2334185072104775 2.7531166325158085 10.170004608216404 -0.4826955650657042 -0.921010547133504 1.3408629516207424
Ni 4.751777164901468 1.5729279351166598 4.889450872896007 -2.6127640313597906 0.30028710862637964 -0.5934833718442488
Ni 7.196751037038231 7.45455577649557 9.973587319040988 -0.5019027341217742 0.05127808144868588 0.3524532491069737
Ni 4.65795831476256 8.306525176305959 5.490696408747132 1.0663005014539766 1.361588614203868 -1.7511277124195455
Ni 4.729876321342561 1.0296055009577063 13.320349738847714 -1.9678529398628692 1.0876033766968107 0.019013564988025318
Ni 6.669957368445083 8.831962074347947 8.021494268876415 0.9262021186367726 -1.5138447154295283 -0.6534947194008746
Ni 0.7461064608193697 3.1925086089822847 6.643074060058103 0.2631994597454629 -0.24751213091719307 0.316267543215036
Ni 6.451168949702146 2.8561486880865727 4.172775332194475 1.7581835908250625 1.570429039582476 1.1946440577280975
Ni 0.9051584723632475 0.754357092549389 6.195082175118371 -1.350597919520319 0.2162464880346921 -1.1834368761583682
Ni 6.305774483882027 8.562028906247482 3.549444688675806 0.4766082212210437 -0.2108908801497336 -0.8877345586891938
Ni 6.8135183605474205 0.2902663916306704 0.2666805857251217 0.9012238514248802 0.6099176061408722 1.7884714431753264
Ni 1.5637789012649272 4.6180344245578535 4.093975382014778 0.7532962023712446 -1.2855515806429473e-06 -0.753097198986561
Ni 6.262467834668016 3.131866465766642 13.256429344624676 -0.22715567874802814 -1.0728449874407138 1.92711406738261
Ni 5.293568648506073 8.9146700737571 9.84499572310748 -0.7639423692311811 -0.376141593862849 0.7469432635700232
Ni 4.893770536975102 4.224341780507096 6.463174535606184 -0.666728187372013 -0.35273092824839253 -0.4052210277273086
Ni 8.883161827917013 0.07245521437931235 4.129799624986522 -0.8313253266615296 0.5185642539378552 -0.5356397213629033
Ni 1.4471883075511647 4.358872914549356 8.844891731005747 0.775325157146826 0.28197931145612726 -1.4593661247656737
Ni 6.5494064715009115 6.584710007936805 6.902633433863359 -0.4511818107281391 -0.06052659663014737 -0.44886730366234956
Ni 5.411635188562651 6.04157092114963 10.53047562523781 -0.2514423192095347 -0.24785743007175376 0.5349617214592722
Ni 3.25068473004751 0.6537186369171895 11.311595016908804 -1.7596974563664276 -1.392890509640943 0.7941536027072387
Ni 1.915521666652831 2.5723269565739066 12.837391676636157 -1.034955668594108 -0.7629607220442022 0.6644010819007332
Ni 3.0197953847672125 2.7686644896426005 2.8489770556394682 -0.1379985628653817 0.1753662048805625 -0.7906954689553093
P 4.487784451646615 7.974739772336114 7.574105596789833 0.04630633926570734 0.4527658673858074 1.0135967433023578
Ni 3.9235512497363567 5.30512870029669 1.7870061598786136 -1.2408092434302502 -0.6178823695139035 -0.6686590858461388
P 7.838906871954228 0.6553861812635122 2.1959945584199683 -0.3255613098121361 0.7636173817915946 0.5348912732326531
Ni 3.0050542560762445 6.597131792374779 3.5744816890289797 1.134875165199581 -0.3015037546423001 0.43185482826475297
P 7.523540225127121 5.107535237731315 9.698921038538064 0.5444040978190947 0.3748272459267996 -0.5602500637124158
P 2.090325050906175 4.8502897077578995 6.485541081489408 1.1222158245643576 0.3982014018763658 0.4564533435397235
P 7.534000192687067 6.901433425315071 4.483655468834169 1.1202756701188512 0.8825350167661252 0.4121583782770901
Ni 1.9011655674425973 7.787523771013385 5.3414553150671065 1.574158167607605 1.6637528852483023 1.9907447568593781
Ni 1.6943130626024228 4.971216466814217 12.831783080533462 0.2522720141996817 0.2735234673792902 -0.6232665166439524
Ni 0.17690179492334535 2.67553319214786 4.274680718165662 -0.5427835314965361 -0.6696800709114854 0.09294075129479477
Ni 3.307669093196177 7.258080732898042 10.02760603845114 1.031010825013747 -1.5114492186141582 1.5764359078981884
Ni 3.8554101990149854 1.4166334680443262 9.229849706264991 0.7777106266598671 0.6556004528899677 -1.3174453440277505
Ni 4.584912721846121 5.953665023750569 8.321319475734743 -0.4439413271156419 0.44447020303591833 -0.6894893923279287
Ni 4.716831155840541 8.658176268007972 1.606353994465545 0.4201287980770764 -0.6891068121775294 -2.371089333059981
Ni 1.936505773352847 0.8511085838998905 4.1194010787961215 1.6806118657871703 -0.391313673617597 0.2501922488525175
Ni 5.1123847757148475 5.1243665264605545 12.802398913995427 0.7612239418587535 1.6732988770655246 1.2647600978188926
Ni 8.056100168562693 4.359303780873035 6.26071961747811 -1.7729664055611918 -0.035285048454539225 -0.000903742761191992
Ni 7.297271233615634 1.6571943871859243 11.588515553347738 0.4524902451269175 -1.5232924911059895 0.22731148759960207
Ni 1.369164833490948 5.817318750727703 1.8182815545565405 0.300607725190592 -0.6664469086861684 0.6660910680086464
Ni 9.033002467502753 3.129739636254015 11.290918933793376 1.1043566848957496 -0.1716789858369624 -0.346973456939325
Ni 1.9561422768702927 6.52484709105122 8.227505209280128 -0.18421877017518595 0.5418970151265248 -1.2693160926206914
Ni 8.293067479217438 4.910079285694773 3.6633446597087236 0.01896779935175443 -0.6674475820365408 0.5884766626582769
Ni 7.802411577601775 2.9707041259735973 2.011504932515582 0.22336175892323468 -1.560215332274268 1.2512029279597483
Ni 9.139481453662949 6.5836099237061365 0.14543755245248702 -1.1636103283507442 -0.9561636979958694 0.14925845204991714
Ni 0.8969637615816205 1.4226747639444182 2.1151145323074476 0.4693265999579659 -0.09969478218917668 0.5609406620215371
Ni 5.258118434172757 1.1814262921586516 7.197251575363185 -0.32227441153074826 1.1036419182169122 0.2874825006625436
Ni 0.2641210564150979 8.395054454769067 1.7473041199937605 -1.4014489407339152 -0.21472979427984956 -1.7078295638525427
Ni 8.622258517876622 7.9894075620783696 6.217743910270157 -1.1974650721166604 0.385713039601368 -0.24130497366521667
Ni 3.087083870209815 0.5961521458631264 6.647770502986202 0.41625928781934113 -0.5028846384190694 0.6854458183861742
Ni 5.364368236118229 1.9580399221681974 2.3875274736112146 -0.42222321871226 -0.7833503414441477 -1.2629441276560764
Ni 6.161397595975277 3.996926867921996 8.358672835787116 1.6148587306507607 1.8013043332739367 -0.5154231372057123
Ni 2.389703806914222 8.488543279638774 2.33863422997912 0.7146738620133563 -0.6653698735719057 -0.8060326135330118
P 2.789886947925928 6.90565041486597 0.46451331661066736 0.15825782733505003 0.363606951730948 0.6398894699126141
Ni 0.2509136284890547 7.846433281565724 10.050429119290092 1.9486776524859988 0.4512640860293002 -0.3225834581307348
P 0.8916219359048624 3.477696278414699 2.1842135730463594 -0.3402027138743947 2.257164009093719 0.2688636000097757
Ni 3.8030920264780743 6.333459937020537 5.888186176867417 -0.9586103597641491 -1.999480336960163 1.0409651080129814
P 4.088692227496989 0.14035057962250064 3.3787895387089444 -0.446444810263786 1.0729961683065972 2.195927016660108
P 2.8371080635274057 5.204828520565421 10.709208143668361 -0.8468442482327351 0.2126274032248661 -0.2783946794286625
P 1.0295688314833509 0.8780991504993607 11.112856550006676 -0.38125628938159495 0.1705898665378417 0.6167204879953185
Ni 0.5343814995741891 5.601665572042175 10.573384410655063 1.241610399175307 -0.4906914387869872 -0.15926518555364183
Ni 5.042547761804529 1.9687382413114558 11.252893605623436 0.3688412035466938 -0.29092649334708603 -1.3273734017747398
Ni 4.277035815156154 7.643357732584179 12.321372416345557 0.017099892905080225 0.19854418565892257 0.28497567508028987
Ni 7.8097546398414925 5.73590335028959 11.73139724343764 -1.311941897711018 0.03531281636868112 1.5094118764691553
Ni 8.989659148814384 1.3148481746016538 0.13416902298299835 -1.0020337210551067 -0.32502034970700155 -1.425609854250835
Ni 2.305694041165447 8.882547614221556 9.051639727844009 0.6208298821780018 0.1341938444073108 -0.1622918881951076
Ni 6.772934419804314 0.7500896824712512 5.305617321042479 1.9579781039513182 -0.42106699362062966 1.4856268582344154
Ni 5.920479149458712 5.604131594192592 4.685252321262322 0.37532732549166975 0.42260194220791736 0.2983775503084926
Ni 2.6863506870827742 2.74839543769252 5.257878249115728 -0.277178033412742 0.32978151854107074 0.6378161323233531
Ni 3.6977772961286712 3.643607315136799 11.998912976441211 -0.00883842422723639 -0.1149249688753698 -0.4056594008163078
Ni 8.043605045176008 1.5392836923953586 7.285283065711916 -0.17250610972394806 0.10641898828688769 -0.7024297545386806
Ni 6.529274930079664 2.008625462041805 9.159515820977154 -1.2851808275670897 -1.1105728410087907 0.920112460799267
Ni 0.7099237737357992 7.1816432136037065 3.712250737656843 -1.4996031179088496 -0.9753184165474492 -2.1527697645463437
Ni 4.321039184382923 3.957488848252503 9.615451230799177 -0.9960597628598588 -0.6282434010332535 0.7424847135780375
Ni 8.339271016905547 0.7247116560065704 9.484672300720359 1.0819886016131948 -0.7860368871373754 1.3099374656864795
Ni 1.8577489098055173 0.23876594837188952 0.06697221122628504 1.0407789601441042 -0.8238336462701746 -0.3863144206307928
Ni 5.682182570358575 6.672093365326299 2.1424855447033573 -0.977757107895929 0.31218180318143657 1.6942453974102045
Ni 8.772190831148253 3.0593984170713053 9.015614719500167 -1.5439245655340443 1.2486480227483785 -0.28703255760931856
Ni 6.48479485768627 7.102602161630121 0.14662380994789206 0.451215492179552 0.5886494407907152 -1.7638785843273106
Ni 8.690463740178116 3.6006123564548096 0.04817177172414755 1.1809333930102244 1.9463248359831058 -0.14128700380866635
Ni 4.069092393453898 4.42867325898532 4.255345821074791 -0.5069855479613204 -0.47272714099908253 -0.9821786340023924
Ni 7.938363653775316 6.721697996760893 2.2194071010591867 0.15608987314945377 -0.30232702187454386 0.13252648400721692
Ni 8.482153623732305 8.25713139434891 12.130684732538208 -0.8040312668322669 1.3184233916703036 -0.025709746061278307
Ni 1.1289889438300842 1.4796316249873185 8.313000088740306 0.755132484249035 1.5841263345639105 0.5838070250967494
Ni 0.42365893849418806 5.977179324181122 5.560775441188198 -0.19745840879391155 -0.819979562631407 1.8871593813665437
P 4.087876331692576 3.3419000475071687 0.7965627407958736 0.3731999947360218 -0.8759874454555947 -0.06202092178748673
Ni 8.605097203878183 6.448336232808174 8.201072935427723 0.05415745987900995 -0.8661558040771534 -0.23458848087698952
P 6.509152556027005 2.7923071332334004 6.439009352005816 0.2738433126125542 0.11389472783864256 -0.7808638275768681
Ni 1.5600752843550074 7.362781249551987 12.124016388626634 1.4777212302340936 0.34100978315672237 -1.0472558261176996
P 7.18135902517745 5.1367333066869945 0.6602595544053769 0.15016245192142527 -0.5010974646116596 -0.017252359322544483
P 0.5233705731620488 8.569335299012842 7.962216230106803 -0.7015548081328951 -0.7945210133489865 0.014386093518342967
P 6.187992132251707 8.75546038347349 11.816571264997204 0.09872059120136548 -0.5482790073934686 -0.8187459473346221
Ni 6.120841157337938 4.511252915234226 2.589995226055313 -0.6368856500892838 -0.4146407783793117 -1.190602283558556
