# total energy = -340889.74623576284 ev
CRYSTAL
PRIMVEC
9.06759499377126 0.00000000000000 0.00000000000000

0.00000000000000 9.06759499377126 0.00000000000000

0.00000000000000 0.00000000000000 13.27134183993073

PRIMCOORD
 96 1
Ni 6.6359923608631055 1.767355848938105 11.164409992906148 0.2882558884934584 0.2649159282159373 1.1194778568079042
Ni 4.603608849001468 0.44311250593432133 5.969555874341295 -0.43509184714481197 0.9460991146710158 0.23191581914083284
Ni 2.6212059200751825 1.4817356780598934 4.773794910119116 0.15736411187618704 0.28606428015877833 -0.2394164983932522
Ni 3.4091073737070308 4.134886734869701 4.705659188730721 -0.02759719289197828 -0.1663102653258813 -0.16831701134326496
Ni 4.662412201747434 4.790655196024413 2.4607058637999772 0.8323522252641472 -1.3662171141148147 -0.8933958707400291
Ni 6.934969098988011 5.890046668704748 3.0145717870218522 0.46757053649880764 -0.5657997898860514 -1.294560469009777
Ni 5.299129646075735 4.462925114559884 11.934956976712167 0.3028723528550526 0.42393840163115376 -1.142513141360813
Ni 5.497347269981183 7.679545584320671 12.634436685707621 -0.19938030840697274 1.2050665386130022 -0.48342010193655455
Ni 1.743018424301224 6.492379793277814 0.2810909072395671 1.1035141343897963 0.6085106984910165 1.147867463694191
Ni 2.575332957616918 1.919274333426297 0.12857849528724855 0.28999318289953924 -1.7028197693427771 0.5278590489762199
Ni 0.44214680708043613 8.567036432433468 4.482196473941688 0.1772996744578495 1.4308181379246518 1.3836723334767849
Ni 8.56859605875148 2.509502218845026 1.466921041557756 -0.18570409647146083 -0.7191324120053422 0.34658779146513213
Ni 6.795654571372124 0.8660786295816745 4.796700561525682 -0.16186637062191478 -0.913290295671111 0.5665461811337728
Ni 0.9637946589620344 7.643547232678191 2.4771753363662836 1.4532857228995488 -1.5337676796057005 -1.0922439607926158
Ni 7.610214753928126 3.569767019651986 4.019186037819896 -1.0491849248196123 0.11367952650404292 -0.673616172741098
Ni 7.654781982724799 3.8127150890618062 12.81731556612732 -0.8146527511018552 -0.3805574635423575 -0.33737450039698025
Ni 7.994599168153919 8.880385308430748 6.695458554794228 0.5170128502903354 -0.26015527360250035 0.6606783816335073
Ni 6.731247444995161 0.699935809017523 0.40299746621987936 0.2311614574733116 0.7176301164282028 -0.2529320163811838
Ni 2.0794715320327724 6.346545664948842 9.05198410082948 -0.2523090380852042 -0.20552704473465894 0.45781320000172765
Ni -0.2282368034892256 5.097366592575272 1.2899832492982963 0.0987992669581008 -0.32354607915432015 1.776095695218793
Ni 6.546658416182571 2.025691626845983 7.2437243314230555 0.051614124631865946 0.7023014564909325 -2.0088296393855467
Ni 3.1998726220319065 4.279596481434524 0.3807918331374433 -0.6539204940843835 -0.7370720272028982 1.157213423685465
Ni 5.542376946116336 5.685545201552892 5.10579038821151 0.21085308493326269 -0.27104183860801706 -0.13034284609233682
Ni 5.476292314688024 2.8925264938399957 9.278950534277115 0.7348896748395989 0.7305116003765613 1.0855112700544725
P 9.106948233906573 5.710589898589802 12.565558328299195 -0.771272327233691 0.140034619458804 -1.058381503717216
P 4.037110859363184 5.955088526722762 12.881880468655059 0.5839139829882589 1.9945780145625391 -1.1801692611506902
P 2.539171389266739 8.685821925258782 1.09472256808066 -0.775182975142007 -0.20152049467842714 0.4090653411740633
P 6.139985853761005 7.976128477399326 5.903955452479157 0.8680381087015309 -0.5312107390572723 -1.2100902170798387
P 4.895059483382479 1.3326462831718155 12.519626426474261 0.30357786356250943 -3.4206064444080315 0.18452524567201126
P 4.040157571240231 5.953882536604764 8.233991833614365 0.6248302615866465 0.8958934403509022 -0.16452360573910374
P 4.636125244213038 1.3184736323866275 3.755125887269222 -0.49014276537236884 -0.8797870217073429 0.0967459839734979
P 0.23247590409196103 5.822864858296905 3.4566134100017716 -1.899077730070684 0.10935853053118587 0.6435751462943174
Ni 1.613460628767782 1.0018966926148567 2.524886300305136 -0.6613424975800675 1.017456740478396 0.589302500993682
Ni 1.9421065373143995 6.696863125239925 4.710755177048875 0.22220759071413343 -0.4861354439851886 1.2768411973531428
Ni 5.865437216221703 5.491199440657858 9.35409278622323 0.9076354113781787 0.21216229066298944 0.33110255134533945
Ni 8.832454001936505 2.5761943791297734 10.158853619000888 0.1302328028770338 -0.899128145238116 0.9237747401422026
Ni 2.4823175694182864 5.182320888932551 6.774449094004087 -0.39482322943275233 -0.06556210217152579 0.2891089805223731
Ni 0.7692049797649383 8.74957618480495 8.903929318516315 0.3561962610891736 -0.11864226982595696 -0.057811511691829465
Ni 1.6168519092499702 1.1140991115629817 11.21607533496875 -0.5564947104350416 -0.21949584820992518 0.07659264895407454
Ni 4.067850005979811 7.022825025704383 1.518573688987536 -0.27518285735958414 -0.07365362093040864 0.4008997746441354
Ni 5.77905023987462 7.895843992401209 7.984968475640197 -1.6575794094477387 0.43609740559119087 1.5795988790072022
Ni 5.377210705519917 2.844658660509856 5.161437311182477 -0.15603613709338288 0.5298125731581649 0.1529623832640656
Ni 0.8686084885510076 7.1777086137157715 6.784774364285017 -1.2428751248203433 0.0020589394115577446 0.6979470361769786
Ni 5.242176082683689 4.412219124034757 7.268395443551232 0.33160880155779665 -0.14208147468550367 -0.5597021616287458
Ni 8.181192135433257 6.981912037641191 9.263621765145727 0.184382806556876 -0.003314923305845904 -0.2683252110078024
Ni 4.814158401933055 0.14362254193965152 10.366351019498506 -0.8186860406309643 1.2483240637500563 0.06691090288993637
Ni 7.887284182841889 6.902470838966185 4.862738948220147 -0.08930341165252362 0.7746139900124143 0.22695796091492526
Ni 7.070810737767861 6.268147239684135 7.042623212348261 1.3752422004315605 -1.725395340650448 0.02652375732214142
Ni 2.1871854915191777 5.327012500307631 2.9150367981101364 -0.17129691990719528 -1.9852629078092001 -3.149151686632312
Ni 2.501976115101132 5.31915996314834 11.424276380828449 0.14787931231420337 -0.2274960928065824 -0.1171029503632951
Ni 0.8269610253031703 3.1111552738026793 3.824017846069955 1.050697504809397 0.14206039163958115 -0.6519484579596772
Ni 3.4338891104926477 2.55633634635974 2.342949542992653 0.4872464176611802 0.6713736565638244 0.6045362872243009
Ni 1.4020949922976997 3.4745119355199305 8.286758888453933 -1.8976767359581 0.14273530621941868 -0.19149422079067666
Ni 3.592644561514449 2.80846988937506 7.024600460780351 0.35934097736574244 -0.3622332113118729 -0.5121056427967051
Ni 3.944956892677408 7.286818982812489 6.458233044508228 0.29597896816932895 -2.03149802751734 -1.329093726899956
Ni 0.8956580308141521 7.393544574457829 11.466876848297348 0.5011033781489306 -0.4262554798001046 -0.6564867121496629
P 0.2872342027654564 5.494935289745188 8.070236510780054 -0.4072671116230599 -0.36584226881936993 -0.34674719986113184
P 8.7602759467541 1.4442321056686338 8.30910778953535 1.256856269590784 1.2900628382497394 -2.138643095336975
P 1.8696745894755742 3.3370018592836033 10.602488418399847 -0.10959970000771448 -0.6319313914078021 -0.19456257530335525
P 3.9075167934502533 6.192559768829797 3.7786961933799184 0.26488198965420834 1.701626006144992 1.0169450909493003
P 7.128897750518926 3.955357423995777 10.651154200078736 -0.8972651238874484 0.4319545870674109 -1.0266821157314059
P 6.35555885425177 7.75379105113393 10.178800514200669 0.8893864924703199 -0.7630982760633309 1.0349993773478496
P 2.249398259937077 8.581943558403301 5.929224119109409 0.4157527804965679 1.0340560395979739 -0.6091473036337509
P 6.683851126598374 3.8620972107355973 1.8552670879831972 0.7911952914098632 0.6641529704456691 0.22244053266054598
Ni 5.230297533401157 2.949824625837184 0.4864673972965866 0.3864185503088248 0.2175731772659156 1.3887538617647504
Ni 1.7059319612740838 1.3166782486019395 7.039239185941969 -1.2105440167878054 -0.4802951831543276 0.855721496117707
Ni 7.001652191677886 0.639318937297124 8.957598599045665 -0.5601762730516869 -1.4939454054024401 2.2288044841144194
Ni 3.1197876241209768 1.9815052370339405 9.303289772432972 -0.6662355640063106 -3.5559362021919987 -0.344641980592671
Ni 6.452246618373627 1.743580615183298 2.6696767484643216 -0.10922740426996029 0.5857649201540687 -1.1742739787121779
Ni 4.283812913050079 6.8372566966456 10.608792210354974 -0.1887904487062684 -0.7018368581496881 -0.3803831427480223
Ni 7.939966909049147 7.737161082138385 13.116836359944555 0.28317667419833814 -0.9550331839358519 0.3831331946893337
Ni 7.706947856024343 3.8616347633971166 8.296618991117922 0.6335537575025734 0.6870031355709653 -0.0734661875099509
Ni 3.207036021980914 8.377705051502739 12.278539027532208 -0.24699662473335524 0.5012208775634013 0.5996378214814189
Ni 0.23936002211890595 4.955667287508006 10.3933189534078 -0.45285534177582004 0.2770602768879551 -0.06200035296219644
Ni 8.570101279500259 2.133940574429846 5.905455232671012 1.1634568334920157 0.7555675149039246 0.03212233445584145
Ni 3.877865758218286 2.7422855144031537 11.47932574929734 -1.2033235877799662 0.5777554195860307 -0.9869436594912036
Ni 1.0106922596408532 3.6071617809047796 12.650401999999035 -0.5980234258064476 0.11377182910753308 -0.3942691567014952
Ni 3.185146847959516 8.638362133697889 8.174310737684772 0.2959900239129225 0.6609779151517972 0.275970386257886
Ni 5.589319884769516 7.868985776389867 3.6850796236412626 -0.4871572003814836 0.48459175364715246 0.18076654996052738
Ni 3.0917959587506147 8.458207158777787 3.591424063244656 1.0733044435756356 -0.03425352186623133 -0.18786330890630873
Ni 3.4470733934367703 4.095270412873227 9.214982279491966 0.75431461633343 3.250996425284956 0.5993992231080516
Ni 7.105349206635924 6.116119944057476 11.594268395415831 0.4664953011567579 -0.566216822818812 -1.3855947473104782
Ni 0.3994266473592222 0.12692456598256632 0.7561403890731281 0.661315500996874 0.7580990230765265 -1.605227892429216
Ni 4.576959187672185 0.3403077423117043 1.493543500102422 -0.15462408723720467 0.6554533857891421 0.13821402131029745
Ni 6.2089811831432815 5.776284623438611 0.5676405065921755 0.16615779890841706 -1.0153782606828128 0.9821624360524761
Ni 8.391759823554588 8.897695347041706 10.927928025399668 -1.472486978418348 0.5624385867233024 -0.6260811032746121
Ni 0.05316330873548225 4.924157395327245 5.547593533446291 0.6376346124401663 -0.1582773677190758 0.7016530242736561
Ni 7.969917174911896 8.616989812584205 2.4574941216962576 -1.0756593169610569 0.012552382743713866 0.7750960718551554
P 8.586395747485533 1.2847059090826984 3.6035274888800175 0.02964044857425218 1.2924915022958903 0.18185232682553842
P 1.4613879951667632 3.365827743382204 1.6003516068610981 1.205494627289356 0.07077887048577489 0.21316039291020064
P 4.8978160322236155 1.1396878642922212 8.252850617429486 -0.9620093581433691 -0.9909823483369513 -0.6335912956087282
P 8.515858926974989 1.2860569807186506 12.457463529828159 0.30262475562062074 1.089774930426833 -0.016784932767822704
P 6.281458468956468 7.753863591892907 1.5123360904749765 -0.27051090580521153 -0.08994130234683866 -0.31702576153729917
P 1.7272770796031516 3.2329874785050396 5.86506997862938 -0.20702085567136602 0.06836409039669517 0.1999194687398944
P 7.082707422240137 4.114593457545803 6.065746734264159 -0.2844707104194133 -0.2015775731686077 0.22202272839683698
P 2.5278822336508973 8.143588819498403 10.175164408656933 -0.12367751825701925 1.4588778722753455 1.0562950535018325
