# total energy = -340892.58302810916 ev
CRYSTAL
PRIMVEC
9.08072631541970 0.00000000000000 0.00000000000000

0.00000000000000 9.08072631541970 0.00000000000000

0.00000000000000 0.00000000000000 13.29056085650263

PRIMCOORD
 96 1
Ni 6.605738100110968 1.758355538078548 11.543622813782061 -0.24358528505896115 0.13750439683778254 -0.46716533064058896
Ni 4.629926406821782 0.44358167991973374 5.738891049456482 -0.10431736856285259 -0.6466023631564154 0.43356204076384686
Ni 2.553799928941128 1.5319548673593926 4.838189234620416 0.6189414069060372 0.06509030474142985 -0.9371249361968635
Ni 3.6439956181701874 4.389641305430014 4.96327987313416 -0.812975106289116 -1.002322455940119 0.573308953778903
Ni 5.39127267003514 4.411344241536977 2.8339466950311105 -0.7493888968970384 -0.15009920278365763 -0.0015382910213973507
Ni 7.161142569194704 5.997147816475568 2.4615978653195167 0.9900896613193529 0.0045853053778372645 1.1569126046155946
Ni 4.581798556877473 4.795667825158299 11.170836293057764 0.46831975596000636 -0.1965569800255647 0.8578565401828389
Ni 5.449407480477303 7.823590641135707 12.827651148480225 0.7727167729897015 -0.24801118204079867 -0.4857968296988472
Ni 1.6744587068265715 6.568071246984743 0.47847073883879626 1.2459198251839383 -0.026017507109684222 -0.9737027353208972
Ni 2.967381613038029 1.5102882541580487 0.6872775021490648 -0.5675797646046096 0.5896241459991587 -0.5967633281471012
Ni 0.45807179504353274 9.059141517922987 4.620623202620283 0.4575267791095604 -0.32272846834903124 0.502929632724392
Ni 8.687848776692245 2.3694521022016137 1.0960182509996805 0.7661267784770096 -0.16908320008532818 0.8945330696682657
Ni 7.0041912940178275 0.42956557871425416 4.8150905908650685 -0.05956217583434902 0.3962165102358531 -0.5069030155498431
Ni 0.7268122606967139 7.411189451471403 2.6385621534194614 -0.2872367032003247 0.29046600877089973 -0.20120913408559538
Ni 7.565925029405559 3.82364870935853 3.973106569106342 1.5775692501716831 0.29565218095752954 -0.339829389695376
Ni 7.274006917677312 3.7982862405105196 12.937324529704261 1.2692237900172012 -0.5379105196749511 -2.3366959431817755
Ni 8.004778375086426 8.936079513688027 7.1459623188641554 -0.2461499604623438 0.09279985484155631 -0.7664864758092735
Ni 6.915227417432091 0.6302859551612384 0.3541083745827006 -0.2382510173302413 0.4561846632593692 -0.050937410279815507
Ni 1.5749521068851107 6.7883515081072066 9.043124024617935 1.0517624557388017 -0.9074014409905018 0.570765618531759
Ni 9.088081792974403 4.96678503352633 1.0965585542207532 -0.08794046986672596 -0.8755637276546148 0.14881776496807272
Ni 6.389362551342476 2.0583373348540692 7.041299682470171 0.7097232028763003 -0.41528843926563963 0.2598310574938622
Ni 3.5331925945814207 4.323134065242821 0.271194986000341 -0.2866517772311321 0.0163172491027848 0.770208404745551
Ni 6.027486523393292 5.503119977160433 4.950880141228696 -0.08013974287538456 1.0136571642266479 -0.36655086485062033
Ni 5.277073454771058 2.8921568755024327 9.458905968722668 -1.0777820197310146 -0.605602523705286 -0.51073190237763
P 0.10051002020916776 5.67347440451048 12.2004426514975 0.346675466082932 0.3726292098342164 0.175839030751923
P 3.794154509996433 6.282128253230712 12.685375235245802 0.6694964941457695 0.18924373419360313 0.0698203632272475
P 2.4933949368978174 8.443232168805489 1.3888108366806904 -0.13127435676767069 0.26896413014338194 0.16515146913108977
P 6.245460280008992 7.812621123638967 5.831752373815066 0.7051780067077791 -1.5700014651267542 0.9644701609790356
P 4.796548655619544 1.0921298839532363 12.662834148091695 0.4278261667213342 -0.9172978741686073 0.5975035487472354
P 3.9313461245169288 6.337575168657118 8.211998735493813 0.261398144870666 -0.9019206203815886 -0.30679405650696195
P 4.756720589609027 0.9540211160658775 3.597714787976571 -0.09739852995583226 1.1816738707206746 0.30107026664930725
P 0.10693826643097466 5.5032289458772885 3.4990990072954 -0.29228583558845794 -0.17768354015982948 0.6292427888320453
Ni 1.4046975675255147 0.878110783686735 2.5319053895070294 0.07354666303889915 1.8441535672289786 0.14573501227769095
Ni 1.781357018061366 6.478353670107426 4.697376226409772 0.6651119919248287 -0.07042688646299484 0.505723136309129
Ni 5.854117294876923 5.5834026793033855 9.371041768104526 0.7809792701088099 -0.43113723337243814 -0.8557793459388358
Ni 8.732398820433147 2.396104034199076 10.400302150868248 0.3458200600611722 0.6182690634293609 -0.178518377356299
Ni 2.28659047375976 5.326853996921002 7.0137078952898335 0.14529149698236915 0.1752589898787369 -0.9068617664369479
Ni 0.7871564118731139 8.978341214374973 8.91613188199507 -0.5579023894158457 1.1444741217419256 0.5690483787303361
Ni 1.5169989109710385 1.201815978194239 11.438415333803801 0.683623677575771 -0.24610779437049876 -0.2997746877663353
Ni 4.027710793122402 6.899417872761706 1.6871971498269256 0.40301990631093176 -0.9250379231253424 -0.3872359040037976
Ni 5.742406198647697 7.843168687263996 8.191039510879387 -0.42660257872687823 0.12663171578933677 -0.640723021557503
Ni 5.479546411414127 2.8335589480136347 4.91103482183801 -0.39099125728117173 -0.6067929444689614 -0.2605967320152931
Ni 0.8447790693460591 7.449555520530781 6.824557272354934 -0.43230914219335226 0.48356382660327046 -0.1109562140356089
Ni 5.0947052263877435 4.633177306874625 6.970473648804957 -0.08009886233512012 0.038299666911146946 1.0183967357941623
Ni 8.012951028850553 7.368782459161983 9.136821683878383 0.5752773903591835 -0.7975870538688199 0.29839323403777646
Ni 4.53659470083544 0.6520660774426396 10.367567948324995 0.9729951677309114 -0.9261792358186373 0.31969662350124295
Ni 8.271188726344189 6.990098006637909 4.921627489188961 -0.6852879526520714 0.067000120169633 -0.10299813553079681
Ni 7.1526520900064146 5.953996204600972 7.184624419604324 0.8013195243280586 0.17275704939248956 -0.36401472869232787
Ni 2.080330854205978 5.186465966706091 2.5831669981335614 1.4630572004640159 1.1815633132847394 -1.3486081427838
Ni 2.352325852202563 5.66270466299464 11.208474995932136 -1.0408193264637364 -0.9963999198080968 -0.01641932189828785
Ni 1.2758329791180252 3.4816049878769637 3.785218167141679 -1.1532058451879688 -1.5650567195269691 1.0304963472711737
Ni 3.585942534265665 2.9553314890991422 2.799589766679357 -0.5558681325946362 -0.9669561606256831 -0.08473353289365407
Ni 1.0813419809845874 3.411774201825692 8.132733074708176 -0.448990202393459 0.5096762074196061 0.3325642234925305
Ni 3.9228647260550447 2.5857459244324636 7.084719175773702 -0.6271259995993587 -0.1208315641677919 -0.5402931609745146
Ni 4.011973894263254 6.945666012340266 6.03605418875602 0.8262108882530997 -0.056321043189232034 -0.7250822018308739
Ni 1.04086010267294 7.673958431440927 11.49024812012118 0.18761699722345754 -0.2438321109624446 -0.5394477822550838
P 0.19717889314919534 5.491632858258631 7.7143331571810005 -0.38436501021390573 1.191120617955871 2.6072114769726773
P 8.69179889267824 1.80302363126271 8.167781046339318 -0.41564402283284546 -1.3787885230219221 -0.2527780073018227
P 1.8594785073200253 3.2761717144259994 10.436027544689173 -0.4246032889086623 1.1126081262712644 -0.29280185599292796
P 3.968304680983596 5.953687459903216 3.70046411531711 -0.04195346161365033 1.6053852439426868 -0.45960114514008593
P 6.586069246718633 3.831458134066475 10.828166001454282 0.6152696144814048 1.2780670993404442 -0.3715884272745278
P 6.421099690126507 8.043598480466033 10.50250663462451 -1.0658155913977578 -0.8844646296886702 -0.21619378041988574
P 2.4411898407978487 8.542865898916613 5.7476494100737066 -0.7855663752588601 0.38793241585018995 -0.11276035712388323
P 7.147339865059732 3.9117226747566165 1.694307358601717 -0.8240779010704968 -0.05683603515243759 0.5031674597668109
Ni 5.271461565853023 2.6820742701323192 0.8365374020612563 0.051563988120220866 0.20076047658395105 -0.1044675209874717
Ni 1.478623761185255 1.2277142099001201 6.978793410336839 0.2781429684291726 -0.2702285986781024 0.27902459970317756
Ni 7.0648414656740615 0.7090494517767019 9.276545912993118 -0.6346629314063521 0.4638360091570399 0.026498046290528557
Ni 2.843511424153062 1.8812904121438425 9.155695065637675 -0.18000807452794806 -1.3493427069569794 0.04749084649211176
Ni 6.667977398888005 1.9525650336934433 2.798806099990641 -1.5134513366458517 0.09984159217968612 -0.8807684117840057
Ni 4.232417608461001 7.1511810123288715 10.221996639478347 -0.15282071547987877 0.8158544847194401 1.01318151014181
Ni 8.36786213964742 7.231145889047662 0.5083463287098864 -0.9233906173299065 -0.028253852639370695 -0.6127087957327642
Ni 7.413432390893336 3.612848726602455 8.6971038530438 0.638887253900345 0.6834778960265261 -0.4868988045137743
Ni 3.1560246233669127 8.485875260001428 12.507733524956073 -0.0020959632970802616 0.20918392476095585 -0.3526131717236056
Ni 0.14576472831906598 4.931651703066984 10.024485391742742 0.07734006864306035 0.2275662839228855 0.1801777673365929
Ni 8.567674443453946 2.012597715954166 5.7842510939926735 0.22672321919629987 1.0035087629387363 -0.17797664592021606
Ni 3.593652070983159 2.612924538561392 11.702564584186822 0.3026448102252788 0.5878709107534779 -0.3118051365683082
Ni 1.438550515561814 3.568652831191332 12.647231643983336 -1.2934543804297916 0.011640669562721886 -0.8764417593841938
Ni 3.2025815076432287 8.460431064615776 7.898779963838325 0.13897455362540584 0.2105895468592309 0.3692512945009189
Ni 5.524895559078632 7.74422509235962 3.6970352330267375 -0.33909122597777086 0.02664382783977347 -0.30145901744729375
Ni 2.968080828971182 8.387394782143685 3.51531355236343 1.1454174594918016 -0.30224268969085366 0.8258558189065262
Ni 3.313520742128064 4.356814479477434 8.94006867679756 0.2715231491198098 0.08094835481960898 0.9376412137116497
Ni 7.0448366254047565 6.10794175933793 11.580664004859011 0.4948401708480381 -0.38283391828136004 -0.1111027669158022
Ni 0.7789147445883109 0.03385113189101825 0.2833268364768688 -0.37469457700367725 -0.11648460005300583 -0.30923506184828675
Ni 4.811540934913516 0.14796952869009963 1.5521113557596538 -0.23431208728715128 0.210097951934793 0.40626129606636485
Ni 5.74688299676516 5.375472206091159 0.4085382486517932 -0.5543750929888775 0.8177905253998884 0.06756781974764492
Ni 8.061832579086444 8.65751006977452 11.729690530102603 -0.4083258919048774 -0.28757454615571765 -0.4953880729317081
Ni 0.10233343007120876 4.688351800508893 5.777088217004736 0.5999417258750829 -0.3276742423900808 -0.8581748427542059
Ni 8.128775694141057 0.10178495419637174 2.256271744440126 0.8069957487772295 -1.5304656118156608 0.32334039090141736
P 8.652306813544692 1.7163844206365482 3.4912578000450396 0.8627262095703142 0.6576521932126739 1.7722356980427543
P 1.7183276960871299 3.2829277748710113 1.472355335748169 0.7785547198277172 -0.4242340784947016 0.7796415251339928
P 4.919065816270227 0.8715962705640845 8.093393551778226 -0.07650805966006824 0.7931891819114404 0.6375425669469923
P 8.708716285969986 1.5070464348316113 12.416906283312118 -0.8592984148356879 0.6963411251424394 0.1336019764595828
P 6.559081327844201 7.834033476500982 1.59959901449244 -0.9575153269277574 0.08607616296447756 -0.5199716758083432
P 2.0020459118720364 3.2706415520456056 6.086399552088329 -0.10734612808684739 -0.29154047278200107 -0.5706987698495655
P 7.218868746948661 3.8751182666197277 6.151549223678036 -1.9304935253778044 0.4630556793475897 0.4023591327984813
P 2.6040708303169198 8.761284611126138 10.144246551929633 -1.306319152207602 -0.3995728283025957 0.2817785082992309
