# total energy = -340857.03249252465 ev
CRYSTAL
PRIMVEC
9.35701237924860 0.00000000000000 0.00000000000000

0.00000000000000 9.35701237924860 0.00000000000000

0.00000000000000 0.00000000000000 13.69493343833266

PRIMCOORD
 96 1
Ni 5.758792039273651 4.965308024724271 3.372679003080584 -0.8630046600426814 2.2402371514313932 -0.979150902919662
Ni 2.8212515441423163 5.054386783447753 13.226594685603468 -0.7734022290925003 -1.3591545508410785 0.08211640698578115
Ni 7.747494041800353 6.094736858018316 11.049154255927643 0.17029264701239705 -0.861484109633097 1.3060612705605248
Ni 8.350899705014772 5.8900522102161945 4.650553096421328 -1.296850036374902 -1.5628041760473668 -1.3658252779930349
Ni 0.5974527318803968 6.972986048542069 5.7319729701294015 0.8797124597156657 1.6744036800939293 0.26231448603734825
Ni 2.170228044463213 2.3954045495767233 0.16194087913355573 -0.8848451529565406 1.5358723846535292 3.383813186839082
Ni 1.504673104416718 -0.030618016207456043 12.0297803912986 1.7410160779068404 -1.7451056745951818 1.4944969070305358
Ni 4.668260306821361 6.049692199983143 0.47594537503632806 1.8551306350657726 1.038976873938359 -0.6314824767958416
Ni 4.877062040110703 8.529609286197523 0.9932328382730726 0.5736745646484378 0.2765486273588592 0.20064914781706736
Ni 7.67047647215193 5.251576464260641 1.1596585334839566 -0.8340134150166539 1.0589137220716023 0.40610343033226187
Ni 6.627347364877495 6.509374151643705 8.979562751992036 -0.5757733561589955 -0.06574362205471258 0.2119604590648285
Ni 8.950104069629731 0.5839243632498914 10.86999740954878 -1.0331659236835367 0.44646820730255365 -0.6209165283545371
Ni 1.3098507477589822 1.9643550560772807 2.4881643570062804 -0.6033098710163673 0.1792269733875494 0.019833746896475518
Ni 8.684785981015827 7.863698779677133 8.111385449692017 -0.5639187708132546 0.20348533171428182 -0.041856531024469845
Ni 4.1147649481270125 4.280122072513714 1.7898187024565737 -1.6170734789138923 -0.40560437920865633 0.9888007673046004
Ni 3.765402173498999 6.121834766134199 8.982246343168706 2.1873171635039106 -2.0084869113341477 -1.2831745957703384
Ni 0.9276888373165332 3.027461384977203 12.09373557153757 -1.6482313925739356 2.018681335368646 0.031668020527242234
Ni 1.1264626603407526 0.16016304676407445 7.748456878383615 1.3211400192705183 0.6281279585013119 1.8208349471076963
Ni 4.118329969878446 8.592404196890097 12.532548578284164 -0.15260140038022108 1.3888032269454467 -0.11484192224326027
Ni 4.773292771807821 3.8104842595840562 11.785654064528911 -1.6910063216476168 -0.3024931151387629 1.905355592659596
Ni 7.516937254516043 8.807933622146054 2.0879565123123487 -0.4776325487204999 -3.356742812984851 0.6392767760292796
Ni 4.447743593918386 3.6704659249686986 9.294176389406667 0.5685357007599756 -0.0430279256247517 -0.671506839707579
Ni 4.612483155482004 9.158400524245641 4.492923928634387 0.21943954105069305 -0.33352427341295465 1.1188564211738214
Ni 6.8454031835006095 0.6349696733826873 6.377333605861083 0.15874273739126854 -0.5033721195784492 -1.272556711045176
P 7.9082943011137 7.444233267616731 6.064582013928172 0.47712809828025565 0.18852588219097208 2.4746502830727835
P 4.633218295117638 0.6262929157183716 2.5323986977614688 0.4031556605578477 -0.11611744652157423 -0.11391015445761028
P 7.526893115785139 4.127069419526317 3.180059287158511 2.0273822055767536 -2.019619016691567 -0.8847294533142827
P 4.438452080534729 4.203665923613548 4.698402986795292 -1.4149390048005503 -2.3264814645426193 1.0440833419269888
P 7.204413037986177 8.917756877517643 9.991358031604985 1.1605939101219238 0.10305778512413864 -2.1882232202579477
P 5.292185898384582 1.365571757023514 7.704057854208937 1.3547569359940153 0.46106538839043826 0.6126316626379256
P 6.3466369907488716 4.299528516378473 8.062220899065883 -2.033483690488801 0.06062944075659881 0.9559155865408053
P 1.526521728536396 7.168117186611346 3.6458513679626066 -0.8565799874632601 1.638161409932443 0.23680811423612763
Ni 4.4590842930331815 5.058812650346515 6.6824423900077194 1.7540456573972887 -1.606827375705852 1.8442543544729013
Ni 0.6817032721688676 6.578447617704288 1.7079223865057949 -0.36245535462500805 -0.5822527932357521 0.16076439580698765
Ni 2.828709083081667 5.551683925241552 4.052152499177623 0.5685986927874273 0.09448675562567599 -1.4818002853994738
Ni 5.494933644605216 2.531792363353351 2.8797160294633315 0.31980203873085566 2.712360597408206 -0.9131172604283565
Ni 2.1919175993708846 2.951173662301514 10.347974362300484 1.4080497338798847 -0.2588188141792639 -0.5969685021793719
Ni 3.819457634543701 9.337577956051941 8.2992667744988 -0.5584436066312963 -1.896781992057972 -0.7806283145272943
Ni 3.9001337960682676 1.205548129745257 10.275144055732813 0.34840016208352254 -0.08213980402454885 -0.26937782064203286
Ni 3.5059509317043833 1.7004685903714327 12.456157928471294 2.127367522423156 -1.0135005840441254 -1.1861681590466022
Ni 3.2496623601249506 2.302377131590498 7.827229823571589 -0.47630971614401846 -0.4277647173557794 0.018082311423007567
Ni 5.767428561784341 3.558237917392075 0.3918829106985234 -2.385357670053537 -0.11433181537606116 2.59033655559421
Ni -0.14139942965607016 9.156594620838746 3.80090548591754 0.8374823474018609 -1.3885787696394667 -0.9895600140681281
Ni 6.356751921229972 1.915923159527622 10.444262699132837 -0.05048721011627434 -2.2920500223376266 0.5466622977256521
Ni 1.8850169473360607 4.234768633067 8.38269576909232 0.1000195125184471 1.7473427914558166 1.2361658311209678
Ni 2.5314835819418096 7.510059850349893 0.1804050718424895 0.17553641190983962 -0.5206360488652195 1.0293020698527564
Ni 9.240115314154483 0.23817807394190146 5.964115771027537 -2.8989036448411944 -2.510359049328302 1.4460514099346387
Ni 7.160743860784234 7.49972970858196 0.09361971687563718 -1.425197963524397 -1.3685758441549787 0.12490393446495263
Ni 6.573132834620787 1.164536344085065 0.9550599701965682 -1.0986501214292757 1.2501914559760985 -1.084644551178803
Ni 0.284531778021761 7.143049750201659 12.991849699537157 0.36911734002621593 -1.8371354840399328 1.045426743328761
Ni 2.453895234532658 9.181961481647503 3.16703526150019 0.3050827302428101 0.08133736272791153 -0.49987104840372626
Ni 0.06915019356284509 2.27768397567965 8.92108516685356 2.7623736961015397 0.4793186781736713 2.0851523225076862
Ni 0.7353629315860483 5.165127026041496 10.424405247266979 1.3467181248499387 -1.3225595253258642 1.8680134045657117
Ni 1.824842000135355 3.7440868990901657 4.793309292885686 -0.13311680929304817 -0.5367830909387271 -0.86130593218402
Ni 4.235227126678076 7.744200373410578 10.497056834896455 -1.1316494591734316 0.5376469816009193 -1.955174573064252
Ni 0.14723446263295717 1.2878056263774145 13.283866151834436 -1.286510859232423 -0.7937285993546782 1.5428737556720264
P 3.1675732897172697 1.1229444236516741 6.020306502318111 -0.18487183037815255 -0.18988111066728586 -0.6729561705595958
P 8.27183294963521 3.8915253445949896 5.477357432379775 0.10630508841684273 0.9081483464588553 -0.6075609329832374
P 5.75398253486358 0.9960539775330652 12.621798570335866 -1.468978193934141 0.44029447439167396 -0.758391614616281
P 0.3264446439829058 6.04368499797679 8.596419290941384 0.5291032057959661 0.12635377953760177 -0.4025190554151132
P 3.7357591579910165 7.200221096399189 7.095906314269251 0.290066716449952 1.3334113804387036 -0.7405193623215505
P 8.587940901941451 1.1899593469686474 1.8120041790252057 1.7341715441811811 1.159958333420454 -0.07839422093918756
P 8.423191983365363 2.82884008125626 10.903495514194795 -0.1605327394121558 0.11534148758749813 -0.6655359668361247
P 6.090610415518625 6.888866506428191 2.499284230626762 0.6764297309304931 1.6313083915663518 -0.917508961738149
Ni 6.62946204969593 0.8709993772612578 3.7080399442470617 -1.3428046487281455 -1.4237190649860252 0.5803185523275166
Ni 6.00229893181776 7.994425600908833 7.006519709835474 -1.0081979408842896 -0.8912991361120005 0.32005400684066165
Ni 7.86838664292508 0.8591926989254078 8.377670117694171 -1.1713568050653826 -1.5605809431438025 1.0280615125774357
Ni 7.234486476067824 3.4597179330853995 12.690807473010398 2.2068938000842575 -0.08978780748810988 -3.0758071123018897
Ni 8.788396180106702 2.388358719186095 6.804656201293345 -0.05226641350388418 0.003723471598174233 -1.1665318728729135
Ni 2.401262039383541 6.769059318750094 11.636872887734507 0.07113496827361297 0.26517175298048523 -0.7662764166809964
Ni 0.19232309862674374 7.374018246034692 10.743401709323004 0.4292343599227704 2.311416085569064 -1.900666671824359
Ni 6.44076853620667 4.146241938079302 10.49282559385709 1.005953624934803 1.9448482514375793 -0.8877016485687291
Ni 4.77857948385391 6.771454713942659 5.112975717034633 -0.11627479803504492 0.19725426320290546 -0.5011177763266338
Ni 8.25026503588966 4.296843053799309 9.183261170679717 0.8810741159498825 -0.4171679156765396 0.48084334234831383
Ni 7.9664949186830345 5.341768707468167 7.246194905772728 0.8946346282431367 1.9908085202177779 -2.8761876913009177
Ni 8.389207314070857 1.9622123002214322 3.8910041590003575 1.9434030343506208 3.3683233187335992 0.5193031889864088
Ni 0.2556953369887746 4.44876350827772 2.8524216240855584 0.8276129108069489 -0.351986079662568 -0.03422858216556686
Ni 6.863930068193098 8.125489274589487 4.552483184414505 -1.226734767615055 -0.23541663320523973 -2.321789201273272
Ni 3.556563012159774 1.9171863562112008 3.989608356419272 -1.0525096183174711 1.4096553878041078 0.6916450052183508
Ni 3.91702320357834 7.192417347998413 2.703954842910177 0.12109278824897857 0.03849147120697887 0.10984883990404307
Ni 6.491156048362758 2.7007238665039566 5.67292086442521 -1.2365373555277737 1.35745762275463 -0.504947434485369
Ni 8.657267007338751 3.211757102605115 0.7732036257198337 0.8982277449110336 -1.0162902309741206 1.1561502725282733
Ni 2.3263030124787276 5.6758046956687584 6.316678643920618 -0.7182651789090404 -0.21520441992342293 0.9205572616461694
Ni 0.8069337842751292 8.902242950840801 1.497102345626469 -1.2199120882662668 0.39257454260789165 -0.7442644311862795
Ni 6.186126798822125 7.94212925820867 11.39922442069846 0.40434119622551656 -0.45886041031931946 2.417015406168134
Ni 1.1991666472400662 1.5237333388200514 4.961743002972837 2.3260531187559486 0.7568270983426385 -0.8204919834914514
Ni 2.152234509481568 7.522214609549662 8.946407114002456 -2.198231753533885 1.3696839896174926 -0.029411106172265476
Ni 2.5249711012620253 8.533763799734627 5.451788460101646 -0.4910135980130963 -1.2015541545843693 1.3235895092522754
P 6.079569140802899 5.734445092824227 12.43830007017048 -0.291750274799962 -0.556697570474467 0.24106766084342998
P 3.3626763567491342 5.003007427969745 10.667052230365007 -1.5923425518261156 -0.6104516242674712 1.5431501492618651
P 1.7357632414118718 0.6078642796568274 10.0884005436425 0.5008220994630859 0.2437094693416513 -2.622744282500954
P 2.608987716238722 0.2654350512697908 0.6167824482428939 0.650434592418312 0.6219974201235416 -0.48515585368073866
P 8.4286564786484 8.799746236233968 12.864664507525715 0.5721401302817823 1.6043825137097854 -0.9935760772060566
P 2.079839303993796 4.906096849808073 1.6176318946673232 -0.07885804794948355 -0.4330393354911575 -5.3478945754746604e-05
P 1.4674602658197333 3.1717278032543734 6.73668873410683 -0.15184421049922237 -1.0848893201997574 -0.479240002416936
P 8.987981256112153 4.847082172153765 12.953215530745835 0.30045371611123095 0.664400824790417 -0.22545515111715367
