# total energy = -340854.5928739998 ev
CRYSTAL
PRIMVEC
9.32751897541535 0.00000000000000 0.00000000000000
0.00000000000000 9.32751897541535 0.00000000000000
0.00000000000000 0.00000000000000 13.65176686058412
PRIMCOORD
 96 1
Ni 5.720372273474735 1.9765640661656685 1.0518337968180103 -0.19079025274511657 0.9300477176351079 2.0798545644438566
Ni 5.546832489033755 0.17763323531829384 9.333061428221185 1.2497955060892605 0.297222610768443 1.0336194662811875
Ni 2.073389201252221 2.917006239282099 8.548409798987107 -2.439111466736225 1.0501470316225656 1.6210172940529888
Ni 6.864388518547115 1.561651509695195 7.130300401948247 -0.23270206248755407 0.09096460140503043 1.4377179503682787
Ni 8.313883229663434 5.308407752727831 6.050747558409639 0.36301508378321995 -0.7127869294032886 -1.7647296194736963
Ni 2.2989421000517285 0.0530392936724967 13.331679441723992 0.953731691515609 -0.7014239389819856 -0.1147755877816991
Ni 1.6904637712473616 7.82216213735052 8.557396613619595 -1.715745733375826 -0.7361495153886289 0.03021509013079958
Ni 4.39719244332947 8.201050448370873 11.062547240480885 1.2255232638054572 -0.772677949331966 -0.7932660578959629
Ni 1.728196750779297 6.4547242167564995 10.309540990896057 0.2361851359401481 0.41122892448428533 0.40632608786602925
Ni 5.383704716113281 6.565435163419995 9.191540691651744 0.2771523223811292 0.8981225867917372 0.22946478649717902
Ni 3.818748402040072 4.6028977385632865 9.031702701271204 -0.31506066739112837 -0.39832044395273336 -0.5294929850352171
Ni 9.018754815709498 5.154743737798945 3.5637076350858226 -2.55176743707176 -0.22278428915320986 0.06554359022876455
Ni 3.5786994294915444 5.617876394512272 5.407190421089429 1.9274372550499836 0.18210969425198315 0.38388807057748725
Ni 8.334603977567633 0.08790779645519287 3.2997927172847 -1.731658033730708 -0.511569824897893 -1.4858783121235892
Ni 3.7764994824347693 8.162434935851627 8.153843383333669 1.1089036808364838 -0.19059947689054918 1.0067745781742015
Ni 3.7927230675632058 4.786380102084714 3.07805067103359 -0.28366441246803403 2.917230211064524 1.8614866591907875
Ni 0.09081264439427743 7.8587403130799105 11.701666363512777 1.216407417547118 0.20137856978392416 2.6358301691506343
Ni 5.6001318482780444 0.9349216476213373 3.284554001415508 -1.3884301598767443 -0.6693658821051762 1.1250332394084945
Ni 5.82040832645129 7.547027784231989 0.625035210965245 -1.1517778544921906 -1.4946185202100648 -1.5939618325970935
Ni 8.74555452424401 7.636304445682394 9.706521222504698 -0.8504018836770064 -0.855913814634171 -2.801170100143447
Ni 3.5835345836241514 2.2358222141614066 9.9366595373787 1.125979662482164 -1.04947597369747 0.4032140245996088
Ni 2.0410640834297635 0.5633330110439011 8.612993375225534 0.6146828887399994 1.5656159344645488 0.7436805336583515
Ni 7.32059235244517 2.264861304903451 2.8650616620598193 1.3201869113286295 2.057267166061644 -0.39301522968973607
Ni 6.723962498427891 4.832008935258441 2.9762551852716945 -0.40090028886476764 -0.24111599758286215 0.6886298725411107
P 1.549549541390476 4.245143275994386 0.45033217293779887 -0.03658834064699505 0.23055004914155777 -0.04973644799317886
P 4.222422745895535 0.5407730268395496 5.280647395952507 -1.193142019261274 2.168671009157633 0.1743868716864287
P 5.582819179888672 3.8248604124096386 8.130249708896306 0.8972237291265516 -1.4468656783058178 -0.2831028835376092
P 8.155149344381911 4.2519688236728435 1.2478284125967687 -0.7130700078613461 1.3106218933480136 0.6559745483999347
P 4.042864837572999 1.2564640917640926 13.769406414781328 -2.0518277402136276 1.829991416795984 -1.5362757907395348
P 7.01071999876228 6.80722103599674 10.839898250755581 -0.13155872077730893 -0.6712080775202376 0.17242486286405143
P 8.068135347292591 0.30807912176186547 8.621622482338696 -1.1931286495248354 -1.5122128362530602 -0.1868443807234911
P 7.4441563593174775 7.2891497676100245 4.776962348472253 1.6919545444934991 -0.5308476992908987 -1.0892378269764402
Ni 4.787619403726469 3.391151781039206 5.9896124328758855 1.3480594693691814 -0.3693448826559897 0.2090718246631238
Ni 8.38755595680628 2.1629287448690584 0.7079266523659682 0.7105102175539699 1.539551119056697 0.5060802625382316
Ni 1.3707615022696373 9.217822336240882 1.6619476282435426 -2.592066393801123 0.4207474054976818 -0.7133073206831327
Ni 2.3745207229012144 9.17540442095716 6.418847373092556 -0.002742081521511407 0.51077972489643 -0.6479475643304002
Ni 1.7920395626273098 6.106048577578339 6.857962927307589 2.0526507503355553 -0.6695337751416082 -1.260195361266346
Ni 7.462680163402203 1.3188141084527178 5.0029781076576585 -1.252773357770662 -0.8397143220561731 0.5633580132137781
Ni 7.422121200581112 2.0658501162648744 9.5871924351066 -0.7791185627509872 0.566930818166701 -0.005004395193126864
Ni 6.104921939722198 2.7452409094645414 12.716181220210983 -0.4173435220224554 1.9927656439441486 -1.1423010253500068
Ni 9.21978456384033 2.7168778014361816 4.9182906177412695 0.31895666001142486 1.0497652228031147 -0.2284574282785872
Ni -0.07361921184467958 6.7423642500782 7.629093024538209 -3.1162148266949754 0.9957476309360785 0.11655067740425089
Ni 1.7210801549880042 5.842584314919674 3.8932360638988603 2.1744917296044677 2.815966798836647 0.9027785975065097
Ni 3.233093878471369 5.617200411798586 0.4317135435001822 -0.5483484271788234 0.10664653091666151 1.5859204503498558
Ni 6.325189029246642 7.942881383636071 2.669647264776974 0.658086452536615 0.076741515827113 2.2527301416920817
Ni 4.132310494701826 9.228853998582267 1.600207873726994 1.3665459582091433 -0.20401163653139706 -0.5565746717433575
Ni 7.417107662121284 0.10173727613932854 1.0475084463153075 1.2841179335202144 -1.1610574800219036 1.4253172627110808
Ni 1.2186560030417473 5.973659240832924 12.681705162948177 -0.08412572410632609 -0.838038477015647 0.39995360868078217
Ni 9.258775622311623 3.235422263374062 7.416942421902383 -2.599314333612788 2.653974444159829 0.5231145923126991
Ni 1.570392341729092 2.066460378436951 0.7774101644137288 -0.6977955982007789 0.08292399048874106 -0.46765564001344617
Ni 6.171036804580095 4.565812575798632 10.253325517334124 -0.25703498280596376 -0.8138096863752693 0.35332228197548826
Ni 9.139774498756687 9.070505047901593 6.869834873716679 -0.15265385088471128 0.18423856766952787 0.6936383814992958
Ni 5.732577516916266 8.5287518461272 5.29453977958361 0.22842271838590983 -0.060742826406011516 -0.351908175236781
Ni 9.013788220493675 5.0365782039873155 10.432704102464557 0.5997226678857414 1.4564301820658014 0.36458525648381723
Ni 5.827327760617758 0.16199080755065065 13.323558260510971 -2.0937747740693746 -0.968081532479378 -2.6394664803516417
Ni 0.48327506385137337 0.4453693331814961 4.850079267606069 1.7073330838320984 0.24020711261534758 -0.22074411879472952
P 5.516638594489166 2.434946066585598 10.677476504224957 0.2189281486319133 -0.4905322875013035 -0.02702795065206958
P 1.1324400411005269 7.742020631183662 5.240082799942137 0.00821724570346972 -0.5086410812868725 0.078934923934006
P 2.7254402491428564 7.9894960249339215 2.429450890442268 -0.04128523190203212 -3.176313077538452 0.9014981881321895
P 0.44208424496596377 1.52137420633814 2.6464657520219843 -0.19328447992188003 0.9177853553279871 0.9475355900072263
P 0.7380200883683852 5.054341527519145 8.578186837524925 0.9903192608316558 -0.817721876945482 0.050710124760357835
P 1.29755820756685 4.252729304225738 5.017736124708231 0.046506885312287645 0.02874647600507307 0.6952530342845833
P 0.5737412671048874 7.563917963425308 0.30846030090319326 -0.8154011992321054 1.688623166127421 -1.785747873596576
P 2.5169653025126917 9.104416847371448 11.129948350224545 -1.3393912521712223 0.6230022072389723 -0.6136935282435365
Ni 0.19327941854545752 0.7584817095656732 12.872158598204479 -0.6215690743368715 -0.24981223980527942 -0.8605911655051824
Ni 6.177402308467295 5.4306385714703715 6.940011268045966 -0.36014444710364424 -1.615864546207456 -1.3584025031664024
Ni 2.189066743131539 1.8749131655953108 11.839971487867814 -0.2572951784458859 0.1542654183462053 -0.3111441059455416
Ni 1.0951577167110478 6.176397723045569 1.7626568473391422 1.7584260458531715 -2.475471750532814 -2.6713759274657285
Ni 4.433949003386083 0.8253523606520659 7.564193050835184 -0.784284680332959 2.007507321029697 -2.1379602103373374
Ni 3.490615126438889 7.943491645808147 4.47042296511378 -0.9700990771300392 -0.9661274940768007 0.8745661396280356
Ni 3.238548683424854 7.381524683164818 12.91137592311188 0.22048340893417512 0.5605495972307056 -0.9946515696584225
Ni 5.142914040309462 5.764771193655507 12.659594895021401 0.23865750874004057 0.045156284821664165 -0.9015465248716215
Ni 8.046832503162717 6.8532441924201155 1.1809577615103761 0.04370541130775054 -0.8216322677434816 -0.07034204005867241
Ni 3.717989423105826 3.745479386795676 12.920650969262566 0.13896015544770263 -1.1897929002833831 -0.8191136150866862
Ni 0.2856627838841721 3.515551377654819 12.556150762530018 -0.23531327485815606 -0.1544605650761469 -0.5417458342606412
Ni 2.5939897772775584 3.6717315504624204 6.62954179629932 0.6002024357356373 2.6636549046723865 0.8809723002646958
Ni 2.1934136875264842 4.261930180050893 10.884735620835368 -1.0687649038340692 -1.9062328530582264 0.12782470765617338
Ni 5.241823455429874 4.818714608555972 1.1784969966595873 1.3565173703285476 -0.20689307184425013 -0.9722042963984999
Ni 1.192320843154442 3.700150990383587 2.7717863750849925 0.7102839604757768 -1.3397092976322733 -0.6413737677676246
Ni 0.11858145095352256 7.520176248660619 3.075343923584211 -1.170642038386545 1.2908241418957962 2.775803853464516
Ni 3.3401056975072 3.321422286392855 1.536448620853312 -0.254657997933355 -1.7048303720149027 -1.991310656665177
Ni 7.3669159456301845 8.993227079619095 11.019358517130584 -0.9240873862866149 0.8152106804878542 0.9446708668649214
Ni 7.591407927115159 5.120522112918651 12.177181709129977 -0.5676494415002804 0.4993660837428496 1.836400148535805
Ni 0.20107763023971625 0.42442325770606726 10.16446101756609 0.7892337968081182 1.386989570775476 0.7927736916405766
Ni 7.10187438997292 7.567335431588938 6.892823919171244 0.754484566252391 0.49782162207386516 1.1358799523150116
Ni 2.339688835848843 2.293393408610232 5.008281755365444 0.11997924346982562 -1.460824197368439 -0.9076786059112885
Ni 2.7653889497918698 0.5498593611493301 3.5446205120730276 -0.08242905313019352 0.8941782574320085 -0.5029733414781338
Ni 7.7881658400414535 4.704266979669609 8.332081247634758 -0.12675435741013008 0.36531622111257084 1.5213636495143927
P 1.0492190581268823 1.836645033081708 6.948778388296506 3.0860125920799817 -4.994260675796025 -1.990964329069352
P 3.766350353080696 5.623885129745026 10.920889429638946 1.1095186887126633 1.3388464354113458 0.9741971584588125
P 4.875046501363042 3.1008923147019773 2.8589468350956118 3.013183781043714 -1.9335983895553732 0.8372216375413065
P 9.175779966909205 2.994753640004656 10.30819465865797 1.5357348306344003 -1.0155813778325542 0.8798387008808847
P 4.952887788573612 6.62109107351338 3.6931911850272736 0.4698372210457973 -1.4069369604316804 -0.04043959607228519
P 4.89821768660435 6.941075001955139 6.9373730577328345 -1.368726767910546 1.4243189033535533 -0.8874553368858782
P 7.532879090488613 1.2440804639953382 12.738387252355531 0.8874429955907038 -1.4023822511814623 -1.2340341294899457
P 7.157182920060661 3.536290902856622 4.917370530158754 -0.4073005359641566 0.4431417140324819 0.2098783797248192
