# total energy = -381172.70769931714 ev
CRYSTAL
PRIMVEC
9.21574564029517 0.00000000000000 0.00000000000000

0.00000000000000 9.21574564029517 0.00000000000000

0.00000000000000 0.00000000000000 13.48817528641241

PRIMCOORD
 96 1
Ni 9.150488746659388 4.648707688105617 12.916856083815144 2.215667689622146 -2.0970272195684014 -0.2897864662053719
Ni 4.568595212994647 1.6003694901496321 6.6364250964235145 -0.615849655354591 -0.8895574708305454 1.4264048393483046
Ni 2.532173511600255 0.0400848063663498 10.173536942138103 -0.5395403419688901 0.22389654838078213 -0.3823729194845415
Ni 2.305668920172964 8.734858627309936 3.6902167110094926 0.025985625430484275 0.16350030668091195 -0.9091063394967505
Ni 9.109349659014688 8.809450870902275 2.380716421590044 0.11006506967990722 -0.3262421379292446 0.995832220230085
Ni 4.209641928101939 0.8797442754593797 11.88640027215166 -0.5897218479192876 1.746200450321257 -1.4100531374631589
Ni 2.5435273099824838 5.000693869445595 0.3602370382325173 0.1625798517491716 0.4789129580948204 -0.8696905567032893
Ni 5.218738406558855 2.96788474026373 10.38628611192147 -0.0013475151668299375 -1.1786343125634025 -0.31857228008881266
Ni 1.835997669562643 4.18998474307816 11.326371402224586 0.71266994420945 0.18740256721980628 0.3916363470643384
Ni 4.666107015496565 4.143316208169389 3.6010460797054273 0.6347554911201584 0.9735613246470264 0.7809993247134678
Ni 1.6254639649830815 4.901007151019806 6.259700168024077 0.571813343069983 -0.7898305498518526 -0.23756478989649407
Ni 1.2393334467874564 6.60056570934146 3.5789255259255053 -0.938063903071365 -0.4525820335097754 0.1491612643504205
Ni 7.3050265065297415 4.314839662300918 9.267037514516964 -0.19810966922466527 -0.2741076220175344 0.5511473300801991
Ni 0.736587807367086 1.933131626501517 3.493923176284006 1.8383909537135885 -0.2900212079239973 -0.03884679766386858
Ni -0.21861314860691555 2.853756948733273 10.699615927438316 1.2861861289031526 0.3032899000084454 0.10923691735165703
Ni 8.5872684640864 5.548284247752138 6.237579614244154 0.1689037370846704 0.008242956735082577 -0.17684973140462446
Ni 8.022656603951955 3.349296796794013 3.451178705783638 -1.1486912451470668 -0.6323890477705109 -0.03687244754631714
Ni 8.337070191132558 1.8129214429805802 12.689486133891025 -0.3816491539446395 0.9994291935527239 -0.175815119492523
Ni 5.73676467349349 7.298363522576533 3.15589608456218 -2.0624350834158287 -1.8121533601732986 1.9379705504811398
Ni 5.132147262403478 8.45915117097784 -0.27527708102004284 -0.07524667644914138 -0.739486550181662 0.6358754636572146
Ni 8.629375205002312 1.8385872940313168 1.620105009009651 0.5872237640877823 -0.9138327984381424 -0.45559948017986046
Ni 3.1765384327735067 5.801413127755938 4.791849411005208 0.11979618092474206 -0.37835248547123873 -1.3376426449112317
Ni 6.754597678627641 4.640653126590952 5.017601076030041 -0.5211376710919864 -0.5693445698145163 0.14459087137091872
Ni 9.059888753237558 3.93762076994589 7.848432014831925 0.8090413184523485 0.579429207744028 0.34364619233830496
P 1.143775382318843 3.3773218786774204 0.8287507912155588 0.1455421795405945 -1.2369741859548762 0.2698316203499998
Ni 1.69321812545885 6.970504162798792 12.490279502031916 1.023081028643709 0.19566352167701784 -0.7031969717220083
P 8.017523433741808 7.321080335086431 11.925084285211112 0.31526609853371507 0.3525609783294315 -0.5688686586193622
Ni 3.9069876321029287 6.022121015301393 7.476684510544696 -1.5809458799533997 -0.06892253400332647 1.747727428488745
P 4.139021670794292 0.5949657608905722 4.619011791573915 -0.9434609057172203 -0.7190506509248132 -0.3599693549783607
P 6.0416399641435685 2.470750568241849 2.6279684207266794 0.8571741694038334 0.512525246832627 -1.3104036066896207
P 6.525254637604792 7.492419474309159 1.3111397705332464 0.9164478674634862 -0.04427748176113665 -1.2529913873187388
Ni 6.48078866585621 0.1206212057675662 2.6832564423455962 0.33768380410728294 1.5675748579631326 -1.1483220347331062
Ni 2.4088115431387966 4.179036437495297 2.615370496710034 -0.9551116025822712 -0.4809904094491394 0.06988541213722804
Ni 2.131177996009715 1.1375455384013213 1.5576010587111193 -1.475404409175459 -0.42574717270511836 -0.8238930387532004
Ni 0.8337927255458489 7.652939328385185 10.326384688135228 -2.2375840300792627 1.1477682191121652 -0.5330953576744948
Ni 7.315246768222835 4.23496679657139 11.529206273063469 -1.646948412096454 -1.2020298086692072 0.8395615985283928
Ni 1.859571546398472 7.473103271866665 1.4707915013888124 1.498083853050846 0.5650338582543043 -0.1508131981315467
Ni 6.208988685590724 5.352818286967173 7.651396612598508 0.2035439528663591 0.2470925268812712 -0.8099352910215276
Ni 7.330480395435354 9.072763149617408 13.49195177596227 1.0565791604011545 -0.5563093338971129 0.6488765039025728
Ni 7.254072649991313 5.708029979211193 -0.08945171153998935 -1.4496321853073615 0.9939589144667721 1.782994736331471
Ni 5.149555805539867 4.035759243137737 12.639903580274087 0.17416035749791942 -0.44537266024552974 -1.1135686904123208
Ni 2.7863806338205492 3.2166177096925925 4.71685536091168 -0.7806995340848619 -1.0963667247117375 0.5193101309649443
Ni 1.6341636286785555 1.374307254503467 12.210318979179203 -0.31921634143071476 1.1932613184479577 -1.8281880450386578
Ni 2.4740682366002926 6.306620292783364 10.069853354914937 2.373800047122925 -1.9452933093947984 -0.19852798770900648
Ni 9.017330440795082 5.5427824477243846 10.772641494305834 0.5407312769531978 0.3389508437451646 -0.019193027988683078
Ni 5.045519255266343 5.113724987268677 9.953476921497089 -1.207102080985792 1.0895605004231814 -0.4691214259256952
Ni 2.094563839376115 2.33667990357897 9.828198999558628 0.11010517888922329 0.4773659253226746 -0.5151896810386676
Ni 3.865148147804779 7.835263636172535 11.38786346367379 0.2897496994301655 -1.302180190338564 -0.3279097554396546
Ni 7.868698360629295 2.018349624586315 8.936023605075071 -0.793432151160182 -1.0841053908458813 0.4462023552356767
Ni 5.2267008106191195 6.261629023544694 5.729844570242504 1.9111061219901277 0.9366824493428062 -1.6665353330894461
Ni 8.668744869522508 0.19410203045982607 11.100066792473346 0.5506367089923678 -0.2535719639580278 -0.5406690562566947
Ni 1.8572676100384418 0.8625301845517779 5.462521599111829 0.45672433781292304 0.4787471219409174 0.03602424061340893
Ni 7.853621401089256 1.1518115123426285 4.29397429304994 0.6713008943443599 -0.4070022879974474 -0.11811442234694496
Ni 3.906001547340835 1.9732293349114831 2.6413625851493507 0.411608162200575 -0.1422272562347486 1.1553347186055136
Ni 4.666171525714647 6.432553454222616 0.8450930726045253 0.5199724471392915 -0.3715560313746956 -0.83822822442895
Ni 3.2840308875870767 2.5368551102838364 13.369263478492487 -0.17102695407526028 1.0842460301888037 0.7740876851952991
P 0.17018809261725637 4.795413139766902 4.123402825422375 0.14369895568426866 0.33664250732696216 1.5269180036737187
Ni 7.309671242231562 8.799709827972068 8.86604752837369 0.779649752664109 0.8920182736662122 -0.6735701499945108
P 4.104112427067114 7.687221901422434 9.153183430626079 0.017464218223034435 0.38018388225302263 -0.20691415489017267
Ni 1.3844445744876 6.467462697949794 7.994710777479331 -0.33723797481911594 -0.11348000889872713 0.3887417991253628
P 3.4057524533601935 6.084023177422685 2.421788234293031 -0.9289627121010453 0.2729467689402138 1.4822093479124345
P 1.888287809189889 4.399292753514186 8.56071513674978 0.2243367212419943 0.05544995343818837 0.5605814789099055
P 2.816635926100466 9.062754850069437 13.174413129502922 -0.17097193246760878 -1.0840472839144364 1.2176214924598772
Ni 3.5632587586773 7.910574707909204 5.719013304626729 -0.40055241860704566 1.3296989645841228 0.22529060051483138
Ni 7.462818499955491 3.487284153268943 0.6263343152196557 -2.1442239318588623 0.05670156645710235 0.32539470232728473
Ni 5.636958150376981 2.197429989978744 4.762742400607129 0.9063151499048585 0.30818219510374023 -1.2883692525974006
Ni 4.527096711277782 3.9675258638990827 6.054895892384638 0.436903446432254 0.6788229137530181 0.6356682327424149
Ni 0.5124065053652493 1.7047654544953217 7.6933982940164025 -1.4131186637623598 -2.1041877418725825 1.9976705374449337
Ni 2.469644678789035 0.4388777587967008 7.704135559028687 0.686458833031721 -2.132011191842754 1.209665470837594
Ni 0.48597666901752656 2.7293628167825212 5.694640422661241 -1.6053901290386934 1.5705858768753145 -1.7360818738300166
Ni 8.215818628376887 0.48162591559524554 6.480636606056447 0.10583020566295322 -0.8278288834724968 0.24505441340531994
Ni 6.569351979535771 5.131880005785716 2.361860084845013 0.6704287761520518 0.381578191497388 0.26523114546351095
Ni 7.74026773217577 6.731834787390542 4.325603652974979 0.49790209760281345 -0.018234263619839566 -1.2600963737946362
Ni 4.576824873672675 0.9087950698102728 9.153979671032106 0.11076800928420277 -0.6961346655585883 -0.14297390459278603
Ni 7.3212738657406735 2.6046645652322455 6.548225804688837 -0.5251354793974699 0.7824563688749686 0.04212701107703713
Ni 8.332840163975543 6.506408438179745 8.791646050711961 0.1693721920806567 0.19936693867053407 -1.7408520415251505
Ni 6.3404052155668476 9.047585733074998 11.17201227397528 -0.25072523853785206 -0.26839925877884746 -0.24449674112963696
Ni 3.8777921505486255 3.5439702034711265 8.405143216400555 1.0632010365930464 0.1136432739494688 0.4158114016486452
Ni 0.9273804636393645 8.051566397397613 6.406397325514466 0.6001322446193341 -0.40948417387903674 -0.12611363850233767
Ni -0.22864448751848715 4.881018199160184 1.9105862268568052 0.9608991557983257 -0.04916977685643145 0.39760027795725716
Ni 6.117107703552719 8.839844399363793 5.1311851385795295 -1.2143209673317346 0.44461547036453103 -0.4998651348664552
Ni 5.361849717498492 8.104971642223113 7.39164161162326 -0.7553032054989444 0.3682287667736755 1.0651216506545271
Ni 5.74823827656644 6.2639237441592845 11.919163168765833 -0.549499510064131 1.0265129371433934 0.5051477234216333
Ni 4.027418993514428 8.735254904363861 1.8674242830879992 -0.15189614678308033 0.18789879012993446 -0.026483905223141483
Ni 4.756015828010384 4.107807940988603 1.287247028905189 -0.4021025367029849 -1.3871322670009272 0.847791956857985
Ni 5.472696703652265 1.3841681021243963 0.6332249280852341 0.13272728716411336 1.5199456861209437 0.24493999931464266
Ni 2.3268190559580413 2.5541254172386227 7.0985974949692086 2.033411956710601 2.526226098267546 -1.000954886168631
Ni 9.229753373189867 6.643013432838656 0.4735418636951715 -0.8042552099176149 2.308379612735586 0.3552526662289817
P 0.2734274809102106 8.692208157413056 8.401582252362493 -0.023584986408791638 0.15441557077082438 0.3003706694791214
Ni 6.424849091034675 6.956496229729809 9.920957320562534 -0.303081126431749 0.17125243982250507 -0.8559325836872483
P -0.06434341308838 8.38824522556155 4.619659658478357 -0.5565924123551704 1.0125006820247016 -1.3578990811674228
Ni 7.371435168171252 7.51690570994356 6.4609434796254535 0.6960572753534335 -0.904996431093435 1.445632320119349
P 5.8996898371293875 2.435961129205393 8.282089975411342 -0.25392857596649815 0.47517046033325266 -0.3914985359348935
P 6.113135717268027 1.897982773392896 11.931504895059243 1.5358829261764904 0.3454382512417212 1.657281418591346
P 3.7351508426264344 5.587875090162896 11.851277223130271 -1.5393996810804973 -0.500620524975241 0.38752798132291966
Ni 0.5273655033636535 9.168505528994825 13.57234164501099 -0.41517659627812364 -1.122454680048041 -0.013380277961647924
