# total energy = -381166.46530567965 ev
CRYSTAL
PRIMVEC
9.23826830947795 0.00000000000000 0.00000000000000

0.00000000000000 9.23826830947795 0.00000000000000

0.00000000000000 0.00000000000000 13.52113948940287

PRIMCOORD
 96 1
Ni 4.056523601951228 2.4612501970126264 4.806129623803574 -1.035216121344346 0.560308427754177 -0.1059001396689402
Ni 4.02822678620817 5.747976617957727 7.51814522267474 -1.2242348840113368 1.8254853013955141 0.37637942090526794
Ni 7.220279433815088 1.6530402964963358 2.1087437465813497 0.0161113037395658 -0.045600057227302114 -0.07952807743331465
Ni 8.033764385519524 4.990198423984484 1.955710908688655 0.03655517341621446 0.9812319538184068 -1.102135765985031
Ni 8.60534528230004 3.831137570712776 11.406960997569756 -0.9164527525594925 1.2361465478472582 0.34544133656551473
Ni 5.658300747759275 4.889381202239793 9.308223219362977 0.8519093214604682 -0.24244037282124054 -1.657972016900467
Ni 2.596821784028418 2.9496127731227326 2.318875549235101 0.30268954742028514 -0.07609462627173347 -0.12061404884034711
Ni 5.537584296138467 7.137901795558202 4.808279368832438 0.4053323564941923 0.3705563864655877 -0.0502270144763522
Ni 2.0075588417590966 3.253708850110727 8.698892910734834 -0.11591818602657457 0.6924099084088333 -1.103531617891293
Ni 6.646887836451603 1.7636777974231583 10.346105707599852 1.3999489591496213 0.9944656788998615 -1.5089688753944657
Ni 6.942022793207549 9.118429464328663 11.69435243785302 0.22425624571304603 -0.08519735990395004 0.12435680371223098
Ni 8.778091660876413 7.927441155879677 11.29681774399594 0.24420132137640524 0.37161773785056645 -1.6257638075990388
Ni 7.9761914975956785 0.00686680481286802 8.989949172044955 -0.239028261815898 1.000722972663483 0.47107623565922097
Ni 5.432471279643361 6.050261994362752 2.7706167060546254 2.1193623927304923 0.696566096669052 -0.9047079533187388
Ni 2.103858550314641 7.176748713677548 10.92689253872185 1.040996475471549 -2.303079026458279 0.7269223403634062
Ni 0.06107696308262389 6.265070208420074 9.813048389548866 -0.7560979334860979 -1.331266566181559 -0.5599163345220808
Ni 9.061373919428526 8.148226529514458 -0.06590857739330595 0.4360374988875329 0.08203747411872968 1.8131609755022065
Ni 2.133559582836329 5.322600554983817 0.7010977227652923 0.4597325285116276 -0.8248564311077343 -0.24183719201960283
Ni 1.329312899412357 1.432125587105628 9.868403169258574 -1.2596397458731918 1.2570910113094094 -0.5623781657990121
Ni 2.4293319801036266 0.6691841249904334 0.6611265073962137 -0.5515329955543921 -1.763555653770253 0.3939205151128248
Ni 8.557611150094887 3.168495063491738 9.229664681213233 1.4652675778517732 -1.306245361546873 0.5151868528251902
Ni 7.255153896573836 2.1847857804514956 12.720106927491303 -0.6878814244108604 0.6946562812408488 1.1824927670775442
Ni 7.044890910510501 7.295691417788507 1.2072799945615835 0.6895133035873287 -1.830209703454377 -0.6977994548555208
Ni 5.140578955053858 1.2883411795885045 6.400772055018621 -1.0524641097915164 -0.6365380369418779 0.9584434951689816
P 5.908925727939951 2.967747493757281 0.9740765407042042 0.36418622127318573 0.4555488294475832 -0.1308436969881553
Ni 3.3102840050602818 7.17838388716319 5.478346672270484 0.457183793947845 -0.12392820081524465 1.78265612204513
P 5.981658614112035 0.9606875184853294 8.333564667757104 0.5813855601394503 -0.34163918921060515 0.702172387112236
Ni 2.032936364725528 2.664944774328551 0.202619242888079 -0.4005701592188585 3.217299290142827 -1.8462410458856269
P 0.04363418874228203 3.8117279690555237 13.49674689381277 0.5253226557076114 0.18791653074174733 0.2651630112297369
P 6.517247217671867 5.130860296822811 4.360797053690208 1.5559717265065656 0.3008874612145399 1.0738402614744476
P 4.483303881703769 6.3827749845814505 0.8677801020423709 -1.8961045063749733 -0.2716846143983385 -0.9820917307155408
Ni 6.589194851040112 1.1922262363985694 4.579055760950282 -1.6013673810325455 2.0660292285249904 -2.0836353716425275
Ni 3.2009952913024065 0.4099906509796281 9.340538681808036 0.6954366110502992 -0.7625989678294093 -0.14755586753651362
Ni 0.6630258953546769 5.838761080349836 12.464502520707457 0.5995923129554641 -0.41144901091489144 -0.5769856312995417
Ni 8.90856372380139 1.4882665434460005 11.294342811923602 -0.850133203396652 -1.0380497341383994 -0.2911769187949953
Ni 3.4711314940914204 7.3023429709504395 3.227509121267335 0.24821789873496605 0.4611803167017477 -0.3626026788361497
Ni 3.4789470690566917 5.032177115050907 2.6223840723604583 -0.8112730359963447 -0.6226134564409859 0.08584913455533602
Ni 7.719090491350398 6.408300319840369 12.5580418347008 -0.5506279672416194 -1.1361761433991917 0.23651500847574106
Ni 6.321423644930897 3.329481126547084 5.543883871278915 0.20162488146677535 0.379770705975004 0.9048097690039256
Ni 1.2345375051230891 7.904816636860823 4.743540356203439 -1.565610020927278 -2.3976951085729676 0.5084387354680792
Ni 4.199910763932291 3.723271550270092 13.29482236869938 -0.9556193954566253 -0.1668136873248611 0.1462759723828255
Ni 6.288895702315387 5.678994468707511 6.837194315375481 0.7949925536687663 -0.8897001670559967 -0.5244855045182967
Ni 6.735122536798302 3.1990829697683507 7.986071825521634 -0.12887731729040386 -0.5782958654705331 -0.6659044059191369
Ni 2.3919169935677522 1.0096503403717825 3.5406993495506174 0.08162686894387233 -0.17856465721320217 -0.2901523341852229
Ni 8.804947306767719 5.357585876961929 5.232342673883696 -0.9372632615469406 2.6146270527104583 -1.0585038882276931
Ni 3.5174152181765392 4.615983890747776 9.812628972168936 -1.5165739414352333 0.7389687300049789 0.5719421553383633
Ni 9.16225580905118 3.48889668399475 5.975924420990352 -1.2031621225014375 -4.883267437874893 1.5536304799678984
Ni 6.654130638783485 7.294010052961462 8.954956459452218 -0.1320693418651403 -1.2526913395798167 0.7110270092893883
Ni 1.0644332712749272 4.689012401504835 2.7729826265612516 -0.11689391967628254 1.4870615337984132 0.2566038088058161
Ni 5.57276362175047 7.2174063323798645 12.61112584806717 -0.41902322371772344 -0.4006598907191874 -0.15612561148339563
Ni 6.613417590471485 0.13350406257462444 0.331184527239968 0.14532697820599488 -0.39133861331826153 0.5574177364699433
Ni 1.3543855595255332 6.201363110358002 6.821414429325621 0.039762110389286356 1.7819516397789374 2.7294543196656993
Ni 5.538526599503075 3.6172624217517813 3.087647282462096 -0.1259917682124927 -0.28104445834668373 -0.5178410026185856
Ni 9.065281706911161 4.760562789337019 7.725641347388074 -0.625303087458007 0.7953453090224948 1.0335073661833556
Ni 4.499877334998919 6.8317917760850655 10.065122854022748 -0.052046584183594244 -0.47736515399172624 0.692649278113149
Ni 3.5765678499763425 5.6732482658370635 12.038140734508023 -0.0383595736148049 -0.01298715628828731 1.1017871243963604
P 0.33165937422958375 6.648227385352269 2.165815920364393 0.17852146268009256 -0.2150990046938102 -1.4126527798695347
Ni 4.953559451984169 1.730133645296798 11.783267074745162 -0.8607058367061757 0.7128445221141014 -1.519173069620977
P 2.73837976888995 6.993332135237239 8.920031186217928 -0.5811821858793926 0.35601988341230945 -1.8225226192227644
Ni 6.608151777551622 8.060712414093633 6.564973035435567 1.0880417497858101 1.1632007516171514 0.9866058165358105
P 8.197281734083717 6.806238726021305 7.579707194842087 0.7605623970153547 -0.8230078079347698 -0.056613377618670246
P 1.8187840677161191 5.658707231563615 4.949115844941265 0.5890662166131597 -0.8974039634581576 -3.0191860213737356
P 4.506270216649 -0.15509481937289407 4.132777192164996 -0.9492710846410941 0.76010911152802 0.3577258103598226
Ni 8.083614081160901 6.995826467672964 3.709429852905475 -1.5737953849515476 -2.0459296295616376 0.03235399085067331
Ni 4.369885662024527 8.465367041314465 7.60311234753064 0.007336128650097043 -0.6607187479531396 0.3388924797034034
Ni 4.286085330452448 4.854238829700913 4.941705829953507 -0.15149685446213262 0.5628785024741984 0.5830701469307249
Ni 0.1353840501696986 1.3357427341355592 0.10510470205365363 -0.838186315447421 -0.09293072399246576 1.2708016760272824
Ni 2.197793262190387 7.569772361133278 -0.022155214990205955 0.3991408829714997 -0.5036492844992358 0.13114271628581284
Ni 4.50069954087588 2.543341448952819 9.449748870285527 0.4123368128364834 -0.7336426898063751 0.3140016299989947
Ni 7.623058692574988 1.1125461724795773 6.719587464857876 0.393778847328638 0.23133346427480161 0.06846796296441113
Ni 4.525402670257838 3.609141983933254 7.364545155109624 -0.8926337957630239 -1.2264797141814554 -1.09544344156652
Ni 7.860953339065186 3.4146949131660724 3.5473656839417993 1.525387168851489 -0.6571348872566232 1.5770354891554001
Ni 4.057937056998139 8.463925871462715 1.2570511649225768 1.0086555972469984 -0.44342170716674595 0.4391382493000437
Ni 0.358988943283677 0.7552672326546142 4.8155267902984615 -2.0024589599725124 1.022581206189155 0.22753337380242106
Ni 6.14423365931162 8.756908311709312 2.6386905397023037 -0.6265493011602822 0.3204342729982159 1.671493962646302
Ni 2.24974928299971 4.021482850363432 6.258421426738625 0.7074061247073494 -1.0053918388940621 0.34228556454535247
Ni 1.8036794990775624 3.5174244564448194 11.304389428678606 -0.01010546386511808 0.9270994336400614 0.14590341953475516
Ni 0.9372592701260758 8.47803270712698 9.549358650365962 0.3985428443761846 -0.026039618596871286 -0.660727746814204
Ni 6.126311418847521 5.060594028281611 0.43651094773235277 0.3737098444929048 2.9053465722530607e-05 -0.3046261023213657
Ni 5.3684408421914735 8.862224570106589 10.105036792128487 0.028141238320906377 1.7629709849113768 -0.4766542439676308
Ni 1.5404997123037376 8.353223702657928 2.6002907537677316 1.3852052251815434 -0.06905186049233915 -2.616204424499907
Ni 0.6568177790702059 1.5102351454169414 7.508329562626748 0.37622541182590685 0.7753598670395034 -0.38150748616045266
Ni 1.143318844121799 3.0562408656158344 4.26268756837852 0.7164633498136113 -1.463973541630698 -0.6890350783993294
Ni 0.375935622617358 8.438354344862393 7.435909853749372 -0.28046853123855564 -0.4513257925051712 -2.435607824458341
Ni 4.1389012402081145 8.948694761211721 12.342447444012812 -1.6155115337434112 -0.8536293894753685 -0.6629237260242583
Ni 4.6874696107019975 1.3703492871141731 0.350606138645985 -0.7341648808584323 0.19349222505731192 1.5009660596946472
Ni 8.62253769956998 8.692840921184303 2.342064526445891 -1.7306370486653615 1.8892764277095464 -0.7466339598597206
Ni 5.94182320128668 3.893394260654815 11.544970563584762 -0.9832399853873711 -1.0676719278802065 0.624785267281324
P 0.15035374009136057 1.463443316576397 2.501991883956295 1.375622723699431 0.8712859262148672 0.360769739392469
Ni 4.508801502157847 1.60641475648484 2.660094683481308 0.6525472678859408 -1.5569644294371376 -0.051641121215059455
P 7.576645632733943 8.744796941993625 4.6627378426883705 1.6960287145628725 -0.9447289737963666 0.9637793055595982
Ni 2.5153310195264553 0.19731647689509335 5.685990609276307 1.8122510620934273 1.36697918909182 2.2404834631142445
P 2.751387250628842 1.6347854783741411 11.429243700662234 1.3970675238367682 -0.1195048749365684 0.7475389881724932
P 2.961779572448102 1.6199672960522788 7.4509728501806665 0.14510226378969848 0.27587448410997 0.09955491417720273
P 6.901494510261158 5.492769456709942 10.832947664750996 2.087694629313566 2.083436368257844 -0.4826533989738591
Ni 1.5485000526346182 9.086095525347044 11.801737144518292 0.09836320786194673 2.3962588903470734 1.5437826406395414
