# total energy = -340861.8794489819 ev
CRYSTAL
PRIMVEC
9.38364186883341 0.00000000000000 0.00000000000000
0.00000000000000 9.38364186883341 0.00000000000000
0.00000000000000 0.00000000000000 13.73390838809640
PRIMCOORD
 96 1
Ni 3.733873030290087 7.5740345704154795 10.767768292376982 1.1359002640299858 -0.8435252111618312 -0.9279494403451825
Ni 8.117131602616235 8.514303622329233 9.106954728123108 0.7547560747462227 -0.13173638400575377 -1.1141492455061393
Ni 3.8785406347865026 7.940634685383759 13.238004469947056 1.0702774838238533 -0.37198360583041745 0.1635717833487957
Ni 1.5281072878661417 3.415711273913654 9.298954359851825 -0.22387417978327892 -0.29750877455029406 -0.19229074855004302
Ni 2.0493873530529414 0.2905194245787073 3.2704140270573947 -1.9448796188961472 -1.1450459350849957 0.968277707650584
Ni 9.191887007753225 4.739161335726294 11.543569317387375 1.628981028984756 0.9414256204547464 -0.07076678630091683
Ni 3.08713367522088 1.5357361885897318 5.295094251444638 0.5598551422668422 0.3359300546409698 -0.49423210495039405
Ni 0.34255828650098613 8.336173951436358 12.611999209636576 -0.015356170741096133 0.280993036283458 0.13898689492057997
Ni 2.682267069292207 3.7653551482822696 6.198456502084158 0.9413060641577466 0.13651400790005522 2.042231097664128
Ni 6.16821490152821 1.9290702988366188 12.961321225093974 0.9835942834029964 1.2919937367238654 0.0662976947859697
Ni 6.639498923596576 5.618971583996641 10.068287240620185 0.2655443058285556 0.5059097983986385 1.3477697060429046
Ni 3.8514406774805643 2.762393985994217 8.81778748631718 -0.387538522845881 -0.7847107121267841 0.20137882689424028
Ni 2.2052965603376236 6.505810179920086 2.563763873021604 0.14184621874624603 -0.3909285223640364 0.5028265314876244
Ni 3.3487026883451967 1.85717283592869 2.44201205998531 0.6619577625665632 -0.14280138357066374 0.4164174106637603
Ni 8.423695177818798 3.7300726553908814 3.711300680117153 -0.11025713108605527 0.3751884859209603 -0.9075590496142886
Ni 8.827886161543168 1.1357584600005302 3.4398769664517364 1.840233406238966 -1.280112154794931 -0.4079818783018973
Ni 7.2570082346879445 3.8873894089345287 12.017787604223594 -2.005056031275727 -0.1187839376101438 0.9220029929537604
Ni 3.889453810114344 8.831320574415042 5.653768942610773 -1.6616160414109578 -0.5272880069640984 0.21964497219327977
Ni 9.230275486056062 7.06598544006295 7.455438476091784 0.41383782286204207 1.381950979910304 -0.9309370622185967
Ni 0.5459656114765263 5.610028973431351 4.024763108716988 1.0058749491780676 -0.7430768386360816 0.4850062154767518
Ni 7.532915452370251 8.014990662424013 11.413688455523472 -0.6979966584679914 -1.5200025075008081 0.49141031923088263
Ni 4.416167003860748 5.46019098234367 12.51759226695528 -1.5193095951988413 -1.0539183257395397 -0.8132538138717993
Ni 8.884600892137728 4.997305319620463 8.387860926793895 -0.03591599717031879 0.28331191422462176 2.6002275894556766
Ni 5.463597244290365 2.563479548677293 3.6485503911641506 -1.154566215870605 0.4561016166272597 1.354268169283055
P 2.1739551969713378 7.208363435978116 6.4564203200571795 -0.6502427881224802 0.5559372952696747 -1.1283152525938762
P 3.249320538820546 5.6042955683365 10.19513343274976 -0.8732659327593734 -0.6903406845846304 -0.07332194862260276
P 7.445722653448236 6.141781182784849 4.035461398649295 0.2388266873280532 0.6106426572323548 -1.149927431547013
P 3.5405043252334845 3.6982902608634536 4.311540336975194 1.3563728743308834 -0.3384844456317074 -1.7698147473060872
P 5.681335266910514 1.3525862693732147 6.143231893795756 -0.3470796434998861 -0.2979646311407901 -1.0503102966733073
P 2.166589038216088 0.8728954426821385 0.8928384964433262 0.08111393386319579 -2.2183130976647925 1.1439696713016814
P 7.862797377262997 0.5019413179527938 12.903666253598425 -0.47865841888185306 -0.18811116325105667 0.16037461656773672
P 0.8036075705383308 4.506587775536656 6.766724214851897 -0.15460968905950145 0.7858031738600144 -0.39520272425935804
Ni 8.54574820575451 3.237037351800645 7.069954720513231 -0.31920965656249545 -0.7951391065489597 -0.9476734011366711
Ni 1.0787809874376297 9.076121019774222 5.718565803824309 0.994140691460275 0.8508343432287346 0.842287224989672
Ni 3.024967048783262 8.123662617257832 8.138123747522437 0.3685393560355588 0.6685724396696034 1.0218361004930145
Ni 6.608927018851857 5.213804701532722 7.685261690891406 0.39223772809376317 -0.244514738851766 -1.297281724595682
Ni 1.4518182806302424 1.6825901816084063 7.357680634949979 -0.31238286344864913 1.1417320402204143 -0.8969550488461971
Ni 8.36250445012073 5.328801230890157 5.758724036956751 -0.04812050965631068 -0.24260775163704024 1.471873256093749
Ni 4.984721856065316 3.8370461710722163 10.847754454453096 -1.2205666911311301 -0.09034573687410892 -0.02678189607953452
Ni 3.569387174467445 8.537021418948926 1.8853218843796435 0.17614344936621923 -0.4159931786421481 -1.000435266219735
Ni 6.07777536256885 6.641994972295807 1.2104090833909944 0.22057056933134273 -0.4244312821071723 -0.4496874855707998
Ni 2.103859393274884 5.678538941676037 8.052163020759105 -0.06579787233141571 0.07032327100559502 0.5619637039694129
Ni 6.1181907074845965 8.57344871613094 5.244320304427082 1.7975029572499752 0.641844793866772 0.9420030902247711
Ni 8.997335963839092 2.689464322496381 13.323483815889825 -0.7388872260347661 -0.16718803994514433 -0.524555952744916
Ni 8.482277253116917 5.841166836436845 2.073586826701239 -0.2134462995817356 -0.6730381887504409 -0.5347547476547886
Ni 5.815887305625835 7.811112278633805 9.520496510827869 -0.11002161803648149 0.3628698164546073 0.36199487004882175
Ni 7.026987025047895 8.479734286209055 3.0944829434210224 1.1937169179281377 -1.3448134516280579 -0.4339140247866269
Ni 3.147076378569333 4.019360946175081 1.908217031827967 0.5339597625573191 0.5874924443681366 1.022831117416432
Ni 4.135455361614508 1.0280999384731657 13.689836202716526 -1.1591672049777264 0.47942820716834206 0.5412393269378679
Ni 7.366233824383623 2.0672350396166164 4.88479451695636 -2.1776660135673915 -0.3532425777774884 1.7471175628188877
Ni 5.41255023329857 9.138071822452131 7.667434648339528 0.32701398309826263 0.7472682510096098 -1.1750730775747051
Ni 5.334149906674224 2.6290336697781527 1.425813394313779 0.49526286020775356 1.2750414251402429 -1.7215595118441254
Ni 5.019985581673251 5.167609033313493 2.8067298164232675 -0.5585464507577477 0.26901118133123353 0.27292388612207835
Ni 9.221163969939695 0.5260666608314528 0.9591639528940993 0.27134085790567464 0.17279330194706372 -0.25776671876566576
Ni 4.948200722466039 0.2850337476254346 3.3454015231858376 -0.1086494202793032 -0.5142358017658304 0.963152984829509
Ni 2.912438417199879 9.31500977084575 11.713224621437107 -2.2765634966662534 -0.5509061606036706 1.0513189404434797
P 0.5831482918175166 2.44666259282493 11.229529794821362 -0.5617968393742454 0.7758666314725928 -0.9850988929729808
P 4.46882800122949 0.46067487673246 9.458748394811249 0.31661309947991284 -0.15219002387441533 0.9984043518326352
P 9.177670790537679 6.028520627146804 13.455000246506645 1.5659558343024709 0.05293438610518625 -0.5866408950011187
P 0.8691269721648031 9.243318748055803 8.217917544943159 -1.2358238744005168 -1.5546013285216003 -0.08920313862923346
P 6.9054594810488625 7.540366063901038 7.235984185399871 0.4745523671332794 -0.6471083562585566 0.5347218375343242
P 8.742419952698816 6.390916870621642 10.077516052258133 0.07633373886573305 0.7882562633861974 0.04801200910290441
P 6.846032877995363 3.490977464201372 9.90880849602277 -0.989873945764121 -0.20426257619993854 -0.27940795118452527
P 9.243281213488897 8.39777755937039 2.5611814948184897 0.18486565973056548 -0.433866202267827 0.27506921459985534
Ni 6.133908307376371 0.26529150379719246 1.2423829042096417 0.3620730315849248 0.2159659806797958 -0.914791819917302
Ni 6.724167522894179 2.3166991549138345 7.885584612831467 -2.9435256544259434 -0.3256253302808521 0.2515122532155217
Ni 8.492092542362768 2.4990702318670577 9.351651953423298 2.6816284584316716 -0.9919835359079562 0.7926870454640412
Ni 1.930684285213565 1.9684534431624574 12.828349391645386 -0.03555527139679038 0.5221154616242233 0.3258981243262645
Ni 3.4235278474717723 1.8676262128119363 11.00171186425868 2.476724649103309 2.6606161178460632 1.1904626726568983
Ni 2.313602553144112 0.8584999979096178 9.494250464919036 -1.433297709813396 -0.9747851697517986 -1.2785396681014882
Ni 8.08615620127728 7.674233096770329 0.551719660583175 -0.08250515778376759 1.3629248165167882 -0.0053116420209005305
Ni 8.187105418970246 0.5526936825943788 6.712887447174834 0.023815357252042854 -0.777372526594158 0.6226113995584568
Ni 2.126746095445654 5.002926121014596 13.882921521792989 -2.521489097803193 -0.9573451198984804 -0.9906871856940357
Ni 3.0649507461795924 5.9539300590633895 4.9382193427616325 -0.867350595716203 -0.8019257904534899 -0.6300614280785989
Ni 3.8466737874835366 6.120724290750734 0.8567884216587165 0.8448321028987127 0.7875073010353146 1.824733510831154
Ni 2.2073328105922596 4.167472347185098 11.52982228225815 0.818749546879048 -0.2462440628380469 -0.33083849905067536
Ni 1.3812157602805615 2.88789081044353 4.208742541862122 0.5765876245301748 -0.08561310728512997 -0.8247736415859408
Ni 4.477329580633638 5.9881803513648695 8.366285119372309 -0.3725284225902939 -0.2620254940420197 1.96347563673078
Ni 8.93625783984174 0.3589984268056965 11.004815972941783 1.453504009557942 2.204843859533764 -0.7111018283913817
Ni 1.7549380593192037 6.611563822176985 12.086649459033021 0.6435008414129563 -1.1046567326346717 -0.664191022772456
Ni 1.7725886894066238 7.448181167580562 0.524558709606015 -0.5817984793071528 0.6372944554919282 0.5186642698508294
Ni 1.0476460641893253 2.6324868499334806 1.5956601246547322 -0.4333005595723441 -4.867618161373411 -2.332851886845337
Ni 1.1423645437759389 7.685474699558596 10.100149396102289 -0.32376899379840374 0.8157225871272661 -0.8449349470251643
Ni 9.09025278421423 7.621656552177125 4.648309854895143 -1.1794460098314203 0.4361305728219715 -0.4038593714930916
Ni 4.98952628062925 6.65269232386394 6.26223617653455 1.0825318757111744 -0.42513730703526137 1.1181072017126226
Ni 6.140655145777677 4.629907595105436 4.741439683937472 0.14143175691664675 -0.11335685305730155 1.5040308146629
Ni 6.719625840298586 0.8353120808394295 10.138604498261385 -1.1233149711658075 0.5115453994178609 -0.29747457887824896
Ni 5.539220012963688 9.312072690985376 12.184626877391226 0.23444886997533168 -1.638353214228275 -1.153520033994278
P 3.7756865378230717 3.3443580622258584 12.958670346306258 0.5582440890259805 -0.7887314032504029 0.33075210998445614
P 7.28098343929898 2.0623743132023242 2.3578239031440993 -0.6421481840398038 0.1395671929040822 0.045134173334477105
P 5.8566404616437335 6.829630272257559 12.245509821640667 0.8699502381225792 2.215357614580894 -0.08296204281552809
P 6.819120593523953 4.276894993357032 0.7709159011276112 -0.01639438219762338 0.38483757897495013 -0.19171996364823757
P -0.03395470758709738 2.0539478029319875 5.560186822037229 1.4320779784736821 -1.57074888481574 -0.5458984229764341
P 1.0427102686412217 4.265371881316971 2.436148222270462 -0.5671717305329136 6.4244164975463285 2.2201383237989893
P 4.7401560017492965 4.006739948053029 7.425924107769635 0.5032685041210494 0.8365760335375075 -0.9485246933933728
P 4.659522368394058 7.176703028793131 4.291585084479762 0.30794076851689545 0.8432511315648381 -2.8047740154446212
