# total energy = -340864.71538049605 ev
CRYSTAL
PRIMVEC
9.31736287365564 0.00000000000000 0.00000000000000

0.00000000000000 9.31736287365564 0.00000000000000

0.00000000000000 0.00000000000000 13.63690237906824

PRIMCOORD
 96 1
Ni 4.901445293153327 5.856018430427665 11.305619085489306 1.5261438445118556 -0.5926135676447859 -0.8519879972172038
Ni 7.586439051549859 -0.3374823348780033 10.039310281990568 1.9561554489202828 1.2553776281627282 0.691797471635815
Ni -0.10557037932169407 2.39143160833355 10.954496131457079 -1.9951572841047767 -2.1024558467831405 0.07289668815972608
Ni 9.138581252660465 3.1333732089148567 8.372567313522561 -0.41044833756451893 0.15170074294282263 -0.18412492490979904
Ni 1.3579497254190884 6.718498753685354 2.4092314982462777 -2.2240096338289375 0.34783554782930415 -0.1304768005670398
Ni 2.8235522607479644 1.5368896781902048 11.791965857723177 0.3967613269957296 -0.7356900592537072 -0.6578861636003509
Ni 5.163048888777103 1.0152943907088265 6.148810966322519 -0.06799205176925709 -0.18346569405924532 -0.2212943348712447
Ni 4.187474415728432 1.8889369146132124 8.208119586866529 -1.6351930713327387 -1.342649868317836 1.5047463526726859
Ni 2.8271580801555367 5.417981252628732 10.49400504102169 -2.079520578143206 0.31680156134163506 -2.326107626142968
Ni 4.469445766455446 4.974949968363498 1.2450670797638992 -0.7581543017944944 -0.377781186348801 -0.8996426229806893
Ni 8.873297298726634 5.062756795487424 3.722397319317833 0.1632347117243511 0.38841192658976975 -0.6163492206988288
Ni 5.7447038969334425 6.129706645616354 7.497364131347456 0.08416326221248087 0.14625848888132875 -1.2604768970625064
Ni 9.258682059284766 0.6194611394952652 0.7495464321070443 -0.06602387229929274 0.12411280602222496 0.6103613785465102
Ni 1.9951082638361686 6.802569318322364 8.227606851184195 -0.11893717535855647 -0.8957031787169671 0.4269069973411745
Ni 3.325413373797204 4.855240490977229 5.51159931893742 -0.1564716819689047 -0.4191044705776201 0.4936739184540789
Ni 7.68112209242776 4.157397968576901 10.957551294722563 -0.12105113637776573 1.0134712734680869 -0.5025416532573539
Ni 1.3489584703071837 9.26694656009747 8.26403121761836 1.6637138044802506 -1.0073219660372392 0.46366451657618213
Ni 3.140277374757262 7.323223552159907 12.070172062138564 0.28599023238773325 -1.1170435363347988 0.9377193752477528
Ni 6.659883224245985 4.949084969202206 2.1613812618667314 1.3646569687165466 -1.3190620536955668 -0.7558819608205498
Ni 7.712120958497507 6.805196814634859 0.9677236631447436 0.18145509138711974 1.2945756385184284 1.462476131149565
Ni 6.086790872512279 7.041447866051908 12.835148047059405 0.09089518161967573 -0.9622582409293815 -0.14662924195718616
Ni 7.413490163065743 4.64056845182875 8.173400297826642 -0.6895873513583736 -1.1601439670686988 -0.4366962155174544
Ni 7.196442196400646 0.0012979086394697484 5.500226545891212 1.1035408738626735 0.9168312189448339 2.095715185625197
Ni 3.0996909423557533 4.654013406363962 12.559287022863362 -0.44163273358712324 0.21767370739952188 2.200384795321146
P 2.920368977709416 9.52653760535423 6.603165641611066 0.055339138891936944 -0.12872613642452022 0.03520662980812002
P 2.6811363701930824 6.73636013819263 0.4889574972933051 0.583750203716885 -0.9774264640293877 0.7144530042518018
P 4.231238068848241 6.494658429531577 8.773341562234405 -2.6247764824396342 0.5946331691779759 2.0749926083658647
P 1.694986690354761 3.250166351741514 11.007489564176735 3.1763413596732266 1.542178015156583 1.2438554864557418
P 5.6550429146102745 7.562959297267994 1.790457048390129 0.14746485048460412 0.35202953130599374 -0.1738821641358683
P 5.4657234196685245 7.530553509413896 5.608257640731097 0.032864611938504686 0.6529301051466562 0.5663291800269602
P 8.145182664555758 0.7365086463266421 12.537863610553723 0.2808084310764777 0.4332046574244281 -1.0096902091590998
P 8.27515987575894 4.638714296629508 5.903196897017436 -2.7042814199444973 -0.27398318062452814 0.38835870475433115
Ni 4.6797479624459095 8.507190161822939 7.906893905892105 -3.564581279461506 0.8912538846963618 -1.2887585176160192
Ni 1.3649843343408374 8.50760012578659 4.787056961667999 0.14861696181117628 -0.49697547202348596 0.6596152304763155
Ni 7.245889440834717 3.0156762818956047 0.11078996596800386 0.2902019564762357 -1.10957602431316 0.2541964849159042
Ni 8.160658804183607 6.703078518234368 8.461098099736844 -0.3711695945695543 2.8605906081936086 0.6992356730814151
Ni 7.323791911291332 3.1619868301051772 4.061219490967952 0.21316065002051676 0.40155437750899875 0.5785226367693586
Ni 7.7280536489030585 5.131360537859397 13.000126863395622 -0.1334345976437831 0.9164954328719699 0.26309841539122425
Ni 6.4088362006862365 1.503449663064168 8.533850863768228 1.0711753130477744 0.15728055102344526 1.260038009752875
Ni 3.6065647965969143 6.5474506072145315 2.5914343914735483 1.175332244773363 0.5500602676636076 -0.08013460066906199
Ni 8.38994978558139 7.50276913351369 4.341689814546233 2.3949638256847336 0.5769779179900579 -3.0794629638869226
Ni 0.21658675720598733 2.9155519011365096 2.189241108405701 -0.8261463535637513 0.15841723573104974 -0.5806245136037097
Ni 0.4006950511279571 1.0444577363049523 6.475374283723173 -0.5685848088303563 0.5246965920878383 -1.1151416913263954
Ni 2.1950868218328607 4.316417399659673 3.3576095209880705 -1.319146128768941 1.7303938223063036 -0.04268442624240391
Ni 6.803053821188499 8.790214374547512 7.73130540852384 2.636107334071421 -0.5743330241680431 -0.40699148936416996
Ni 4.296301213352313 0.5774854882987457 2.2547393737530124 1.0826894843349613 -0.14241571809647086 0.22512579280219291
Ni 3.900900287773148 3.0156390124443635 3.9744888192486116 2.2782470550162635 0.39422236262395977 0.04441503578026544
Ni 1.4619687638328733 2.7411588214168017 13.44642201985329 -0.9705433637563092 -1.1821150720231512 -1.0992039370502167
Ni 4.112329884663654 8.278830916706184 3.981757293976899 0.8814903775516948 -1.379133822176483 0.6966388588885164
Ni 5.795315811718796 4.5977551697155885 5.452101435239918 0.35493719187109196 0.5554307879469015 0.33594779525278273
Ni 6.578374934381797 8.821315731608172 3.5522632061386967 -1.2852121950256574 0.3527072740993087 -3.1978542940443377
Ni 7.18524272630271 1.6242213198108075 2.249639049350674 3.1280886953144256 -1.3958958721261703 -1.985879715457593
Ni 5.0792485276615915 1.9547081786908647 13.126787093438349 -0.7371159930669563 -3.047160909320107 -0.3534166414615075
Ni 5.833703346497082 7.777668605867713 9.654422136870226 -0.8403594118393397 -2.1968256172149783 1.5605986837556156
Ni 6.5656008299689255 -0.31543745446891913 13.655039636647658 0.6564208919087341 1.9775560260832457 0.9837668044251188
Ni 1.7355544880306495 0.3376621599802414 2.673091759142701 0.0875784585416169 -0.018171785813020317 -0.31187224236081773
P 1.2413429298486367 7.174900453583317 11.083419548926416 -1.0304868341894768 -0.979942545583022 -0.703946191183207
P 8.837909954773252 1.0753261592953562 8.468216564923885 -1.4917602248256632 -0.93259516664731 1.8109909644340811
P 4.406749232105181 3.443818420390037 6.9119598163962666 0.9946050326912033 1.388151452294061 -1.3289340613936402
P 1.358229246303396 4.49787304038956 7.729832333463538 0.35170788630051686 0.7947531839644506 -0.11216000453572297
P 2.681229543821185 0.9943955459254048 0.29781086750446206 0.03037012765142512 -1.262864680568393 -0.2537048899914663
P 5.227077806009237 3.9544285371181136 13.209903560123587 0.9446227872358054 1.5108738057266624 -0.6949347317132161
P 8.914023491570298 4.977624051490044 1.4263242606659283 0.4092640874484306 -0.1653813257537087 -0.11172651654273016
P 9.230636797225872 8.23991229224771 6.9416467977823295 -0.32054817286826087 -1.089383351415369 -0.7944137983471609
Ni 0.6386875176542445 6.389064756802857 13.465527272295738 1.2881710205436654 -0.8454519958708988 1.4066435975609775
Ni 0.5129105736059313 4.648954078357988 11.916211959061766 0.3906107340133015 0.7314071156076372 0.5360469841036509
Ni 1.438926925603091 8.93177306772385 12.641190368910703 0.6247541569330723 0.2558764437214884 1.5460580669372792
Ni 0.6380520735105845 -0.08888298252851158 10.568817873970424 -1.9798851884370547 0.9010101927521773 -0.8295075567265005
Ni 0.7008566892694487 6.053798090801134 5.869145662891046 -0.4184789211784793 2.0835356128398694 1.4260901363213634
Ni 6.267864501366945 6.484334791537805 3.8452383623446322 0.10374504099915037 1.0172950180895513 0.2786170798521137
Ni 5.332596939835474 2.7355311342794026 1.7169812570046699 -1.151230723739469 1.40502097435589 0.1286646870589655
Ni 3.4208324863371153 0.9457868641442586 4.501473269379447 -1.7699978098511708 -0.7444456939591502 -0.01966585386004355
Ni 2.7866648213821303 2.286741719797426 1.8965249748858912 -0.13956462180092094 2.0461237478503147 0.3027934199880011
Ni 4.479527153016151 4.363684381196141 9.015083335555543 0.2780876897112049 -0.5541807175898842 -0.8460821732557299
Ni 1.944542935864867 4.456503949511989 1.0467758961721458 -0.7771521830532357 2.5381943263730156 0.5472030007204705
Ni 8.863132055900637 1.1211023627821823 4.160618980900409 0.5360266723886769 0.061742214204803345 -0.9764332468781829
Ni 6.693136892115816 2.8177009569031193 6.621861861826141 0.8067712914712493 -0.0430729199300742 -0.1041168225162723
Ni 2.7762386923974454 8.772995888074146 10.194170442314839 1.2736566289775744 -0.26281456560221833 -0.7464313569306112
Ni 1.8337594920508302 2.1710946125964314 9.279625627409677 0.6441186775026133 -0.6846845147401176 -1.047494424491067
Ni 8.629163758372101 7.787554327809403 12.521908558477428 -2.117780907175985 1.1740646909148489 -2.1443496588034487
Ni 4.842727272723045 8.842689761894917 11.781438169483861 0.9100540481220004 0.44726730616508137 -0.321250341141608
Ni 4.1546120770966315 8.61880285092709 0.36247522888025496 -0.7459559599560894 -1.1881844181456829 0.10588419882934022
Ni 7.537504262070353 7.008846413578795 6.193212858794831 -0.6021094229503631 -1.8772380084877733 1.619302368244411
Ni 0.8760212466298463 3.8267340798034484 5.511981330812641 -0.2225076384530555 -1.4327960875866292 -0.14330326290774673
Ni 0.14541142269838211 5.291153310055421 9.56225012526969 1.45974690514386 -0.5232662873992149 0.6237349716399387
Ni 4.382402963081961 3.3508311395436037 11.177977737142662 0.8825609849080543 -0.913752065798878 -0.9402747946797547
Ni 3.2792272063467265 7.208983366743262 6.172361532561741 0.25819403611107145 0.9586221868386909 0.3396527549081957
Ni 2.5260115967650005 2.3595196407083963 6.0858218667800115 0.751707517727886 0.296994811028353 1.4130219902834955
P -0.19465741209575044 8.701941679283072 2.637445392503193 -0.4669570712845248 -0.25668839809982247 0.11268579513220593
P 1.4499866352588744 2.3281294454006174 3.8595433094672305 0.7014378229390565 -0.7882449505322877 1.1737633576243462
P 4.4226167009710595 0.8526001917336861 10.248472964509338 0.5197958123521113 1.2995170416841038 -1.0441640745662533
P 2.191704619132735 6.412078642944208 4.433411797523031 0.5093656181577227 0.5569012018448408 -1.2645099294812998
P 5.766674238440046 1.6867128721792468 3.658494186483639 -1.837639420259545 -0.8670970849445002 2.4516666776934164
P 7.23118664232012 6.416932988968355 10.860919993281037 -0.15978094884779578 0.5344778398443183 0.373760238114866
P 4.927217118686516 4.896404599872975 3.5023519570366757 -1.1876300883041093 -1.1488727650302537 -0.8153986281289441
P 6.302441234755834 3.312033640801665 9.705110454030622 -1.0326661012289828 -0.09850153321202391 -0.7828222368548196
