# total energy = -340893.7960590839 ev
CRYSTAL
PRIMVEC
9.03078594586934 0.00000000000000 0.00000000000000

0.00000000000000 9.03078594586934 0.00000000000000

0.00000000000000 0.00000000000000 13.21746807761663

PRIMCOORD
 96 1
Ni 6.40270975660455 1.8056695045100313 11.222040092785088 0.4695991368930622 0.5898673723582164 1.1072915991543575
Ni 4.679680973268092 0.5086472721193304 5.862845767090324 -0.562617792613644 0.028669342910234496 0.5001708390323322
Ni 2.686089846323258 1.4008554986826245 4.591801493231795 0.5690483787303361 0.1887752791976168 1.0327578896118408
Ni 3.448911294996689 4.188442347002362 5.1104675191561695 0.7005129971319419 0.3126952524827454 -1.0684491723658631
Ni 5.081731558630073 4.66412092927486 2.7250450440999296 -0.24729795802385796 -0.5237092884739045 0.16918938664588926
Ni 7.127222611767075 6.124335783249136 2.7052324030571255 0.17559631861349756 0.19219716039497223 -0.5401131837532247
Ni 5.1387067864613565 4.555471544897278 11.671803932026258 -0.15914434370506142 -0.3853062910812525 -1.3138365436305695
Ni 5.612091549131834 7.767640789236637 12.151492183209372 0.49676515578489283 0.5529586722573251 0.06017384127641895
Ni 1.9874411617913865 6.178249574682447 0.3702884085026675 -0.8093159122699739 1.7451740659392718 1.9966390108566259
Ni 2.7523396912068043 1.5981601075997076 0.5938093886979592 -0.05629147550287725 -0.14985109132859353 -0.983751634916467
Ni 0.5411617134386763 9.010629120742424 4.5095229065701945 -0.11975375772258084 -0.7631918642184018 0.10401963481677569
Ni 8.622296299063391 2.431186885352295 1.5287458753596734 1.0523124147050005 0.7955569108126685 -0.8449100073244997
Ni 6.929674171632454 0.4179772792601026 4.69181744635138 -0.8450128514509512 1.109635416796186 -0.9043410568976232
Ni 0.8653100309545639 7.255640386336872 2.4543120186392766 -0.1301214741101501 0.3795254227334174 -0.27789794229790205
Ni 7.766141678788072 3.7658015699372074 3.7935062147209786 -0.19752011526978241 0.6443745022671612 -0.4102909860510483
Ni 7.530185306498363 3.99079456822356 12.641424054764817 0.32846819904628594 -1.3633451918836585 -0.44106117735436945
Ni 8.249830568095971 8.853773401579076 6.518312846074871 -0.572663349775104 1.339736294215467 2.4966694676563517
Ni 7.122228587200472 0.7699964080191204 0.41279722050530404 -1.7706992067935698 0.13602858362320444 -0.8775933564901338
Ni 1.8652817218050544 6.408245628321237 9.029671435753526 -0.5204833253374391 0.1396093589959273 0.977776905390271
Ni -0.1714828829798527 4.891940563527481 1.376454315357196 0.58977481264441 0.2054493974191881 0.7150695547898782
Ni 6.389181639424132 2.0233204739127513 6.8992006879117564 0.6300506294453213 0.33292906303111697 0.29271958069176685
Ni 3.528851811205679 4.2735936266379895 0.43302798693225614 0.20757030041693286 0.2466029888393624 0.32216333987418067
Ni 5.991330369475298 5.841157431829647 4.867543895594971 -1.0503128677764684 -0.5300038632333647 0.3349970013037392
Ni 5.358759944896113 3.0055087412975 9.365276208179347 -0.8533450254657303 0.1947888323815484 -0.377861147657117
P 0.06444459079518487 5.606013830265064 12.514007794344092 0.688614188811827 -0.44931878937747133 0.5410776045490229
P 4.097746164864214 6.2224913944867675 12.548003284540334 -0.6280945341602151 -0.6443343930578451 0.7788167152398522
P 2.4542786047316882 8.325725292251006 1.2848080945492344 -0.09614897381944731 0.11727290028225609 0.6632199171084384
P 6.142361231775248 7.898433660480966 6.026424906307625 1.0267695332388898 -0.9673683084624373 -0.22381170197645972
P 4.807800731905344 0.7677423238747728 12.450260380215349 -0.012534385021584866 1.9233414877140553 -0.37459481820101936
P 4.055915564877766 6.14542266817322 8.073824164491505 -0.587449249835027 0.4091666426386179 0.3264316282322314
P 4.8396884366877595 1.0516530720254575 3.603530991587358 -0.7977310356458519 -0.5385795207175176 0.5765284891574652
P 0.0008859200903865746 5.726610944301989 3.668521041846961 0.687264616762468 -0.6728576973085185 -0.104086226388653
Ni 1.3666378511548494 0.8030879165533051 2.4605378423937365 0.4234419216107095 1.0879700160076102 0.6064106214288782
Ni 1.8274156368000503 6.500359643835437 4.904460845008744 0.5149971054118874 -0.041643129462083116 -0.9090225215336926
Ni 5.892596787944244 5.676923560639329 9.451784814925933 -0.3123476393353395 -0.00691549617291067 -1.1292843013753648
Ni 8.712676403697325 2.313163545278267 10.040266039981406 -0.3530679998728371 0.5807456125626063 0.4330105391357511
Ni 2.2913271051299007 5.077613520289438 7.007941283226271 0.4667408415086607 0.6010817530167971 0.17831885975098322
Ni 0.42088880461321815 0.10489167439175356 9.278940089442205 0.10677997117073222 -0.45844260605561044 -0.10354166673909265
Ni 1.2596049774416822 1.118923395708328 11.55078508029085 1.857078502820763 -0.28227241721651386 -0.8639009466047058
Ni 4.102740189430817 6.730310543545054 1.6389395241149944 0.0178802227145305 0.38444162908811214 -0.22215179777553354
Ni 5.565149524362931 7.864803014032448 8.171012578566238 -1.0242534516852553 0.2448970618918492 -0.5419764622142085
Ni 5.462839751641326 2.845645770451189 4.82920008201931 -0.5585917021733864 -0.12893928087659084 -0.8108858278602551
Ni 0.816990811345865 7.281621957183377 6.945779675090104 -0.2110662293853333 -0.33770977224921195 0.7424489752440955
Ni 5.248295372565751 4.5173887210322405 7.259879437207693 -0.036948037979258955 0.025928804050619862 -0.3368032012745425
Ni 8.302651634443281 7.03840483308255 9.06995867444082 0.10465752551109073 0.03539791988331969 0.33538035278508693
Ni 4.5599869378146405 0.22823143808668445 10.219310399940673 -0.19420622040520102 -0.24099258463112047 0.09867354001351394
Ni 8.005890981128365 7.137210660900282 5.070617370503276 0.8052443133037617 -0.6044038754114945 -1.5284802059545162
Ni 7.165838251996362 6.1475449028443805 7.182940754210165 0.23994665986510932 -0.3213220749198079 -0.8419745788452596
Ni 2.1940294185465676 5.037543923540761 2.6547945610916 0.5254326989229144 1.8456828593893115 0.5049371500727239
Ni 2.292708815362614 5.314364601732603 11.611677863017238 0.333079215455736 -1.2431767152211624 -2.342851164149894
Ni 1.3495064504263752 3.151229501526631 3.781490754167876 -1.524880918639032 -0.1735993427881268 -0.40064703520338096
Ni 3.660556791819316 2.782204499962242 2.696059833884795 0.1014531596411801 -0.67075299226069 -0.053911148196158776
Ni 1.1340860851248322 3.2577747128047227 8.162408045822911 -0.8197337651691883 0.7524189419726138 0.5135218064179414
Ni 3.5778257627873957 2.935773013081749 7.430278625887378 -0.7758946564970509 -0.5884103281967157 -0.512269422068079
Ni 4.06020518814926 7.078203506256185 6.020781568239506 -0.3909267225918235 -0.16356407003931184 -0.2754240268361127
Ni 0.6425458306122224 7.188053985149787 11.27164529629665 0.29731234226877185 1.016838647278423 -0.36643387965678187
P 0.26658157321242987 5.3720261692873255 7.979610491270731 -0.40541488890566957 -0.049727449132114354 -0.34742442843381455
P 8.460789725195161 1.6056014751275216 7.887325793904254 -0.13424680913243334 0.2364414749253283 0.1001958901953113
P 1.7989867229923342 3.3590098220119957 10.455017522541343 0.38517362215813017 -0.4366728184786867 0.11637867060276086
P 3.9289788391848632 6.060009495748386 3.9022856424145815 -0.7442477190157312 1.0365821484539373 0.10533372564250891
P 6.987814370836418 3.970962962530502 10.430974861413553 0.11258937876365771 -0.2321436188809228 -0.24284300757629787
P 6.602118538621125 7.9103272054252995 10.096215370541863 -0.6216292381508456 -0.771198279462646 0.5458899383360017
P 2.195998129858538 8.58714848059464 5.847275789232674 1.2485251240172692 -0.38219679891799335 -0.2199650745368599
P 6.71545490084693 3.9896566892083842 1.545558489348182 0.9188132823718692 0.21478275900497204 -0.03501662528450098
Ni 5.355544985138951 2.845410970019486 0.09285815226698181 0.6471664631900015 -1.1067992328989713 1.1596377168562415
Ni 1.549059725016305 1.1324244205312428 7.2600248328596315 -0.24093807724410124 -0.06058521778222469 -1.370150644841266
Ni 6.727068491430387 0.789716031967827 9.054797791181482 0.8849752507765017 0.35851539614065353 -0.13393673409118223
Ni 2.5453811722323993 1.5679340674108815 9.49919553747966 0.643998349874665 -0.3288618349402788 -0.6288147001556912
Ni 6.4025291408878555 2.070018667464117 2.4239911551991855 -0.4913157026345474 -0.4229035326087362 0.7258105953564661
Ni 3.84436940669932 6.771996650958147 10.401314148417981 0.998579443957919 0.795755657087036 -0.01262488785286213
Ni 8.009711003536454 7.381809495233823 0.04442062936384794 1.298419694854867 -0.22916293898604406 0.08970218975283906
Ni 7.609123405479699 3.9091291719201364 8.21151023456348 0.2428296378398592 -0.5101875998383858 -0.18970627565231846
Ni 3.051954072845493 8.33181204190361 12.394945010820487 0.25138704049156707 0.10812208702092346 -0.16580967154037896
Ni 0.1412243319620213 4.8427408422998965 10.297768964194184 -0.16779070652614975 -0.6283573009032984 -0.3986032653004748
Ni 8.646002111879547 2.1368916365702595 5.554243947388916 0.3021645281547506 0.9281872673876015 1.0756755149109731
Ni 3.6630854118530394 2.5711098810755324 11.672200383524402 -0.6860582551591926 -0.1418333632304396 -1.0837662623389077
Ni 0.9722724645382201 3.5078462033541076 12.594396237530486 0.4546754257036944 -0.0005034219989797781 0.25703164037185405
Ni 2.9316278823836104 8.306914165357272 8.035493897094597 1.0856886761726012 0.4253733343054674 -0.02900435765215005
Ni 5.536729641341049 7.852539206868891 3.3692380900484062 -0.278575685091217 0.4618786283203529 0.3081567411824435
Ni 3.0247262535537955 8.315087026537698 3.601099000962067 0.670627008205787 -0.7707329097904534 -0.3699138677855823
Ni 3.398131186248027 4.6062516536459395 9.479541838267545 0.5236954045168335 -1.6071886157000128 -0.13934453537031485
Ni 7.285938672812376 6.052152712072175 11.292184915599151 0.02855570015050566 0.733262423648821 0.2774989070872705
Ni 0.5011137905760024 0.22676845078145894 0.4004295593046474 0.2902790895710743 -1.181430901471933 -0.1524155096216601
Ni 4.683121702671122 0.3843412143400839 1.3676646515042576 0.07941726288706322 -0.8804300546079805 0.552630599493945
Ni 6.1555913330231204 5.725464034500978 0.33456081358332634 -0.8540235395899938 0.8752153431762605 0.6286789459087754
Ni 8.025894171752283 8.927040167056203 11.380160121965297 -0.0027932464744209956 0.4524123407011305 -0.19086044386141968
Ni 0.2977991936859091 4.7522072143067735 5.61312828334566 -1.2705245111064958 -0.17363482401175256 0.8203500585969483
Ni 7.9587954330002715 8.795958310665164 2.4161397899944754 0.15151433796362937 -0.5226661919213709 0.7263782949344781
P 8.47886935843628 1.6159778480516211 3.483939907092422 -0.0943206623614569 -0.19845599682049048 0.1545415548257274
P 1.8388395808809779 3.3497803588889066 1.5034470319222732 -0.762372710751216 -0.949694802442074 -0.3179454451380911
P 4.659388797497464 1.2507818996811555 8.152969971547039 -0.01143241020665773 -1.1761673390801488 0.3025640775860144
P 8.596088958571018 1.854562179019235 12.487228805108382 -1.8022980646457738 -0.2111752441593718 -0.33722074842793537
P 6.384476600004239 7.825979665728964 1.2283259476245272 -1.4481525154380415 -0.5124236882577562 1.4952039603998895
P 1.7662410935556194 3.0731583579854287 5.927359894936436 0.4575373206325217 -0.45745941620673475 0.7375381682060395
P 6.873340129595436 4.104510223454423 5.893907154968862 1.256902806558003 -0.3047484868318429 0.2850857182955929
P 2.261408111659455 8.271513484885148 10.269033906746671 -0.11531603366620138 1.7110665827326015 -0.5251732746139408
