# total energy = -340858.02418977657 ev
CRYSTAL
PRIMVEC
9.39836305905406 0.00000000000000 0.00000000000000
0.00000000000000 9.39836305905406 0.00000000000000
0.00000000000000 0.00000000000000 13.75545433801820
PRIMCOORD
 96 1
Ni 1.8977362349460363 3.768423981445174 13.365308508325857 -1.064049500636271 0.3780735207782392 1.9908311459255972
Ni 3.3282422563239265 3.779185106973909 11.666426595115354 0.7588047908942996 0.8028331327591077 -1.5278556849966396
Ni 3.073067305030755 9.181486284745702 10.1219513259434 -2.283348380798571 -0.7897963541798075 -0.6766850414744088
Ni 4.553206080921526 2.8351853414868162 1.916973743980768 -0.05751634904891385 0.6924608162514267 -0.20756387265902965
Ni 2.5897095007138664 1.7502101323918424 1.8689951013395525 -2.366207836597964 4.325186613899654 2.2235599478860286
Ni 5.333570949831498 5.621893927098336 5.768954810688624 1.443489048524101 1.6809383958886535 -0.8787182141231963
Ni 4.857882209646878 1.4108446461760442 12.051593123286771 -0.6923803407224786 0.8215718468191916 0.07303347084790647
Ni 8.541927688911281 7.457835925929585 7.09862579643525 0.6519595137032708 -0.4552372117444353 -1.200513629134997
Ni 7.690887130939226 6.018880776298129 4.908977349428119 -0.24915840827136443 2.542395251828241 -0.4817920794148283
Ni 8.531984220955472 6.436252674643621 9.351150231127788 1.1098745293901853 0.3076288937034315 -0.0634846508172068
Ni 0.43687162170533456 4.40056726894582 8.588135679980782 -0.8502342477508905 -0.6676229312721406 0.04089082467709087
Ni 0.9589995526869712 5.92766966428383 5.715721543345997 -1.5123259647921568 0.23174484078060734 -1.2970786074459404
Ni 6.007245603019024 4.375652208878853 12.208447101026355 0.8180674332103588 -2.3074339609928645 -2.099586238544829
Ni 3.465110615341364 7.25789515344198 11.100197786028009 0.6889394333617296 -1.704804403872974 0.2114683499197584
Ni 4.99785202842369 6.199385734293659 12.581976576246085 -0.5976161630656998 2.080650577982591 -0.2375611903520683
Ni 9.132455025458881 6.622001919141365 0.45047011299575074 -0.49352222336756296 0.9838390524239508 -0.671335090016405
Ni 7.2703761793827315 3.8700014877461055 4.598750547569779 0.7522407645235367 -0.30805826793136626 -0.13795048323626566
Ni 3.0323911903684273 5.014449537317791 5.715858759444442 0.2607258013939897 -1.5105009957682758 0.7733778036124681
Ni 6.05575995234595 0.1559169609577349 4.509450122734512 0.3671105940088323 1.5407078583689593 -0.10138605384867057
Ni 5.293552720572674 9.70775701409683 10.06939098138493 -0.23702074446756596 -0.5390217504612588 -0.16047771780450426
Ni 1.3201222490329192 8.14677352047839 8.385682725088087 -0.3511065052710921 -0.7343772539795547 1.0957496599530288
Ni 4.421967341285495 9.058461714290557 2.7970204693932907 -2.2495643423695904 0.020787369058996457 0.37640127528213885
Ni 6.391328499947242 2.055234000544761 2.9180131137878997 1.3740219548712143 -0.45397557142319234 0.5334738240598361
Ni 8.145091213518004 3.643294177698819 10.408326022579576 -1.5703485640535277 -0.816808106881961 -0.8685556717678978
P 8.660694800969468 9.036591723805522 8.550748052499682 0.19298366085200958 -0.8505625776245866 -0.9677735143206558
P 0.5975385152763644 4.3769397845971385 10.988902372481041 1.7874764262519085 0.48738320034936067 0.10798941809780112
P 7.102765775295868 4.892966298379426 2.525336353817345 -0.5341289411453317 -1.1540915902270317 0.11772464310769404
P 3.872661224448841 0.2741868996181306 8.081741548342077 -0.08917717048730449 -0.32511728029618203 -0.16355095741318929
P 0.8607951188334306 4.865147144174138 3.337665054974677 0.9070121759718831 0.43532376064996 -0.25234297664693317
P 6.790420582438247 6.762526241329701 0.9943505549260835 -0.18283885910852382 -0.20853266433020218 -0.4396954073550944
P 2.494419499197846 9.28793214303256 1.550170677093713 -0.644701803699593 -5.440047283650521 -0.9556013977344964
P 6.061812498058181 2.7528368856939993 10.603831707611278 -0.05364041103327536 -0.9745373154070508 -0.21504166909331351
Ni 1.9329049089447492 5.891814909792892 9.782645049413915 -0.4695299742180236 0.9554664148185287 2.3848136246246088
Ni 5.180697178783111 3.1327093160397954 8.536799942109118 -0.13831660832643275 -0.3950975661400615 1.2893136187885408
Ni 4.653965929649532 5.578576872459087 7.973335191552779 -0.27038132220588273 -0.7515920751959443 0.4068516213521961
Ni 2.985342985655024 8.908849175170968 12.837332915943366 0.5167534259813616 -2.2944964269955905 -1.0149224040923166
Ni 8.402700340804138 6.671709860557503 2.7338550121303435 0.780285843586211 -2.2259947825797664 -1.2180606368798248
Ni 4.48407172337622 6.258228884455589 2.2711219152132887 -0.30163333824162886 0.7133073206831327 0.7475736980651705
Ni 4.718109756491118 7.915442215880766 0.49247233666428286 0.14390952903317797 -0.22405055746014316 -0.3368371398362715
Ni 5.208591519891657 4.304130667155121 3.7429140050061824 -1.011428274896129 0.4657052011552947 -0.48729938238630266
Ni 9.297809822448018 2.3012643447292347 12.286647119431937 -1.3755281071030954 2.6833446697918304 0.6968430044795224
Ni 3.124842886286476 2.5800197885565512 6.703308096487774 1.1166694408248317 -0.14489143333047302 -0.33315866254341975
Ni 9.40400192493638 2.8509088026305487 3.585455712531668 0.14715657521556594 1.9123394801765967 -2.6525834773495736
Ni 0.3128057126400735 1.0441111271745025 9.797569649710539 0.1890871540110808 0.5508552527610772 -0.7469862009928168
Ni 8.62273481318732 0.868458543947955 1.8589397928651474 -0.49699655506940865 1.395427417130184 -0.4625836248071775
Ni 5.641451920308202 3.572919236249765 6.280781196087687 -0.3245711779847249 -2.266360845101639 -0.033492218220174584
Ni 4.222214536056035 0.8851124430194994 0.47291528329070687 1.8636985792404417 -0.058214917777835225 0.9143110236261416
Ni 2.114349703230999 1.4938791824610862 13.130749805905904 1.4273070394476 1.9877280815202414 1.9570661336600104
Ni 7.877021708316164 0.35071494926252345 6.357413567560349 0.47454156850000206 0.6819393478948127 -0.059838055203555014
Ni 3.815979697755566 0.21467646568979043 5.687756714515648 -0.23267943677973477 1.3648022360451593 -0.4705116214050025
Ni 7.19714413560989 2.9313493907532053 13.519355195065062 0.5195132481146859 -0.04904662101500585 0.5412272427530098
Ni 1.058321451890177 1.1447957889992513 4.4323647501697225 -0.03991431969643448 -3.1583670345829926 1.274751918924282
Ni 5.696187985879689 1.1556414997941509 7.277487920594603 -0.3258055646124583 -0.3361815085301436 -0.5469464046249742
Ni 1.7801909100657851 0.6209930697475529 7.083164549616628 0.06654837734419505 -0.5517952480768432 -0.5168123042437551
Ni 7.124945911756842 0.8381958153867965 11.958702523820957 0.6715070968178951 1.296030111576768 -0.2178421146565861
Ni 0.2546195080453567 8.53671159749779 2.757968391841326 1.3828428955969538 0.039073568962694 0.9015928047285247
P 6.7534474227613535 1.1294012705572705 0.7257002308965796 -0.5172308798384124 -0.5407580164260751 -0.3204638406845707
P 0.9400148596144432 0.7506199901449995 11.751243061007601 0.7277188681227725 -4.93422670253158 -1.6907913774233332
P 7.258938371724678 8.031248843623187 3.7154717251534723 0.4426897140967279 0.34908381841410846 2.6645061969290884
P 4.41937339312311 2.2951554088395603 4.1717265305186 -0.13725628538271845 -0.8725221126148135 0.6897411033274186
P 1.733302477521804 6.031587362948652 7.709038189221886 -0.08482712104872488 -0.24013589305778002 -0.5143036788892884
P 8.395642170260837 6.833183133665971 11.575063229621959 0.2987133363813565 0.016805244482796865 0.2945448068259637
P 4.118992316246345 5.054204612415213 10.006707660139119 0.8179175378960559 1.0162226109609789 1.2356037879699107
P 3.242707755505571 6.142018127108159 0.12019754289266077 0.09094917478606272 -0.5508315986119933 1.04205037065736
Ni 5.505382422137876 8.080731224329552 6.144849853852096 0.48038799997845 -0.47973314000327055 -0.20609088765792896
Ni 6.488310206786558 6.137610294904686 10.383180702621386 -1.3391014888449453 -0.23067243365203502 0.8650674561089811
Ni 8.088024353945533 2.7394066250996216 7.740111056665644 -0.7731587456231266 -0.41144258315698823 -0.05415797409964221
Ni 7.0110941434991165 4.71589174284502 8.355846682202914 -1.3002464636509605 -0.1618545435473729 1.5464529883828526
Ni 5.482365831378162 4.669294659551162 0.7077850715228902 0.5739414451565793 0.4464242414384957 0.7169423463325588
Ni 2.3676919737572684 8.011925809486 4.266446991242444 -0.6370265465425222 1.165085113124058 -1.0784602767449618
Ni 7.341803737477391 8.507990200453412 10.184537844051263 0.14696477091973398 -2.49538648717887 1.4287021200229135
Ni 1.1187811204721436 7.724448684880809 11.658132539849756 -0.8509677834828056 2.2602796719045655 -2.850000748492905
Ni 2.8216516989004594 4.1504486368967175 8.532549062566195 0.4205095784552629 -1.1122923948030585 -0.7867495969336837
Ni 1.4877514498455968 5.924154676556539 12.645966269935993 0.38571278249105184 -1.4735367598391012 0.3248180038882083
Ni 8.938923936473982 4.427202229424802 1.1147708390196447 0.24224522609129895 -1.349670008389411 1.7840416895387468
Ni 0.6427014083905851 8.822910544747604 -0.1726159721712338 0.26043680939866115 0.6957991365960404 1.3874228016581525
Ni 8.349947329806069 4.891678722661141 6.665879116209882 1.1001752998245504 -0.5802619880579684 -0.221914742064063
Ni 1.9679232091369467 6.989891436780492 1.7164051608509632 -0.047120864747202715 0.4085115255531223 0.04336011215318984
Ni 3.484020121510635 1.9339011354129114 10.084385129567064 -0.21828100196621764 1.8422306391746532 -0.9962595375754907
Ni 0.6263153626618958 2.697179780557608 6.523331326487628 0.14822049770370602 0.6515381098951359 -1.1961280984727916
Ni 5.192567311134895 7.739721024604996 8.462768097652875 -0.8417609201725568 1.725731383833628 1.764583066593503
Ni 2.33230713741169 3.005765628252352 4.314604202778897 0.9907481208389581 1.277384985671755 -0.3571938491157526
Ni 8.600761440710304 4.708034711454608 12.589308239149986 -0.4835735967952833 1.3172800220944798 -0.17892255477325317
Ni 7.677804609772415 8.512031496503504 13.577981243043835 -0.4095520510024946 -0.2552033289138637 0.00048053918084433364
Ni 2.8040767602640106 4.516383295051147 2.0540742425620135 -0.5934682023355973 0.34496516826004464 0.15790944285669578
Ni 3.035549040305244 7.3993123201065 6.612425927175227 0.28910229565415374 0.563551874392139 0.5571184600619695
Ni 6.463940251768208 8.744706766996858 1.9794512410789085 0.7191408966457744 0.46856478209127694 -1.0415407780107933
Ni 7.217623168384662 1.0495245842090453 9.170760872996015 0.4175070441835132 2.7687369193154057 -0.5612857040657817
P 1.5655510979913327 2.347053168813075 8.476674855246648 0.19332433202087995 0.215032670232249 -0.12093569384582399
P 0.6037263974144597 8.161820299492806 5.465523025212184 -0.2336225174192944 1.083577029146237 -0.10662441942947444
P 3.8548607251026192 6.659012672269887 4.683691071852399 1.4169817462621919 -0.05017636374407488 -1.4790003540568335
P 5.926513665646245 8.38489044309501 12.097742844506248 -1.0776714622950796 -0.22910071828954093 -0.45972532942277594
P 6.575517616202393 6.5948124552508585 7.360034681844762 0.9586826077629811 -0.5031692595390238 -0.5052996756184652
P 0.5080482435103723 2.3577954976159954 0.8215578935321945 -0.08944405099544596 0.37589913883473974 0.048515431101884186
P 4.141294631425112 2.985850497252012 13.493481501981563 0.027351138319443215 0.5188277920118871 0.535903002326619
P 8.021126806772141 1.9447280494819967 4.736911181486956 -0.8619664485861541 -2.7214887849617195 1.6816662751936133
