# total energy = -381171.6951596418 ev
CRYSTAL
PRIMVEC
9.22298313599108 0.00000000000000 0.00000000000000
0.00000000000000 9.22298313599108 0.00000000000000
0.00000000000000 0.00000000000000 13.49876809294165
PRIMCOORD
 96 1
Ni 4.3625170724011655 7.981172897161457 13.206856958355194 -2.098499176128237 1.251505803912148 -0.9546038097079173
Ni 2.8290301354892993 3.0509351063922967 4.326260603942447 0.22823708473766496 0.7893011597109438 -1.504286382317132
Ni 0.4014912066234787 3.296229562175177 8.298219393764539 0.09476057811235293 -1.0462551527673272 1.0878931400230878
Ni 2.7868626572279322 0.6251854362278547 4.402839031764873 0.03818268171730843 -0.05052449111211299 1.0092891170659393
Ni 3.2328307770551774 4.567949795671878 0.7495693518175922 -0.273165055598607 1.2855875760872053 1.3262588285543222
Ni 7.743201489878036 1.1629535950154442 11.058933049599943 -0.09447852809555987 1.4126147275427479 -0.5503214917447942
Ni 6.19219088527225 9.041788272844412 12.4740088747108 0.8300600867958607 1.1650781711455225 -1.6531216307867012
Ni 7.358234179591623 5.110639338186559 0.2579327093833949 0.5073910109298552 -0.9400017435240263 0.5875166127378527
Ni 8.91497225663842 9.070517864879445 2.7120513529476926 0.763308592301924 1.3267249695574634 -1.525395139271289
Ni 2.2683188841988717 4.077370107089114 12.202683471717751 -1.3550330724735373 0.7959618595605712 -0.6136194804724915
Ni 3.9801045284048655 5.677456204220869 7.772442035171088 -0.2921169141107614 0.11525381296969829 -1.599559124179213
Ni 1.5888986187566372 4.704311599279559 2.6517653245891126 -0.5949098198781303 -1.30771526122418 1.1514441253018555
Ni 7.065681158933141 2.5104221878648594 13.127443385559552 -0.31374837633760805 -0.13920415313770865 0.6373366215837732
Ni 5.934085706106816 0.46535483008651746 5.483685020651309 -1.9140001557084712 -0.1141019587534422 1.6202145956460354
Ni 2.3369471006780573 2.483426516633227 1.5283571137690455 0.3224878130931349 0.49658312168107377 -0.21175837035635142
Ni 8.976305093567136 2.928315547449847 1.257195879873341 0.5752650490640092 -0.4492804799403682 -1.3920181343383187
Ni 7.973776064798024 8.080347633326044 10.491310094851716 -1.3378398485237024 -1.079889810102637 0.5352167748928719
Ni 7.889238202649359 5.703317448543894 10.755170415407154 -1.3633996992706778 -0.49003760725307216 -0.3181663028996456
Ni 6.954571882770698 2.9579120998865767 2.402726337709531 -0.8090289771571745 -1.3906140549019406 0.24357551486694826
Ni 5.715298103456737 3.8955943352051916 4.337167703634462 -1.369018588119352 -1.0641047793542384 0.04451556591387172
Ni 8.91402228938975 3.676806732555113 12.184284542937437 0.00041240494707025745 0.672032887414378 -0.9193879239284166
Ni 5.006373515407741 3.432056432769044 8.509974471879557 -0.1539301464939736 1.0243113015063843 0.28300106785242224
Ni 1.947857116992075 7.755228259705862 7.3066804715344125 -2.2881350035539367 0.9555381485967286 0.4306356111456712
Ni 2.9046862650120464 8.006748229011581 11.136213346428427 -0.17947739883545866 0.0726999987678877 0.8141192471958882
P 2.920715809460484 3.726804523380763 7.4827582845229115 -0.37395204241069796 0.5749932834598613 -0.37535869295023744
Ni 1.0724761318168405 1.8010641196150137 12.619768897992222 1.2606093088753128 0.42855404602629427 0.29020889845477116
P 4.991773533323808 3.521261124314089 1.8762203634593335 -1.1470413682484697 0.087074779432321 -0.10785777761594327
Ni 1.328994957906826 5.4915300899883865 7.83834301557812 1.216403046671744 0.06834223601982424 -1.4396285371274304
P 5.8887824136265365 9.141774631512718 2.472258406522403 0.5042684061404735 -1.050733757363971 0.421855550960196
P 5.528431244958582 8.667012358769464 9.789198524342455 0.39531970945319655 -0.6488788178954179 -0.5497373371065499
P 3.3735366056543508 9.30248511023195 6.4592146889955915 1.439943754375004 -0.2122481655085764 1.0340632386868256
Ni 8.588995145599537 9.135161752704011 12.941471156412085 -0.39074597403958516 -1.412781077917283 1.1794850905994718
Ni 7.469979841580845 0.9191237489324553 1.1766700153282843 0.6357152839302664 -0.7034985621228271 1.2198475535769184
Ni 7.205381682385664 2.401139062335782 8.922429038391332 0.600453889624811 1.4793533665208782 0.09988967180880216
Ni 0.02028687339976026 6.700543262089847 5.775569375042522 2.168585905642994 -0.5013892848204655 0.7096794941225585
Ni 4.415493886734781 6.950707452895038 1.5468777859249188 0.3170198480000282 -0.41947882319790336 2.113450398121431
Ni 5.940145205935713 6.476627680893549 12.298848748530482 0.20359228960579132 -0.47533038294988456 -0.7660424462933194
Ni 8.219762244305665 4.695854123871494 2.4270787020142803 1.8123276809676339 2.3733359630023125 1.5391456560881622
Ni 0.5994855941072729 9.204776828363855 11.143867500017471 1.6357546002631635 -0.47535789375371035 -0.344494142160897
Ni 0.8509760498674032 2.132676473264941 3.364392018013024 -0.6306622948873913 -0.5514021264034826 0.41419880574588663
Ni 5.283810066934468 4.317739489951704 13.258166257362989 1.3176834281804854 0.6194815956802235 0.5556025376380754
Ni 1.7823783560634978 8.487422433855784 13.346717961711862 -0.004752169973004719 0.8078632389838474 0.6460182085181713
Ni 6.514654039789353 3.5267487991971844 11.253936423697876 0.7677578863225294 0.792552576768706 -1.4574701932945415
Ni 4.197711589231354 2.2010280002542224 5.903416520747559 -0.6179199076200583 -0.3650087171744811 0.7800431314477857
Ni 6.3894704915737925 2.8035378104861457 6.405043498363889 -0.48051012737861115 0.7528663139226777 0.3042239817869406
Ni 0.585986836193157 4.992852622334432 0.5434292257510249 0.8506908756723349 0.34776767070584624 -0.9379314912585589
Ni 3.1662408398182844 7.043665898519781 5.680173295011725 1.421174958407933 1.01672860406312 -1.4957112390536111
Ni 3.9217783839331055 2.588042812765925 13.074636274113075 -1.3906055702615083 -1.248605085325585 -0.7839000433000306
Ni 5.140946060314042 1.6931275496034686 3.484733500155264 -0.8698635919460437 0.04549335644610874 -0.20510332693367903
Ni 2.1705460414498 6.684246251134503 1.6952700485536252 0.6444169254693224 0.7476490313877963 -0.5050129976159818
Ni 7.443288528788108 7.831234862582487 5.6112490207783425 -1.5584145316201032 1.6323198635500016 0.18313890684744588
Ni 7.286857514179391 9.423951796299798 8.668098826166487 1.4275785479414318 -1.484959656964062 -0.505071361657743
Ni 5.230436664331989 1.1480769234416064 0.7876990081229609 -0.6023009701358789 0.07737606408731836 0.11683195609009557
Ni 7.514821984911285 7.299216311395103 3.053137554731932 -0.5070655092696363 1.5356096179104457 -0.033270074907039475
Ni 2.500599710973268 3.4260891627701144 9.7432487007541 -0.332335395311176 0.47785700602648024 0.5857222398415913
Ni 7.590385884604064 1.0018926429423338 4.277273652053245 0.9653512780324084 0.8276437640448843 -1.178065584544126
P 3.7275976999184883 6.216281316859892 12.070854764253 -0.43872944389739926 -1.2968014425251537 -0.2720257997878412
Ni 2.827600573124796 5.861178025517115 9.784932894706435 0.4844241177210367 0.39770954984161183 1.0559826644677361
P 2.985802400468898 7.760005764898205 3.5195198251242927 -0.4321525620108299 0.022534433657090222 -1.1167799982607671
Ni 8.359527328639164 4.896454004051884 7.0801169719197325 1.382976850071657 -2.4453528196602465 -0.9342815532107973
P 0.11761793526328546 5.123735974042015 4.324114415799091 0.0771804031367445 -1.5252159333809474 0.43020829380026554
P 4.190379317748898 0.7236924284234718 11.939443857918 -0.3240752121849128 -0.5403751791653597 1.2937636841400943
P 4.870786442371791 5.709432286270773 5.299656996319568 2.0799787487265466 -0.23765503561745518 2.8275133660236658
Ni 4.346782663408625 4.276761776496922 11.142436093056368 -0.21014448890201226 0.560200441421403 -1.2221165521167534
Ni 0.5758609231609708 7.014456711368917 3.4179019207638555 1.306093409350041 -0.047403686094944164 1.0419400703317412
Ni 5.498290536525041 8.15508146454911 7.456948688904668 -0.34104860681445776 -1.0347055002565146 -0.7292738713147181
Ni 2.9975432578238244 1.7110109136342628 8.30172873879482 1.3340875805701218 -0.7145851589542919 -0.550738781787871
Ni 0.5437234389086228 9.15467758472524 4.762095432351108 -0.32381141700056487 -0.23490421234519543 1.5366108054814505
Ni 3.3028885558988663 0.40879765375354327 2.185450381972628 0.1502609251725025 -1.3633212806242585 -0.851206896076805
Ni 1.005701734920012 7.609237661849522 9.51812952027672 0.39099305705338466 -0.47467578008502126 0.3555378015695683
Ni 6.628825346306734 7.667001204358477 0.8447892728731501 0.7052373991908047 0.10134825863219966 0.2694410697798005
Ni 6.086928980329778 5.619028606936143 2.4952070328150397 -1.7635422840338146 -1.4225826373887371 -1.86295090244114
Ni 0.588355298226735 5.0643491865256225 9.863427858395596 0.19225758131926243 -0.4228641947303685 1.2631958386555666
Ni 5.397261980778098 1.1667073490951414 7.8620202575275036 -1.3253502006971238 0.4905646834011358 -0.32492881843445975
Ni 5.27011393718422 1.6310199821030205 10.320658162760234 -0.3502714109643065 -0.3680816996728499 -0.19423938763598161
Ni 0.9680442953440794 6.626519600557534 11.872368791775475 0.09630812510513091 -0.30227662825258267 -0.19217787712126258
Ni 8.473357384785665 6.929826619390283 8.161840988787462 -0.3980831311309467 0.9534768951923256 0.2504329041084139
Ni 8.415870531766613 1.9025077095968117 6.636169607667086 0.14352437777961732 -2.894753627228563 2.1464877881923745
Ni 2.0737785038473793 5.0491681565128905 5.373926911497896 -0.48592178531248564 -0.0914525967850425 0.12029214672455411
Ni 6.4928970228999034 5.978429808355427 7.015971125176991 -2.7557839586991637 0.28331911331347337 -0.49488490804304447
Ni 8.271936659118559 3.2483253884898002 5.037969610558176 -0.2612647046165952 2.442534119264529 -3.000001735135801
Ni 0.611899729220965 0.9098933875492584 8.93367369926103 -0.9461101704146092 -0.8851675692929658 0.3240232759010549
Ni 5.557520533330488 6.346131694471832 9.442293542585535 0.4400911001316163 -0.0506630735725063 0.4305422801009165
Ni 5.2247368608399665 7.722173088645333 4.2720497544838585 -0.05984036919640017 -0.2765946501054462 -0.7253259424105637
Ni 3.4869700735319884 8.032092986286788 8.893811966748864 1.400952203603155 0.6690990015970347 0.3312431906882618
Ni 7.0692596763359 5.635076597350575 4.4752468266761465 1.4704393518606997 0.22209909016072718 2.6215757161141497
Ni 3.7451674825273913 5.558986987626979 3.6465710273967056 -0.7779134866992926 -0.14916075012978827 -2.2282365274260916
Ni 1.1438343512630786 3.0171236507260293 6.0976903568904435 0.9692837803175952 0.9655873053026144 -0.7631134455719826
P 8.824402563609848 8.902364438881795 7.006994395826206 0.342638577009397 -0.44625660551237983 0.019561209961379215
Ni 9.267345545014143 7.275522468076324 1.202468543366932 -1.4811346267910168 -0.05427033130779041 -1.74483416610135
P 0.7439156632405542 1.0509127975703234 1.0687850940215213 0.015777060328598633 -1.9145567995428898 1.3457655311286822
Ni 1.4348010188461104 0.9442121072803493 6.873937187026279 -0.09686939692523963 -1.1260272278906478 -1.7592518841885765
P 8.212153283333304 6.648221279549004 12.665502903778451 0.3001917206990959 1.6387535349904874 0.36535967275599657
P 0.48348168086842724 2.243186255532593 10.563785217538866 -0.02344460417618543 1.525619082356637 -0.002922315853117548
P 7.0543737817790655 4.550997952923761 8.757649379573913 -0.6562136609939344 0.9129953901385115 0.8404321740588042
Ni 2.562107784578924 1.0504885403524704 10.521290323381113 0.5672056690946425 0.6992084193879056 0.0618525145304225
