# total energy = -381163.92631512653 ev
CRYSTAL
PRIMVEC
9.30943684447510 0.00000000000000 0.00000000000000

0.00000000000000 9.30943684447510 0.00000000000000

0.00000000000000 0.00000000000000 13.62530183419491

PRIMCOORD
 96 1
Ni 1.6796272052537595 6.437903777169172 10.72034617528729 -1.1223016994099446 0.8162069829628524 0.496673367402035
Ni 7.0281593076583 9.07662639869181 3.2794734681263003 -1.051010922284758 0.5230307743496411 1.6927479869290718
Ni 2.148403895017497 8.45002682695876 12.288046952910019 0.1070180553234673 -1.5776461261562054 -0.09021281084067044
Ni 2.330124101237101 5.955516690812552 7.480181804023808 0.631023791991868 -1.0015547245361591 -1.6241141878107577
Ni 1.064040697248057 3.516379084717277 7.647922959953487 0.8013226096518522 0.8839673783372776 -0.6092372922443959
Ni 1.599640524319393 4.428787675464058 5.307218683799962 1.4204306240427407 0.023385468803475855 2.5225113684201204
Ni 4.545304586378226 6.808065602973675 8.043928713241916 -0.2123132144185569 -2.0151183006077362 -0.8407183378406552
Ni 8.123135263372943 3.636805959084941 11.67053432243163 0.7452522490208455 0.13654331847609388 0.4109422464818019
Ni 4.884801127383171 7.813466157856093 3.5154230055585294 -0.23432314303074483 0.4086022854947156 0.08842846524673803
Ni 6.227780479290961 7.769618710556178 11.642711208685292 -1.2548868045692387 2.6555001367757365 -0.6496900009428036
Ni 8.10382749146211 1.1768059051342283 4.782590027990399 -1.1415844588989565 -1.5008344192127894 1.2091918736352854
Ni 7.753960237868608 7.313968326672033 4.792550194416339 -1.1400194284046818 -0.7134800988155712 1.072327938594979
Ni 1.084577314815703 3.885730989520699 3.313277895012808 -2.0688412440524884 1.3305080907489795 -2.9359810093094665
Ni 4.732573216927077 0.48916714917371706 12.09129759193012 0.5297176994515135 0.8925792883760046 0.9021121675671044
Ni 3.9875762280474647 9.245527510446024 10.126242123627506 -0.8414346471813896 0.5934378633182942 -1.705509143249482
Ni 5.980391505926219 4.340348025920706 12.649280097885361 -0.511837476736983 -1.3355186565896935 0.10247414470652673
Ni 7.758587027955244 8.213213373792044 9.362339530506562 -1.7094953815907399 -0.7774416892691967 1.135651124133657
Ni 3.2710754251944 5.2206949163488225 3.8146348207246374 0.9500940947630216 -0.08838449938268003 -0.1676634369196661
Ni 0.41665687692864156 5.433238667793484 8.814548065009756 -1.144029063784707 0.7167209743503722 -0.4200061564562831
Ni 0.5210165943334767 3.276940370374643 9.834934020299535 -0.8829489643750922 -1.041900218232741 1.4211577320167526
Ni 6.427011736120149 -0.004793429005249697 1.255805785768427 -2.6662434913351696 0.9899410515566306 -0.719757961404483
Ni 2.34289664851852 3.2702748136301123 11.700686657263837 -1.2711338625557207 -1.4981378462172328 -0.762120485531094
Ni 0.4130364369594405 9.098941118687115 5.796585054921072 -1.45425991388736 1.050161686910585 -1.7225041351455819
Ni 1.1672916607307224 8.919334154619758 0.9962987185288874 0.8222043381968678 0.06290769526781424 0.11292079396114744
P 0.6228199403946694 7.072230181441272 5.11480193470401 0.7597422151069044 -0.3658898342278537 -1.9877748755977769
Ni -0.0892300207271661 1.4740003653470684 2.6868961641007405 2.0035246822328654 -0.2555781957547792 -0.5086148560346273
P 7.308857445872106 4.55981799834013 3.1775975084581143 3.3058825357998742 -2.3692682206908424 -1.9426381311601382
Ni 8.764369269746217 2.8678930270814473 0.4640344626608551 -1.4949023699990707 0.5527660966305448 1.3121853811803916
P 3.2438825603190176 3.8481581026199647 7.73990671208433 0.8650556290344391 -1.0896762000654394 -1.2823664980467464
P 5.690458406412729 7.0803573197624665 5.7616085699421955 -0.356596838961702 -0.37112537159518016 0.5038709135917387
P 1.0564069590769467 1.963127483942571 4.4775877431384 0.23133474982638225 -0.7875348118391405 0.0762972292008428
Ni 6.173776436448753 4.5511229843745 1.3372540482794575 -1.11419038315672 -0.2399122070827481 1.2028325070761607
Ni 2.6324480611234558 1.1329677672711078 -0.2640146965352124 1.171849428431085 0.2464554075179046 0.7012722438954697
Ni 2.7608996700075794 2.4881424813790867 3.2901830442141606 1.607689466595831 -0.9111588511504051 -0.8956299022768704
Ni 2.501147764580357 4.4981709078900165 9.585100388832679 0.5202758373123234 0.30992437460582756 0.32354350805115895
Ni 7.458460095152282 6.567211854238347 7.793713394866505 -1.3913954131526551 -0.8845949846189475 -0.400863007868929
Ni 5.947026484456391 5.450293556000159 4.177149875146518 -2.663068178930981 3.157451721857575 1.8524471746963387
Ni 7.277382240071467 6.009716231827436 12.455119691277886 0.7391224819740239 0.17534872137906574 0.8544768250773283
Ni 3.9080177812056234 2.456490396279361 10.042324067535018 -1.548159172440682 -0.22826562398275527 0.3601480466480701
Ni 3.495097712206108 1.1989065080832724 7.81207998271746 1.632744095571614 1.173856431558785 0.09090366626010796
Ni 2.4587525894203117 6.393404669293675 0.29296983779570596 1.4318684335660374 0.16604852702406242 -1.9005342600115527
Ni 2.04072163962087 7.231496026113659 3.290919420664569 1.0032830200811753 0.11552609279447845 3.0480453688075895
Ni 9.024111865736645 5.392463334635601 6.230128319250418 -0.34098227235289663 -1.159412745329629 -0.559008735106147
Ni 6.503209476279342 6.11771500807506 10.14128524254299 -0.6556259068112644 -0.7182204417140341 -1.423919868142922
Ni 6.378332691124129 2.4692722529975732 0.31500155091247417 -0.45086890747341063 -1.1726367002190707 -0.1462867710161029
Ni 8.396851323991221 0.4011482861734551 0.6859332671398437 2.716919420423482 1.8106392375216172 -0.06540809309216478
Ni 8.73137662574815 6.0267897389077 10.734326156520893 -0.14981226767085812 -0.27283518306301396 -0.03371744685710322
Ni 5.11804906625777 3.4039397071188975 3.586397220732589 -0.1635969801597763 -0.5402180847622051 -0.6454337967696111
Ni 2.427221526998908 8.852613421116894 6.606240737053669 0.8204629300257289 -1.580791870874039 2.3878341566184873
Ni -0.23487243559515872 8.474315147554403 11.17837512027231 1.341681847977612 -0.6390566895986736 0.6440369164220844
Ni 7.435642665570097 3.50407200927556 9.310700084610039 0.40663179203190614 1.0879821001924683 -0.21148609053157127
Ni 5.89608524631942 2.634272710735087 6.185696239319837 1.999329156094279 1.026737908670006 0.37139430898585074
Ni 2.752763222249591 0.122643451268324 4.384894611923852 -0.032497201296756935 0.41283303574661157 -0.9954833215310984
Ni 5.383833486727529 8.753151398409402 8.182225051535735 1.5435998352047737 1.838887176623717 0.6778641493841745
Ni 8.350052785227597 2.461591967642493 7.37495351616609 -0.6670488039362253 -0.1816936897604871 -0.7761265700021989
Ni 7.177268556788391 0.8244139322821836 12.362808246971893 0.2574679565783244 -0.2278601610142205 -0.1377915890608982
P 2.1562052030509 0.9035497306935754 11.188212402132569 0.054369575889816044 1.4034950246296667 -0.5626702431181342
Ni 0.5332603656049942 1.8793332433594432 12.517632559349845 0.026135777855103372 -1.112055339091588 -1.7655001790911338
P 7.323342929523627 4.435918704048291 7.0865062027649275 -0.5848969157268186 -1.065164073856688 0.4980946732295937
Ni 4.299321337969384 1.069030555369661 1.8612980714583551 0.022665302807999676 0.1893841164262093 0.5891826875863659
P 6.651611208213088 0.767092937110259 6.841877477409618 1.343383661160067 -0.18475278830178504 0.7703953239453765
P 6.292090068664169 0.36044556662256616 10.273545342019554 0.022255211853774572 -0.23897195465666587 0.11350186327559808
P 3.091468461127042 8.311167267738904 1.8580825919896946 1.2535932825687959 0.9042407838743329 -0.5633891235620297
Ni 8.47894193764104 1.071050703153967 10.359657632364398 -0.3114053300267282 2.521615081858096 -1.3798532168410107
Ni 6.16281922934217 2.5771965537508454 11.005769783617747 -0.5967299038060045 -0.6594195695257418 0.3612101693639973
Ni 4.654206377994872 6.231131876536814 12.72732669219185 0.5585546782878639 0.9325311461785939 0.44717860310601687
Ni 3.8777621116250027 3.61694893040326 1.19984676119947 2.2174013844838005 -0.47839822324193093 0.049110898594038
Ni 0.8120035220920528 6.716162842942941 1.6541658956220682 -3.274051764442522 -1.6385380765455715 -0.565960998054264
Ni 3.4304529831083146 7.2134264092964315 5.48545157499652 0.4651974082809408 -1.7692737872009527 -0.38244491037305745
Ni 3.9384410206485367 2.172142958842292 5.302463423485568 -1.7213612797903903 -0.41466366119744713 0.4288926603126356
Ni 0.9450940233306452 4.584506624717917 12.873839539400086 -0.7821462938337176 0.9140197176379677 0.22548857545825035
Ni 6.8600029508476075 7.087525586093874 1.9431587420193615 1.1294593935006483 -0.9428744370861311 -0.12444010745465664
Ni 4.27316182057814 2.7193051064118214 12.591263687784922 1.0579184480378683 0.07597738396757882 0.5470286799261354
Ni 5.614381688931857 1.8491241209627929 8.786303233776648 1.7886501348450359 -0.1750378750068663 -1.7167991143410046
Ni 4.426004153862642 4.599597221761051 5.955687984449562 -1.0416773035886575 0.4796511218124255 -0.2356953407879231
Ni 4.595705877181143 8.479109507503331 13.926693086452747 -1.265036234298415 -1.2986840042598473 -0.3298895048738448
Ni 8.185778463560018 5.104066292193126 0.7047848766477688 1.8722593243262595 0.6588030189876655 0.6492498280815916
Ni 9.596353636029312 7.308094072054995 7.201530810961011 0.23355464029583647 1.1949299643996323 2.085654973175718
Ni 8.673844306361001 3.270051387147056 4.8749145055079035 -0.6167461990269313 2.320768730428558 0.2612986431783242
Ni 0.02893931521794369 7.042281723274854 12.856412273721647 1.049457975975341 -0.41991282541152847 1.6418668838084884
Ni 1.7360144639152422 2.8839704244247497 0.9610876357428009 -0.8939288604253637 0.010783977989381428 0.4097523399387588
Ni 1.747790901459699 0.3206384148912636 9.084533834304663 -1.0786847340509422 0.5115878226200222 0.27399115104432814
Ni 5.412646193605074 4.453588015083373 8.147140577090047 0.08817624002661589 -0.11316916252652769 0.9666964792063932
Ni -0.1952626439238897 8.353124899369629 3.2948433482732558 1.87090512429121 0.03890516170562977 -0.7317917526405655
Ni 1.6758196456049985 1.6526763857350222 6.483885878325959 -0.6841211860374798 1.0439907822131826 -0.07512763437277384
Ni 3.892871327541725 7.07398035555855 10.524074388414926 1.0119214124824638 -1.129452451522113 -0.3093564179174995
Ni 4.707493594203941 6.336980172885016 1.5996516956435456 -1.7877075684261081 -0.18741516562529661 0.1801443429954962
Ni 7.153976345929711 2.1909480211662467 2.558573025444374 -1.4391186873705473 0.996615892473645 0.3314823032822614
P 7.417991973408603 8.103799563151727 -0.22838003437499727 0.21543504787699028 -1.6939155248746118 -0.21031880969634742
Ni 8.754985357457828 0.23031081156608055 7.978418206522277 0.4274171042083736 0.5892292245535852 -1.311296036596903
P 5.471165313292391 1.236693512030269 3.993139547475581 -0.28007438112393057 -0.08547169661125924 -0.5587986759778699
Ni 4.899938271610274 -0.17124615888263284 5.824897845042777 0.14419826391819038 0.5686799396473239 -0.5594311673555462
P 2.4432709960318277 4.94484699470471 1.8658894856851742 -1.246973206149117 0.2681658026118027 -0.009507425269802982
P 1.8442552855195116 7.548761632054442 8.723885321959989 0.5873929426757949 -0.10988380690703657 1.0567748213517283
P 3.1218730816963673 5.184993226243691 11.790572993284982 -1.9490365784873145 1.265916322910523 1.2668727732865213
Ni 4.715974491123308 4.658265292437072 10.66309313900396 1.4832740417315229 -0.7844394607432684 -1.1752908500124664
