# total energy = -340857.3143077659 ev
CRYSTAL
PRIMVEC
9.36456474059557 0.00000000000000 0.00000000000000
0.00000000000000 9.36456474059557 0.00000000000000
0.00000000000000 0.00000000000000 13.70598708257206
PRIMCOORD
 96 1
Ni 1.4463289532680152 2.0876330859329437 8.612554742213 -2.9076348540666053 0.8536072779881815 1.4554050832353966
Ni 0.10861303294132241 2.509684660873449 3.8445153587581267 1.7932264413618082 -0.703657970518827 3.7173929960803203
Ni 2.1724385855593216 6.46532369241939 6.821387860876097 1.6780577319067487 0.12987619086856345 -5.0749807166549115
Ni 7.119625841148962 5.855072456923308 13.719555789269496 0.3515086258055172 -0.046982025176493275 -1.6903720304977277
Ni 6.4279216202564315 4.893116257925914 5.6693721987363555 -0.6632584836558577 -1.3911359888436816 -0.10738263775173766
Ni 4.170902284628046 7.712196778136366 2.372108901646298 0.2824349109363072 1.6837113306481004 -1.7632010986443116
Ni 4.964015378693506 0.9468792495275973 3.355020187493729 -0.6948072049964163 1.062048411045842 -0.5344115053827571
Ni 7.193549716375401 7.666347868444366 9.927644000857134 -0.3447466244913353 -0.18424936630280528 0.33684228204259403
Ni 3.065171920904088 3.0366099979954693 11.886284887739334 0.21474007869249467 0.34135739630412826 0.49658235035012543
Ni 4.142574475841629 4.617442196750859 9.795107313996255 -0.5589138613994955 -1.0189680349166 -0.5678278760596737
Ni 1.0595911525204287 8.733252746142378 4.727345666733758 -0.27949845401580253 0.15880547230840392 1.3635652783142644
Ni 6.0560734776808784 0.5113033699757391 10.285013589659238 1.8218890994038237 1.2552472732324509 -1.7856386017122214
Ni 4.4108037079306674 0.9264682438975562 12.264405415876917 0.7209039020834681 1.3023431982789893 0.06340443239857467
Ni 0.488570888709945 3.4727739722222983 6.607245546211095 -1.2619023166551235 0.07775093092823383 0.6921808231171628
Ni 6.537533852271311 8.735032013471113 3.0939211351104685 1.1410028753638735 -1.9189027352164112 -1.525752779721024
Ni 3.676106769637 8.393628071346681 13.717363544629197 -0.6254956630847873 -2.0288083965003185 -1.3642250233854505
Ni 3.515635585715003 0.3091402067155577 6.388689712114344 -0.23223746414630972 0.22949872505890798 1.6972155357821221
Ni 3.4583150840351156 5.422579392132603 11.79426211795372 1.8800657077445555 1.4200169335440898 1.2986058427237444
Ni 8.621477299638356 4.441219814687125 4.457680846847377 -0.11695408349025664 1.224437486940446 0.464230159271665
Ni 0.5928041146531162 2.227605237314952 1.8255142324333717 0.054662424539886505 -1.9809359982990722 -3.335515528174959
Ni 3.4697773114581154 8.87889045928167 10.609270077017122 -0.1048804401551742 -0.87570616676975 0.5558226240686814
Ni 5.102919969678274 6.574861007915165 3.985153330703677 0.3717360085959856 -1.179411042828427 2.114386279672139
Ni 7.178809891241575 6.996013584626415 5.684119515522091 1.158432897914863 0.6200320688670548 -1.2305402574040742
Ni 2.0459326784863605 3.3273329149456563 4.948437425002198 1.6356563841224023 0.37472928689635465 -0.5613219566203559
P 3.8666663005443715 4.961355842265293 7.709316237976794 -0.29474483865191176 0.31384942069184657 -1.1206137701845604
P 4.701751374438169 2.8156343603316407 2.095562999480163 -0.1541101237152636 0.04438881052802032 -0.12613909242363439
P 1.0815135989234046 7.12847535496819 8.418190388591604 -2.082221007793504 0.9723976433562285 2.020615062056249
P 4.81246862510984 7.0438103238151335 10.826784571498319 0.614362272175787 0.1501681083483801 -0.9496058422726935
P 6.818807923249434 1.3539194269525234 12.83928949916022 -0.5070634523871074 -1.1887541746062238 -0.32201473011145837
P 7.403072491181118 6.026949680878976 3.7031385226429077 -0.555777629763359 0.45165515082013186 0.42339307065064496
P 8.007620706660365 5.18413884095252 11.214910200762318 1.0746298472552784 1.6846533828463957 -0.5726818617178654
P 7.8467749401428435 4.127815921578028 7.3659541653342675 0.6708036429929674 -0.4423724399666253 -1.4705879616234223
Ni 6.564241591332092 1.9955232256938702 1.1776221283696848 0.5694047336284903 2.0080716781735997 0.10213090243449507
Ni 4.868936951384913 8.40096989021893 8.734181710979275 1.0560477133777169 1.202368937176181 0.3860405981441158
Ni 2.3678583256436023 0.01635333966403967 1.7704299888487565 0.04644877838084258 0.03043697633361855 1.5443927634197143
Ni 0.7020942056358462 8.555419658917897 0.055324912902239 -0.8430086765367288 0.07849140863868417 0.9116702435691848
Ni 6.011310857515896 5.080725950893544 11.199394989655762 -1.7759931082026572 -0.14255661454970933 0.5285609601392509
Ni 8.367547758133401 9.239463665731984 11.41616874705431 0.7527377587646132 0.8397747429804635 -0.18385958706355435
Ni 3.4710977151073337 5.197886022208209 1.860135028824573 0.482607376227272 0.3506159387879187 -0.2302356032249325
Ni 7.946882138796331 9.520953121702533 0.9623654304830016 0.538918135003859 -1.5293093867240306 -0.7826779979674714
Ni 9.415789058009489 6.9015063957759955 4.140414070721951 -2.009629252468707 -1.6092354709267123 -0.1083203190746586
Ni -0.5056471727833437 5.114503936444818 9.075405853457855 0.1308562953936456 0.16849801700581948 2.2424228462288025
Ni 5.6581637510218235 8.763912331585926 5.076862131420726 -0.8947045622491236 0.9808509163299042 2.125361290626404
Ni 6.465820014358457 3.091842201705316 3.457403911871506 -1.1336821733327445 1.4016325174996311 1.1114547293931116
Ni 1.2913266752406518 9.47993632749278 9.850918247816184 -1.3194358920952178 -2.0373557718496977 -0.8608914703544206
Ni 9.261657684516715 5.931580952058854 6.677845000902267 -0.5459395606270147 0.4483859931505568 -0.2576371351663369
Ni 3.2574451671859768 6.890699687895161 8.617311004719651 1.0593598084700853 -0.17709192932241757 3.0449317628792723
Ni 7.234950457745566 3.503901785910249 12.951787890073602 -1.1272122493376844 0.45042616350903714 -0.2819795685664434
Ni 0.9583508415154852 5.006895721315987 2.5710515910414715 1.4765588344948763 -0.3216714878394266 3.892249865424632
Ni 4.4574111473786004 2.24223268767012 5.336015227220245 0.11066927892280941 1.1581246226458248 -0.6026786651902718
Ni -0.19917024832195368 3.637730782725682 11.756338439526495 1.9714126321896692 0.6102914445405231 -0.7136744742145644
Ni 2.9348078130972413 2.7100488912186314 7.241202241264842 1.8050373179538073 0.8639595677567832 -1.4513795070157716
Ni 7.256076916133055 6.275419681054184 8.083024183139118 -1.7506803404694815 -1.5029504371145277 -0.8224383085845448
Ni 1.1612622335102236 1.902673564828639 11.125122752615487 -0.03827035633510828 0.39805356344459186 0.19707917107762188
Ni 6.495711705481183 4.06253553974328 8.922638897069275 0.5949339882478464 0.7551751645615123 3.652415048547039
Ni 4.772491297602662 0.7031093244697131 0.9169238793636335 -0.7534432694720702 0.5040902286913963 0.6452479060110501
P 1.6018275532344466 6.2071239093254755 0.8368549766576425 0.9013287524338607 0.2086074834321956 -0.6281588117392473
P 8.847004115837786 8.89336807659863 3.247057991812128 0.780979527219126 -1.949200357758688 -0.6172547632322337
P 1.5878181641618911 3.053091632198475 13.847021564243484 1.1519094949740485 -0.24184901909414477 -1.6524734556797411
P 3.015933038722607 10.026545980009525 8.605948041684465 -0.09823439559356631 -2.322142985068265 -2.181994722849733
P 1.9904663606543114 3.877519831249647 10.113318974718887 -0.5100945259039472 -1.4281521610567147 2.2547589991966523
P 1.8972327526286692 8.48979278818229 12.13785830471845 0.8724357235485943 0.023464401670527327 -2.34656589399732
P 0.7412043744343889 1.3801495732040123 6.2929670027414515 0.5718020302160732 -0.3704347732860588 -0.7131263150205783
P 6.618031652049175 1.7976780633035787 5.29958426043618 -1.0011466904644628 -0.5931581272943461 -0.3517605939153232
Ni 7.737172072692853 1.601780730410006 7.224960339922971 3.504159326730023 2.5086456661816214 0.4576959576975731
Ni 2.2366795006914937 0.9820619198120829 13.40061743831155 -0.3782254729750712 1.1282843993559406 -0.8387606998936523
Ni 6.1285833036092185 8.640796397002447 12.033911634460852 -0.3950916526027905 -1.7728699891926434 2.413209145048166
Ni 5.733295655118822 1.059890818596847 7.3772609409801255 -3.4030591795528875 -1.107582648032215 0.294555348348925
Ni 4.731792898599103 3.616800980200842 13.819883991654342 0.109780705670269 0.5036390000865907 -0.5003027366245061
Ni 0.1256602868635682 8.723860087559643 7.151345495337839 -0.008644563048875434 -0.20048948231075148 0.754596666350223
Ni 6.203724572271105 5.575053237640186 2.0423844448502697 -1.0431160929177132 -0.6744448392899804 0.16175067097965692
Ni 1.3397133820173186 5.477774137582897 12.275863897473961 -1.3018742290623708 -0.12190731373047393 0.8638374403566219
Ni 8.38435715210749 2.6749130437585866 9.537831813456794 0.276942006142536 -1.1888115102067205 -0.039867525618899086
Ni 7.866468620102459 1.244972079044697 3.0033517457954826 -1.2384962790263574 1.1554193078995199 0.24697836990091016
Ni 5.313304284453693 3.4140675149389765 7.356784383395867 -1.3849368020115052 -0.3863126208585798 -2.0157273949466448
Ni 8.939235715420406 1.8223630563485358 12.994386359292951 0.9606862684565713 -1.3987593097168942 1.1761028043908004
Ni 9.14207219089604 6.993325954503538 1.5874960231297415 -1.5120791388886732 0.46873524623087015 0.7119284380577352
Ni 9.48527412947898 4.527261436878728 0.7233433398233697 -2.512542687243182 -1.1402122611417782 -3.685221296443782
Ni 7.001894531376124 8.312118898560906 7.493748636535827 0.17850012252385386 2.8147722643079134 -0.026424512740115782
Ni 2.6409477669095507 0.6320219759478719 4.208094590537511 1.8844273271473613 1.801635234250794 -0.926984505328752
Ni 6.028120251489985 7.887173673069985 0.9155819372151728 0.8320537201871219 -0.016594928244203676 -0.9882446376908142
Ni 8.247278651275895 0.39124590228470424 5.298528873973294 -0.016314420889307388 -0.7425556760252889 -0.7072251190447949
Ni 2.645498945445153 2.7191137900302853 2.6601535530384965 0.6955571957885633 0.03632403124201486 0.24378583110554145
Ni 1.6041967881511288 4.939648780854744 8.423042169660114 1.760576259426955 -0.9036774551716953 -0.8961886029938179
Ni 5.032311150422213 7.112883354429551 6.812684434269124 -1.032820881639292 -1.3937052922327546 -0.49048317943092307
Ni 4.209268906974477 1.708143458408725 9.844777902619077 -2.1903955453189177 0.2670337458898885 -1.5336969742687652
Ni 0.558809807652927 7.335703811376329 10.65525383644351 -0.0929507785971238 -0.839460039953522 -0.04103300668190998
Ni 2.2958448216543306 6.949153301926504 3.2454959823887974 -0.6472788203981497 0.24059792029586305 0.9057947586250142
P 1.5661111027513408 5.494620989816538 4.889103541871376 -0.6896907097054574 -0.780014077982063 -0.039120105929913274
P 5.364565912650998 2.8085453847113704 10.90190711103043 2.643959740236305 3.426330491376002 2.8537198492157043
P 4.2652970986998096 4.497613224443093 4.645328934531047 0.41357994121496516 -0.6376713792153728 -0.32594106174905807
P 8.036304368912528 0.2760139948804927 8.902559397036272 0.24073881674910153 -0.0877214118773844 1.903298453020251
P 8.040996015921452 7.7372563537768455 13.116862694094575 -0.33304810510748445 0.4441729835104737 0.5866475798693381
P 8.221114056978625 3.389860114703311 2.229183166498592 -0.37660002155650624 1.069754521440848 -0.20978067780469034
P 3.4681853354271435 7.909030567518745 5.234412507554134 0.03692541227143963 -0.8453314111326343 -1.285920791056908
P 4.7076042274932135 6.3497462325708085 0.12878805153618414 -0.13256170812052653 -1.2741255981941928 0.5285817860748575
