# total energy = -340857.2454334404 ev
CRYSTAL
PRIMVEC
9.47109245002668 0.00000000000000 0.00000000000000

0.00000000000000 9.47109245002668 0.00000000000000

0.00000000000000 0.00000000000000 13.86190115331170

PRIMCOORD
 96 1
Ni 7.529385937062211 4.214437266678917 6.216730401828793 0.6872005962937521 0.625265292241536 0.5928282547587532
Ni 0.10608191858304297 7.004441164515764 6.384431248174749 -0.34308594895946076 0.6540932722168218 0.0910360780729142
Ni 0.946361033046108 9.595353227046097 5.332173929958471 -0.6229924370469594 0.1714380734707499 0.21175348526034501
Ni 9.243558967466381 3.509020826668237 8.303154304489455 -0.08557814028213648 0.0650756494534105 0.12978028872064745
Ni 0.9847568420148826 4.756969857985852 6.55254882259042 -0.3388819381804422 -0.3897327022837223 2.142132853657788
Ni 8.009115714044542 8.826935079768448 13.503376973828052 -0.8495184526307886 0.40731339147996304 0.40215318743526224
Ni 1.1612411795393387 4.8046283954133 2.722421970240007 -0.29985284930243844 -0.03706759427625874 -0.7022796021140615
Ni 6.78874650406809 0.5528665003266261 3.9300847625271382 -0.396156346421879 1.0193850678493603 0.18661066744613022
Ni 6.317218693185157 5.697288334021087 10.699031000628253 1.7812384157619967 1.666810955348336 1.4787386157550146
Ni 9.326904581409455 8.668711008571519 11.379608553465399 0.09324542701940715 0.5797971326064079 -0.4779634496973575
Ni 7.211981214326507 9.480468875099566 10.159027191017088 1.7115021276081235 0.596714734297353 1.0119764340901152
Ni 6.211881202472105 7.736471374433266 4.222113587144924 -0.23945300805814243 -0.3214848257499173 -0.008591341213436816
Ni 8.815806546088549 3.998932028081114 12.120763213891166 -0.00914104306931974 0.406951380154854 2.0120430041165216
Ni 6.374869233193279 0.7280703461459568 0.8774351574244365 -0.8013251807550136 0.5360379852425865 1.096681427738679
Ni 4.811864310078358 4.5070940247290245 7.010116243137888 0.8718381991739115 0.9234944898976224 0.8245121603944381
Ni 4.308437859677212 4.564981342049485 0.7106245937728728 1.3824042653976385 0.9028084223031806 -1.218802657252172
Ni 0.7791678372578057 0.16954297383594724 13.437643803485951 0.6572773263717583 1.5043992537459123 -0.6204604146537249
Ni 4.337419402707416 6.573970539592287 5.189660506989811 2.542609938942208 -1.8617962200114064 0.00017123547054164056
Ni 9.3389896954312 4.452019621879142 4.542156956249325 -1.38458250399588 -0.5715480052237383 0.4876943038318761
Ni 2.9209985781148737 3.217481657532367 6.442997642826995 -0.18933500835582875 0.558389099244277 0.009226146583958305
Ni 8.16157188991291 1.3434460569298874 8.141274391590024 -0.2640906041011645 -0.7012563030558697 0.5597911217981262
Ni 3.075254261557012 6.2671355560793645 7.477317658969775 -0.4701102722015258 0.3919981012791314 0.2416885822568805
Ni 7.480287793575747 3.2844896369240986 10.12724125749955 -0.09068126583665673 0.03740132346659365 0.5030481605801271
Ni 3.2866490460126236 0.9099437352992321 1.8722304103732124 0.395768366954841 -0.5889217206154954 -0.0878309408720552
P 1.7835677251042716 4.9894378232395695 8.722892287399262 -0.24789753928106983 0.014389178842136509 -0.6237447418319515
P 5.819257063152779 2.4337676958776657 12.127056754853118 2.381366289505957 1.8812988088207083 -2.1850854459599143
P 8.97285620181628 5.273409589473109 10.469256614079695 -1.4625051846152877 -1.4493488497389877 -1.2860097512262882
P 1.3804685574871 1.7042662676559368 2.1720492085669276 0.029259153975433477 -1.134247816028227 -2.161000122875936
P 1.4452129457728777 6.997394671700577 3.5064645788042332 -0.5265801822637962 -0.06957585131660922 -1.383904761202565
P 5.582650230479388 6.423806368107354 1.7831121655553326 0.7011267194565408 -2.2930257559873346 -0.34530995319397306
P 0.37972072290613973 7.65681948656267 -0.02531812445370699 0.4521536877231052 -1.469131945903186 0.7274273050242827
P 0.9924473691196297 2.586574302168295 5.604422377903518 -0.7102335668538156 -0.575636316360499 0.33470029599892676
Ni 1.1486162132454618 8.822985634198645 1.7923161732405462 -1.4559763823578344 0.4970983707545955 -0.7240344772926498
Ni 7.181247519185 5.554388490478692 2.8492995666110956 1.6617080869041319 0.6649075892235066 0.724208798086985
Ni 9.110016563307594 2.5307895673813974 2.9711044458426494 0.9718901075921907 0.7901632506009231 -0.6346631885166683
Ni 2.984123409584257 3.180298148402764 8.855981026227608 0.5206684447650517 -0.7302166948439618 -0.03545962635919054
Ni 6.613900665545014 5.269412788440838 0.13651159165550864 0.0032948687011878737 -0.5460290350170274 1.122394773344383
Ni 8.232055760249768 1.7051754925353158 5.690046736700533 0.8247083355656442 -0.2248897655319869 -0.09797702816712159
Ni 2.242120139271067 5.38641866510592 4.838121966907423 0.47584537491309015 -1.6795708261171656 -1.1393208596757605
Ni 2.472864365690962 7.530636121271358 5.378972492187506 -2.58769269021346 2.5138058702263226 1.6334370078735803
Ni 2.4596711338474737 8.69414089191665 11.7489868433686 -0.31114050640111574 -1.2779897091352894 -2.4576293230347543
Ni 7.061826513934069 6.850668506790795 6.419058509440347 -2.573469347525226 1.3880678914413191 3.3097641302424674
Ni 8.293627332550212 7.043878793658827 9.76346417169702 0.5188848705020677 2.53683858367607 0.7769053571497524
Ni 2.4817577215423876 8.924193728584518 3.5396778059605474 -0.39196596248961524 1.0460654053540244 1.055555090012014
Ni 7.3161064052003875 5.514155289566172 8.552335906666507 -0.533503648856507 -1.9785029633775473 -1.5656892109046454
Ni 6.029969928948856 2.65023898590981 8.273420756715263 0.711084344889885 1.0466873552087392 -2.0520925638392398
Ni 2.1863354044841694 6.673303357664441 1.3188486826149382 -0.2949731526126339 -0.01507103540050953 -0.2746776355883915
Ni 4.596557964422918 2.261460110142857 13.749980544628364 -2.088638481284074 -0.42720190287377396 -0.539441868717813
Ni 3.1551334556474524 4.982287148406953 10.993332887444485 -0.6346397914779005 1.891688122474832 -0.688304370880892
Ni 5.104464241573503 4.6212112181835785 12.190183480541002 -0.06850395840866913 -1.3227610998137092 0.9779728234511609
Ni 5.991185805187847 0.1333217277036874 7.488767262685205 1.8858157228544554 0.4651657837120569 0.49639414559871925
Ni 8.968395317251826 1.6672816514686983 11.93810467117018 -0.31500564578347684 -0.49310930419986043 -1.009640843978403
Ni 9.165678173892076 6.553853939136028 2.0593100590701816 0.2801101194578724 0.6779394827068002 -0.7229145047555937
Ni 7.4263499218250875 2.6262202953462155 0.06701650337497579 0.6055616431650216 0.9920724960773366 -0.7246034624222424
Ni 7.202614303850407 8.306081819179205 2.094006459310983 0.3982471675126367 -0.8525024749597768 -0.08255735117794169
Ni 3.7314683760637988 5.378273525561483 2.7363397406592505 -0.7701402705117769 0.6200084147179709 1.6734631705575307
P 8.19909635837228 0.80384571585895 2.184247028589346 -0.9029261788279677 -1.5426469843732011 -0.4799473128966057
P 4.029750963055063 7.08267238851233 10.664196322437045 -1.7474222385435003 -0.498975018952018 1.5026141368210313
P 1.515516865352358 8.308563245412511 7.333680017322134 1.534636712474215 -0.6429840496775378 0.36116414661741025
P 8.963195687472878 4.236258663784012 0.9884505680873596 -0.625223383260007 0.4858839900960148 -0.012724903765836149
P 0.23563699280205314 1.4977585669269875 9.775357022541149 -2.8303462074867705 1.1946566561335876 -0.3239474283577969
P 4.393128368754366 9.342200395786506 4.25771068828186 2.0158664916276705 -0.4568503218678261 0.7454635937007033
P 5.323767388261213 6.380722368354282 8.013772650223611 -0.1126449145919415 0.342354727220391 -0.4480036701104736
P 4.720212548018458 2.382055530862987 1.9249190450239744 1.2706975463492503 0.954241284162176 0.9761738225692093
Ni 3.1744544843342557 9.08109184683235 13.716836456447254 1.4064232540200552 0.4847658173311715 2.43626139888194
Ni 3.824360851240351 8.766727344787071 9.281526683054448 -1.6032635696139939 -0.33383974777084446 -0.928742368560123
Ni 0.5794546982837157 6.4232191603727555 11.86935022232264 4.738510730350071 -0.27358414541389653 -0.8071890957349581
Ni 3.7732548361452576 2.814685564874988 11.138481168344844 0.5206671592134711 -1.6766274272181254 0.2329751136432826
Ni 5.5956161561030315 0.3768775009395817 12.41793484173294 -0.3649454680367134 -1.2311256975938991 -0.13869764581493532
Ni 2.0091028506527246 0.5949238336533998 9.844417387676227 1.2185416902813015 0.1545433545979403 0.35588721448918703
Ni 5.778351414673218 2.7924095553302037 5.761421836841032 -0.6517656525249098 -1.2863355099968232 -1.1406622041950034
Ni 1.806582479863552 7.127375945081796 9.863532893655922 0.3848509487113888 -0.25551931749238577 -1.098623124846082
Ni 5.797776625377451 7.808565330494023 9.67610565586444 1.1233666503393493 -0.7369905232326855 -0.4703311299630803
Ni 4.288576978718278 8.404505412371979 6.833542877343993 -1.1150493887229054 -0.7436669068115968 -0.6242494493825119
Ni 3.075519452146831 1.1036379949936834 5.688868532794338 0.860232753724499 -1.9175994430239556 -0.7898161516741494
Ni 8.850669637557237 8.602460716579271 3.992144096091 -0.3555663408146586 -1.1556370803372806 -0.5380316186338475
Ni 5.0694780259023995 4.35690143996661 9.486239611755874 -0.6582911123482533 -0.23837725849546046 -0.19241133328830734
Ni 4.258193713999031 7.820754626533198 2.4184444153323827 -1.151884555273384 1.3370363787858004 1.1211616722682305
Ni 1.2872351229807812 2.553738024493223 13.34977290154947 -0.7371203639423306 0.8508639109150894 -0.4136570743098037
Ni 3.2991224748266035 6.723869520487402 13.04255149746281 0.5217740191244047 -0.6320578896833372 -0.9675475143527789
Ni 1.1530676267174214 0.8806070263005199 7.499219560361066 0.058032626563700056 2.029504908346711 1.1267003426982725
Ni 5.578066221712518 3.9900292011371947 3.037988353922716 -0.3967006489611233 -1.4246816860096108 0.9916968579054728
Ni 5.2568446487019225 1.0643803166079975 9.551736951894886 -1.078529953640633 -0.01767530579257601 1.884379247518245
Ni 8.304556973287747 6.334541321355825 12.951451900095282 -3.1575445386816976 0.741858135737632 1.2628497681700575
Ni 2.378930070340122 3.601439747220112 1.2449552189804096 0.18446970984372746 -0.8915860712247999 0.10330101148319629
Ni 1.1109686205836762 3.7532803020764005 10.372749970007613 -0.17450591376279623 -0.835465059861516 0.6427742476595768
Ni 5.434067731440874 8.053279418341877 0.4471056517791139 0.17504430276476948 -0.05629430371635467 -2.597396547764785
Ni 2.346595760567207 2.5714016119936582 3.7936281032080923 0.24084783152314004 1.2574867040859312 1.0534046193279147
P 2.700861975287733 1.3297792704617222 12.327125059795716 -0.08099797711062179 -0.8736361716145987 -0.03033438931748324
P 2.057680084052045 4.770210445291808 12.883791362430747 0.11305886220090851 -0.22273029598682284 0.5127201364522525
P 8.162462172607302 6.335242182200346 4.926547874864026 0.7206308509277395 -1.3695338371928736 -4.119897396207414
P 7.897271582788435 9.018203792675305 6.6570812704415205 0.7834007350661089 0.6558277384094254 -0.5314444523346331
P 4.172025714492885 4.26125287687444 4.9571271911978885 0.595317082618878 0.31531957747946987 -1.370911948487323
P 6.69242549340888 7.959373536268517 12.016189093233095 0.6740774286482327 -0.4407757849034667 -0.8694421881379091
P 4.144133347099437 1.3413529454888171 7.541400964999505 0.01217237369647581 0.6003836985085079 0.7987931583617791
P 7.419928521114474 3.002042716582018 4.001930575964566 -2.5950496447991633 1.2875174461200667 1.8215890516649016
