# total energy = -381173.4085632032 ev
CRYSTAL
PRIMVEC
9.19598700109859 0.00000000000000 0.00000000000000
0.00000000000000 9.19598700109859 0.00000000000000
0.00000000000000 0.00000000000000 13.45925652071474
PRIMCOORD
 96 1
Ni 1.4454068480677444 6.54862788578749 3.4559328473712694 0.4701732642289773 1.175754677022762 0.33234105173813083
Ni 8.677691996995751 7.930426091627412 4.320933135378666 0.717226453231881 0.2777146226425023 -0.1852479827706487
Ni 8.530068817339366 0.08884335021356225 2.227668082046461 -0.820105032465678 -0.8647596950605752 -0.5926253947193277
Ni 7.018064631261807 0.5307620241246968 7.724267695782974 1.1619529952529795 0.21453027667453375 -2.025816917972163
Ni 3.1990723770837057 6.9724801235961555 0.4454085509857996 -0.770144641387151 -1.5213279111804507 0.1330083087396419
Ni 6.866891800615115 1.8138808520328442 2.9049516065823666 -2.492818469341378 0.19442733527707162 -0.2389159046077498
Ni 1.701018503317786 8.825296784678097 2.373041923277385 -0.7115309455090005 -1.099206765263694 0.30401520821024414
Ni 0.27657298806688363 1.230818490920683 8.509035755823755 -0.2538576135192467 1.1413042086543763 -0.5797662793684725
Ni 4.213647233193455 -0.1757205984019245 0.5850532923023192 2.064133039943542 -0.703752330004846 -1.2532065886533383
Ni 3.7640646236985895 8.629054421638957 11.417083651236267 -0.1725953270036447 -1.7486825933131627 0.014157008226672393
Ni 0.34622063497173466 6.391937462927889 6.053152703061751 1.2869235212898094 2.0784340299472466 -0.8409443378085324
Ni 3.095194507688668 0.7680387204512409 4.359439491833857 -0.9682342560071584 0.2089304139892531 0.3388739677606422
Ni 5.569301247931209 4.327769432130461 9.965636878892791 -1.1696948439819277 -1.2929915818607602 1.5832621867914023
Ni 9.684110012617417 0.12630320334570513 6.427333736572404 -1.4949699900122124 -0.21173703020011275 -1.6518167959323486
Ni 1.5283086710667058 4.224397342021606 4.319452581468202 1.266196573155103 0.6119904295095009 0.7422664269196443
Ni 4.564087906609363 0.4614812971020042 6.806951437610175 -0.8600334932294994 -2.3924462014692023 0.22527928766092167
Ni 4.922124465305043 2.289019109460501 13.197097522266274 -0.5383887448629502 -0.46401135839263963 -0.09121039886724937
Ni 4.039944234344051 3.41125138563113 3.871420415385164 -0.6202341575755318 -0.5681808885237183 2.181483587541269
Ni 2.1939969755671824 2.6016274922698948 2.7373299139502905 -0.46205963398290745 -0.591430088859646 -0.4316586530935469
Ni 4.453267067013082 7.205350102941989 9.156938101825919 -1.0828445218555869 -1.488906814537268 0.5095833905954837
Ni 3.3356511763272527 3.7271151478461406 11.43455326778104 1.3151634899721092 -0.7068651646022148 1.3638108186661675
Ni 5.63545717856399 2.26740853995994 6.546958814143085 2.1835816077208783 -0.3324611222557629 -1.791128164071883
Ni 6.795448177444962 2.6912423857945624 8.700776683215862 1.8437894990213408 -1.2475190513502579 0.7317200188623656
Ni 7.0548669713219105 5.245179489370878 8.66770699428779 2.17147248316217 0.2352826787305367 -1.337097313930723
P 6.575802027436067 3.872402546799062 -0.00022070368851636913 -0.41138164801206567 0.8273809973018008 0.5630505092756883
Ni 1.4492691626167808 7.11366611233748 11.927593353143479 0.004887924219920614 -0.712843750783153 -1.2706432960725471
P 0.03177489395544209 4.2807595464764745 9.178607525643418 0.02955123129455556 -0.5419774906554731 -0.07017877500793075
Ni 7.873622479795512 3.276622135636145 4.988928713022841 -1.3360423903036474 1.9364559136088262 -0.6028357595934263
P 4.949657250447459 7.127515268791883 12.597567907194685 -0.4744947744224667 -0.0765707945772036 -0.7528174629626132
P 6.445605243185453 6.203980684195137 4.3088192616752234 1.2412221625979527 0.061932732949054624 -0.7192972197179806
P 6.523246961608107 1.3375287243183474 10.718171165225757 0.914687947349586 1.1977800322539178 0.34580309078030774
Ni 8.185982570955325 7.69034645845671 7.598853744382249 1.5025727420601347 -0.10115696855699999 0.8119641485260983
Ni 6.1963756029283426 5.40606328231229 11.790981448346656 -0.6365485784648391 0.728511539227397 1.9868886163380817
Ni 6.64080845969116 7.0031671322869515 10.016889792958505 0.6210191153706724 0.7650291745374567 0.8287917616063984
Ni 8.537443998930621 2.3076409831790694 10.413022567088214 0.3288114413183176 0.5563355591493581 0.8616324622855033
Ni 4.409558540699819 6.200752892750584 6.771378601014848 0.40011301707678193 -0.41588133565463214 0.41454410490044735
Ni 1.9241867163559212 3.61023415280268 7.9335987071498355 -1.1646374840636782 0.2923830232879545 -1.0409915903755425
Ni 8.834603123543868 0.33709361785288067 12.13798834020873 0.6210252860182596 -0.14702776294718548 0.5754527395947832
Ni 6.790335208661 8.024381491026235 5.7388117962975045 -1.8504674252621487 1.4912694012321737 -0.6885385983788851
Ni 1.9618810671571127 1.8903822680648306 12.063383136700581 -0.5827377032919706 -0.07059966459543325 0.7753799216441615
Ni 1.4713211394943748 4.964950176864241 10.804889322838648 -0.4680518470106004 -0.5615844662531231 -0.5272460979825695
Ni 8.911720670706297 2.3300056236153948 3.209548445498616 2.4347058814693616 1.7251462007541194 -1.0803960603150942
Ni 4.025341006953885 1.5610555808503217 10.784309623483196 0.9931261341528315 0.5767413764992196 0.12668648028667212
Ni 1.9203335977939064 5.904016783540325 7.616377617250449 0.866671053150675 0.2442961950830567 -0.1763951603657091
Ni 5.308834111533808 5.987516345695686 1.8848876658194753 -0.7416048820762454 -0.5694062762903871 1.057293927079992
Ni 0.570354426647129 1.7641857381685753 0.7905035971461009 -0.2905547118299641 -0.42420502502897905 -0.18526726604435836
Ni 8.028271393536336 6.718358218243599 2.3173740158426415 0.3004899686658051 0.06581792693607375 0.08435120985357086
Ni 2.3559658949771327 3.285597418969144 0.4016255371776627 0.45178961951546703 0.9600550626304755 -0.12812732649825676
Ni 1.3456119969102596 0.3275242737582918 10.506510810346345 0.5095535657988127 -1.0777791915175374 -0.3211798929149888
Ni 4.3083107235929345 2.261311600564675 8.510207324570297 -1.1690908918493415 0.420387965275734 0.3524745892632123
Ni 8.195380869691313 9.055141284293851 9.825109322822206 -1.0526654271690452 -0.3029705689958137 0.9903845668519523
Ni 2.2904352914618142 1.3790669976945324 7.254310457443238 1.231197688482415 0.25776466188313674 -0.2696727261746324
Ni 3.4203370208083874 3.3620068751309153 6.172993886327438 0.07271465405590703 0.21738163008039982 -0.06684971063469777
Ni 7.236680830724293 5.96933587935415 6.377924617904505 -0.9485781723391277 -1.6367748139975618 -0.6289049458766525
Ni -0.02177517766824627 6.829381369554354 9.563178185290978 -1.2580981124176849 -0.21548338461642244 0.12787253017497333
Ni 7.695845658695577 0.9202240292690012 4.987610008483956 -0.40390822245315594 -0.5480265250630304 0.16757113431617593
P 2.7384086032279145 1.0291872794869368 1.2837800193749944 -0.9664625088187161 2.4731893822565403 -0.8224606771820481
Ni 4.41217939700095 7.922821010360619 4.916639059046709 0.7718006889333353 1.076758463562507 1.6808643481176084
P 5.493084907496889 3.9755539332194 7.765506179982257 -1.9219623479783419 2.5374798168044945 -1.2304811220313647
Ni 2.126038631478184 7.041560378101778 9.63553588957107 1.8407077747722234 0.6079671672827207 0.1967025044644935
P 1.5601543741222135 5.3895013096865405 13.465313197328003 -0.5581736407993613 -0.48466811541104277 0.188017832206302
P 2.560254746660097 6.1578903972433015 5.393824343185355 -0.4172900430767007 0.25055580283952333 0.3954639483405447
P 6.083743153888822 7.528791358462728 7.90256225095222 0.1120417337903038 -0.060434808247289466 -1.130910524124878
Ni 7.184732700039752 4.464495367166351 2.655941750415071 -0.6262921908441537 -0.9563236206125014 -0.4034760200117439
Ni 9.230655892586494 3.6566462993002684 12.381035518391275 1.1349039615549874 -0.44818853242777007 1.6237997418941326
Ni 6.103606485855296 8.166330746690347 3.111726133557246 1.4767074442575987 0.654903169712627 0.17643578379565744
Ni 3.532886705964714 4.783228277332075 9.238366727704035 -0.6248217769462142 -0.047891681474956226 -1.9892889982494575
Ni 3.2702952965653425 0.01097724970758291 8.970849947655939 0.41965905752950944 0.916857444197079 0.25344366591027967
Ni 4.876365233885982 3.48309963223023 1.971956190537885 1.4967414800903382 0.4080222446215296 -1.3558470837344005
Ni 6.093518488092693 0.15664812131930161 12.472262468440816 -0.23003120052361029 -1.3686524630291848 -0.4703902653357898
Ni 3.526936902361794 5.918730362774751 11.155744735269225 2.287615897825673 2.4797716634597484 1.9781036710565996
Ni 8.776263781879376 5.401042273398542 4.147483026172354 -1.9078009688762947 -0.37201882994372704 0.5021251345452256
Ni 2.5422582000589915 5.071338550716151 2.1786497928269752 2.9554108358993036 -0.07368678816118922 -1.046775029826539
Ni 8.34677440402652 5.160052237512709 10.962228062783263 -1.1738091232606171 -0.5685480420551499 -0.545308611911235
Ni 0.4326436014012341 4.434525645463233 2.107530787998682 -1.3357947930692156 -0.12068064041222443 -1.0410368417911813
Ni 6.489387337394887 7.3582701711227685 0.5782813674596753 0.935006347191964 1.5277847225493884 -0.688946375340265
Ni 8.073911077124118 5.533206998871761 13.659395423015788 -0.13743780526590524 -1.1056185823273088 0.012050760516946988
Ni 7.473615436333636 2.0124773877494904 12.929836390657377 0.02238016746741307 0.19572368549099195 0.356980704663682
Ni 5.750480584229106 4.205812252251124 5.429639034239349 -0.2563292149881908 1.7076251611512205 -0.26691624647541773
Ni 4.379193391554774 5.752797972958527 4.209840094566547 -1.3964165205163306 -0.9542790793786468 -1.011726008642206
Ni 5.625424356723517 9.241874996752742 9.335595898482516 -1.208555268492551 0.134957976266845 1.1908892186713553
Ni 1.9200025422611318 8.993261487626073 13.080015135107043 0.09545349041431947 1.2366373714407477 0.3882682019230539
Ni 0.7843873461780909 2.6100969963167104 5.754060581976581 1.802929013361553 -0.8959456337450764 -0.1555972497837514
Ni 8.15197581094976 7.23746248962112 11.95343499627264 -0.36020615357951513 0.9064087380599292 -0.08761985330251361
Ni 0.5024153941308755 7.323490948207397 0.4811294429721739 -0.8652883138705356 -0.012417656938062484 1.9761709728102608
Ni 3.854562331977322 7.857161663026998 2.8201177067101852 -1.6202030256818098 -0.47036018342880287 -1.7945222773550966
Ni 2.5839803931756067 8.317669105103425 6.329093926820257 -0.1843136438818374 -1.44585806297691 0.4277616320319859
Ni 8.878504765584584 4.520094304698433 6.9962563480402835 0.40267306449447426 -2.113647858844218 1.1073232237232413
P 0.6558669903614984 0.6775621629426576 3.9848280861305985 0.8113640530482543 -1.0376375863016452 1.663079770440678
Ni 4.420630509073723 4.59095858068623 13.549972373446778 -0.1816913757676419 1.5188082300823906 -1.2813817655359736
P 5.296309177210504 0.8968018503252013 4.582970946359342 0.5605429123624862 -0.07513226235846415 0.3210906756352922
Ni 4.601561553722038 1.198485400553035 2.431549551504372 0.2641073162717129 -0.30938932803796393 0.7093475647044364
P 1.4164486849369926 8.525323688036263 8.2765409727484 -1.4008277622101488 -0.34038654775042665 -0.489307413955267
P 6.533877522604978 0.39195043923232636 1.204955697021373 -0.31717051464527957 0.37044660036060073 -0.21882041940945537
P 8.17776135855809 2.1662342907492276 6.728982342049555 -0.7132345584636685 -0.5258350765676557 2.0953395474533334
Ni 1.9776981648341192 2.7243019591369095 9.929781725495902 -0.784310648474888 -1.0427671942187267 -0.19361255268526012
