# total energy = -381168.1056102121 ev
CRYSTAL
PRIMVEC
9.28185477747841 0.00000000000000 0.00000000000000

0.00000000000000 9.28185477747841 0.00000000000000

0.00000000000000 0.00000000000000 13.58493269109721

PRIMCOORD
 96 1
Ni 6.794401023667661 2.2538663166328554 12.118615699923737 -0.9445477110234959 1.2846079857827555 -0.26087106872260235
Ni 5.877298108888598 5.7937057273480015 -0.1622356782669097 -0.3396617537692602 1.5441878464977599 0.398101900184024
Ni 8.964480039815621 0.9072149551904332 9.22514700039694 1.1156461417666401 0.25398539734636255 -0.7245116740393844
Ni 8.903953066683682 2.2916805918267698 10.960635666522352 -0.4020061203344367 1.747995594548467 1.2984142955382285
Ni 8.686460652264488 8.45524037505398 7.762171725738952 0.5085395227120016 -0.6012738144229451 -0.6712240183598376
Ni 5.314994082005308 2.3784844950210475 2.1104867257632054 0.7613005607329599 1.9131923150951957 -1.2873557237312214
Ni 3.644752212020206 4.25857053132525 3.7464664862678716 0.3915293891728289 -3.622103799158007 2.346916078247887
Ni 7.3753430143676875 3.284523439247546 9.248459306135043 0.17654454145937984 -1.3472200041870217 -0.37662676102938364
Ni 0.09858257654260294 6.370118173056708 9.736579039189213 -0.12336744321576817 0.9889339504483549 -1.4618271847116566
Ni 7.864645255683934 4.624786100244222 12.746973116102556 0.6918018425111891 -0.8929880937786492 -0.6220940936024061
Ni 4.489011132758561 0.5927587196517619 9.261866944946435 -0.9118990717505393 1.4502536209414443 -0.7233356514534124
Ni 7.379510567033879 3.6219095681193165 6.185179078706266 -0.5893693496758753 -1.0718098613079798 0.20125695660439533
Ni 6.964138296733717 9.118252523158178 3.199482160220996 -0.18975358395048608 -0.7330209970619763 -1.0608996421533794
Ni 3.14678071860992 4.604375302219819 11.303926911220918 1.7599802777141689 0.3634179756485935 0.23221072467343232
Ni 5.848904916002446 5.335358470757259 5.001646099892791 -0.7706701748733178 -0.36409031912526973 0.8337547620386286
Ni 0.44099482962092823 5.667602452241344 2.588445612706727 0.2576289076362208 0.4204789823276436 1.5032857089667593
Ni 8.354504408269603 1.123605613481617 4.446606052333692 0.3990773767234159 1.0207495522970549 1.4341464309669365
Ni 2.182266091093863 6.679371000968059 4.432899537807709 -1.190166481572718 0.2324945744624383 0.23528704960591093
Ni 2.925343516032302 2.547191482238668 9.647734056192494 -1.0881744187089324 0.3712331008176381 -2.3654812428445844
Ni 3.8885679657741927 2.19317227012009 11.454149085220896 0.9217592523740705 -0.7358702935853133 2.314536633475917
Ni 1.5706846987210066 3.3473894397110664 12.222785024684118 -1.2830869211525386 -1.6430225946794863 0.010785263540962072
Ni 3.232433671847387 9.156623709621517 5.591068921040701 0.34299081814249316 -0.7308365878161478 0.6604585523132174
Ni 4.26154072476218 6.253630899202113 3.683948555347742 1.196275165573617 3.2882604518427367 -1.6671629393711158
Ni 6.508983998087674 7.391892560924081 7.750461738113856 0.8947454427893882 -0.17757709648895223 -1.2667167073246315
P 8.59964746721572 4.496993527620311 10.462055283457495 0.321964079379181 -0.010996094000187515 0.8501792261432389
Ni 5.530667252944384 9.382376974537173 7.078741354126761 -0.4380041356956005 -0.9158873669743258 0.3055198177802287
P 2.738871059320044 5.369302212628674 13.44833603059021 -0.28787433678432356 0.3506586191003961 -1.9068555742438902
Ni 4.175646443307962 6.905866814242947 12.06759056123363 -0.38491111252536286 -0.24029864388788938 0.018248404687226636
P 1.52413619845162 4.619792462528384 6.040784981140814 -0.6554878385715034 0.02313272936272145 -0.19824259525810375
P 8.513205556346568 8.209642505237838 1.2334684277864105 -0.31069570555421333 -0.19666522346865487 0.41080160713887964
P 1.4071477044545417 8.68308205722998 9.36906586701248 -0.2894535083459854 -0.8692233872588838 -0.6400059408858203
Ni 7.749476005166976 0.26040706865558766 11.753031297110114 3.4176008248124883 0.2703095884276828 0.7118677600231289
Ni 9.175772175435224 0.7117288895825418 2.2574760298441743 -0.8283618731578314 -0.9734849628831364 1.1013027285607744
Ni 3.117115911658582 3.858457629807315 7.432941562407902 -0.5027123745072632 -0.8713540604486414 -0.2918729164207554
Ni 0.5544664289515916 9.114911055541633 5.712368836448573 -0.25041850593071063 -0.6823684650124312 1.3417219571869279
Ni 3.8232051464527532 6.457033458504871 6.419424312295195 0.7130622945518623 0.17250765238584484 -0.6768611620409569
Ni 7.065523993332422 6.598804503991334 3.5703507227960087 0.8026981498431401 0.9297556403159858 -0.5657355123070192
Ni 6.071242458465633 8.385385138159187 13.178878225621029 -1.214716145887624 -1.6066635964344782 0.8677221201230088
Ni 7.262819092380495 0.7390416746060107 0.673905332534137 0.0457034155743858 0.008474870240230565 0.5162353486943626
Ni 8.052732755077521 7.311363191365317 12.667881505804356 0.5810443747499476 -0.39926558147482205 -1.5989698273346462
Ni 7.092292861682753 5.596169300083179 9.162792430115841 -0.11001210495478474 0.8674495831879125 0.7737084474790095
Ni 0.3253716964193888 0.24491750988199798 13.300504862306962 0.6437996036002978 -0.034948748161043035 0.3184347260696838
Ni -0.028249324141550892 8.033315115483592 3.8464784684019975 -0.0480865710945817 -0.8192488551129699 -1.7595344484260018
Ni 8.419124679231812 4.9163013042244055 4.409546391909848 -0.001278095381475218 -0.80814863143475 0.23399378471578414
Ni 1.7283741246585151 6.3724572003882916 7.500159824441974 0.35889643362915613 -0.5947146731481887 1.3558655956771617
Ni 5.489548637551884 4.90428130265933 7.475923974182074 0.5039796712554612 -0.6158959352114942 0.047051187851531874
Ni 5.699067938963821 0.22263456180688013 11.334112430209167 -3.4676522329429242 0.029443244961781554 -1.5928225767863278
Ni 7.685227008384385 2.6378380731919737 2.605657883673736 -0.47674011881321765 0.21313879564364585 -0.18665566175145273
Ni 3.0456549139369455 3.08849067241017 0.4166865808960038 1.2236792686181828 0.3541409212220417 -0.2996952406786516
Ni 0.8246593567964144 5.542650127091498 11.748684604652256 0.18625919764398244 0.0487512012617741 1.70288533247339
Ni 4.757618719856423 3.0620002596945506 5.714651244467763 0.5130374105823552 0.576724150108039 -0.7674483255019106
Ni 3.272986094115971 8.863001524672011 10.85970013986643 0.16312903938442228 -0.905060708672467 1.1020493769188118
Ni 5.863403172716461 7.265056019312682 1.7528633695460027 0.5052248565164719 -0.255941749741785 0.21218774458428616
Ni 6.001517167533703 4.8144793604646505 11.304769703608647 0.13042512139349796 0.6556413334302322 0.1785140064809248
Ni 0.5447269790348085 3.0784198602880792 3.368357149004894 1.2834404478372154 0.11702504593750812 0.4505588324321595
Ni 0.350450339067017 2.637262598213569 6.4516202809660665 -0.5999412116544507 0.35124071685611125 -0.35735351462206844
P 7.473303706659433 1.2756238263254878 7.054424751732795 0.9266320070853397 -0.16999105661157818 -0.13794688369183986
Ni 7.947829235626953 6.10566885677055 0.9951382500362537 -0.6615397011925381 -0.47258573032521195 2.08795533917412
P 2.6985135559957585 2.719193527800383 2.5378557929922176 -0.655959121780967 0.22133084453613497 0.2510209154013999
Ni 4.806738293819652 1.2033367435542053 13.406222400396341 -0.869578199495141 0.6432326753532343 -1.0638232435580774
P 6.104592161649663 7.08395775635037 11.01475816005591 0.845982414453072 -0.23381303616354573 0.8895096483117455
P 7.328005556466616 5.807600663520139 6.4632764338351185 1.5667608467022693 0.8219271732760811 0.7349408397925085
P 6.199777579448777 3.501124795635662 3.9917422757331997 -0.06906754422162299 -0.9827864427897203 -0.2971897006479785
Ni 5.087291627646666 3.51730306801244 9.782795249067842 -1.1936685811887056 -0.15867923114318477 -0.8709249433310227
Ni 5.2700142151447995 8.066813328339467 4.831589531032265 -0.1592505302656225 -0.9208886768436592 -0.4616510856905791
Ni 0.8521252924189749 8.099773193634901 11.480829775953568 -0.09350253733553573 -1.1460149838664844 -0.4723977826841219
Ni 4.8830815470032425 7.412099158149695 9.257900808522685 -0.7321110836531972 -0.4449756819174272 0.8665725798995979
Ni 1.9553154669489439 8.92493933968649 1.7705109594886117 -0.004430524967527854 0.0567020806777346 -0.16611614703720423
Ni 0.3624452796249688 4.219373259812265 0.8362802386184027 -0.254678052538013 0.33389785470228944 -0.7848058429437517
Ni 0.19750579714500377 6.619261711288189 5.916088835174904 -1.3622398746346216 -0.23905860083320118 -0.7988864894065338
Ni 9.122271566152524 4.618910686351795 8.03074589816065 -1.7354334416127402 3.0472454986141133 -2.8402891776320955
Ni 1.4983140792593106 0.9835053018034278 10.850746863024984 0.06523042986371991 1.4890700795880096 0.8546197784130958
Ni 2.9101398383770167 5.1334038807550035 1.9178390512584804 -1.017269049947622 0.88887510005154 -0.8813692785927982
Ni 0.7969632311824917 3.0921013138069373 8.93157679383258 1.385098267290034 -2.6368899778737167 1.6043421473901531
Ni 2.3912191993818843 6.302574117930024 9.961233332533205 0.8554227339303654 1.5386905708286147 -0.16108964035689033
Ni 1.7365607203190536 0.6625378453397366 4.0618128516521725 -0.7132289020367136 0.3016742187818933 -2.6484437441495867
Ni 1.1050790319187664 2.104511996027731 1.121228530546624 0.5221900236159006 -0.23794865559847403 -0.5396287879176384
Ni 3.1187402361944034 8.37357861924739 7.935760040233078 -0.3182969149402389 -0.5281408418826969 0.3178474861076461
Ni 5.711876898160581 2.4141825073911494 7.751657240972221 -0.5729384578133616 0.08288362416910888 -0.06949820400113836
Ni 5.094735674947972 0.20302757238134633 1.702993821739949 -0.6671439347531929 -2.1300766938242024 1.8651754208962845
Ni 3.7338672969825946 7.564238035101941 0.9592063349329938 -0.6722496314108745 -0.538534269301879 -0.7165654226091143
Ni 0.8369448193999158 6.8619172332308755 0.5610342691890029 1.4376529014582982 0.10327350067937052 -0.8300552016998545
Ni 5.253743124223119 3.6482885985810505 13.414644755160936 0.41483001157198235 -0.5881904988764257 0.01611284640146257
Ni 6.7031232666090075 0.8523675488211746 9.31128910736605 0.6194075479091784 0.3464762055879323 -0.337453947484664
Ni 5.888120751224411 0.9936410869069512 5.0498727594540425 1.419797618444432 1.3552331042994854 -0.5205092934793681
Ni 2.4695673331354024 2.4995198775759424 5.254420699600918 -0.43261150392511943 0.8335668143975387 0.7517651104386989
Ni 5.708600403525468 4.768747663390419 2.167000225013492 0.04015574628327923 0.5480625205072884 0.17069836709124794
Ni 4.05696865179363 1.4117979135542353 3.613578175528728 -1.030039205129097 -0.8773133633558698 1.0648519419329079
P 3.7744290011056694 5.522907622590404 8.526977043853984 -0.254796066173116 1.1855644640243324 0.9016863928835955
Ni 7.8138920753303935 8.162221510646352 10.041574280445813 -0.7216829463413377 -1.5219575743446498 -0.5994516736125418
P 3.5303162280079894 8.444157840792437 3.374279900355222 -0.3436991570634274 -0.26523268812540773 -0.38729863892093297
Ni 1.5982796521209839 0.8420377729588017 7.422956143347124 0.5136053672706831 0.8174372558255277 1.4114201930140144
P 3.7079059499729285 1.4417875854127373 7.02415755242503 0.0747388835747874 0.5889849697532631 0.5905538569022796
P 7.703577234711917 2.7928264794727746 0.4223772858840718 0.395826473886286 1.6507844980130926 0.01804348776527215
P 2.6286861646644333 9.493759228422046 13.237348339797892 0.3395892486601119 -0.05167634532836906 -0.41620478043232195
Ni 7.5336543245560526 8.14957962483042 5.473681307300536 -0.00022034354092220114 0.1616362568889797 0.9666409433781095
