# total energy = -340895.3384117502 ev
CRYSTAL
PRIMVEC
9.06866107789380 0.00000000000000 0.00000000000000
0.00000000000000 9.06866107789380 0.00000000000000
0.00000000000000 0.00000000000000 13.27290216181329
PRIMCOORD
 96 1
Ni 6.345115500086982 2.0785915508099286 11.345371221170641 0.46905637701571484 0.03691667052069126 1.197352972018828
Ni 4.609373753252169 0.1887687164641592 5.95833891516454 -0.13059429998151056 -0.2509286127979098 0.5084590471830533
Ni 2.8551682122869693 1.6121177578439456 4.9236228136475155 -0.32988719088099955 -0.44336668555909453 0.710044590771461
Ni 3.477686457905965 4.3410411380635825 4.721701817896864 0.05378207881746222 0.6698824167302785 0.5061432545656831
Ni 4.890302738797878 4.740044091967649 2.358727028503768 -0.1526546222156597 -0.6352643124357769 -0.2443537877938695
Ni 7.52346105712318 6.078723578387543 2.335526672647302 -1.409742033980643 -0.014925510961580747 0.5345716851097051
Ni 5.020773566967745 4.441476560457499 11.56045900606565 0.15482514750441723 0.48016122867962463 -0.38875156931737564
Ni 5.79249849472192 7.895267096195702 12.551268277689907 -0.5290325004590307 -0.32558496396121994 -0.05037922378350033
Ni 1.9235990628519672 6.438295993549509 0.3417679126982214 0.3795261940643657 0.6519332884510257 -0.21693657212318124
Ni 2.9534815679684545 1.5911419445710673 0.4475864923592282 -0.9433138386163946 -0.18915940200991294 0.6269357379654235
Ni 0.6866463761757758 8.906812768438103 4.478967312576567 0.5993825109375032 0.04147035132964471 0.36453203464837863
Ni 8.913714019584086 2.2332212923213204 1.5161903669147714 -0.7677303755187037 0.3317183305524674 -0.6639601377085727
Ni 6.9271512422688275 0.8716842454369682 4.841423561988761 -0.8294587057664361 -0.4347524615275222 -0.3229940633055921
Ni 0.6571659724630767 7.229926632559183 2.261052106568245 0.7605086609592838 0.22416522866113653 0.5970600334519137
Ni 7.746477572474078 3.8194026792355507 3.7761406311515615 1.0930939674977367 0.263093787405534 -0.06602335807866049
Ni 7.6574595944859345 3.840496385103564 12.532301172864907 0.6827309905581725 0.30954719377206685 0.9320809460150529
Ni 8.402713100301703 9.066520960201467 6.489360717699207 -1.1777164287348234 1.030028920716452 1.0474990524767573
Ni 7.026634455240499 0.6991810796369832 0.4192714116061335 -0.23470546607082807 0.6461439354627582 0.061261417913642875
Ni 1.6107302526858174 6.432836659528639 9.220897686066376 1.1424293233977552 0.8364662474325207 0.10082761024203926
Ni 0.23032857684762095 4.721317306663501 1.379227284217428 -0.2914250302500594 -0.24273476413320774 -0.3391899563391642
Ni 6.3563334339471425 1.972724000378635 7.046823108724321 0.40901263355925693 -0.38774986752573865 0.33362608909814156
Ni 3.3683728162322617 4.291762033297123 0.31115664693834205 0.09731214088961306 0.21176196990077725 0.24546039059448696
Ni 5.898719722938618 5.331121289330237 4.372200150957782 0.5102863301997792 0.3365923708153171 1.1484737298196221
Ni 5.214208109600904 2.891324964348779 9.401303283204879 -0.3350060001648037 -0.43279250958767396 -0.7232484910562448
P 0.25007830713109463 5.528863446016407 12.48206260374727 -0.1762033560698772 -0.02592906116093599 -0.2188283898292554
P 4.072989651371088 6.225735644520976 12.707529471344746 -0.32587369884623235 0.030389925145767018 -0.7821802323954465
P 2.4493818998320553 8.617939635712522 1.3206201545774348 -0.3045145164441659 -0.2947839194199633 1.250364234108537
P 6.481952528394142 7.970020070172501 5.975592949895615 0.1654314622653538 0.7264114621652585 -1.188412989216721
P 5.005365911649707 1.101778850826552 12.784140613994095 -0.7638251269270264 -0.8492325459592536 -1.2704846590074959
P 4.019548031130244 6.259044836977216 8.26343025407855 -1.3397722896597248 -0.04963000432230163 -1.0630069183043693
P 4.811768133115592 1.0935445064894254 3.890685983450913 0.4522344203623695 -0.40451320302700655 -0.2804443628688396
P 0.21107943666041315 5.528600454842645 3.5734107108250606 1.1982058069374266 -0.1932366574030801 0.5350234279351431
Ni 1.6512036874618037 1.2467051248922112 2.7748996785900815 -0.09414582734648948 -1.0579863251613262 -0.8190166844975056
Ni 2.065659639989728 6.578152886024361 4.950885022839442 -0.16757781918439527 0.5141054468355533 -1.2500279338150406
Ni 5.8117240563901005 5.502455504706152 9.194404499341177 0.5381056664048925 0.9716566514251459 0.8954198431485935
Ni 8.663564070029794 2.3527553151271183 10.187231548074479 0.23625095618107697 0.1643315443329557 0.5692332410476326
Ni 2.2673466642823414 5.399580612459056 6.999345946931196 0.8370853690737583 -0.2832041850021638 0.635220603682035
Ni 0.710730019629638 9.023245309125732 9.233095035332276 -1.4092992900162695 -0.2636686860723975 -0.6038078936987086
Ni 1.3187012258750823 0.9512118695167379 11.750062039356916 0.32438194479205423 0.7159555569392573 -0.8909258119329818
Ni 4.145049232982109 6.992844623742554 1.56212767004221 0.3538457585791261 1.0770960494075836 -0.5501345725449687
Ni 5.6329535388595104 7.7920385261632 8.028646244000939 -0.805469027720058 0.613554174452195 0.27904028343246134
Ni 5.23960942952193 2.8697143447944042 5.0849289035080165 0.04717228681042844 -0.07499290856712247 -0.3370672535692066
Ni 0.5549050285767998 7.258946348284739 6.810883751214388 0.732104655895294 -0.6303187955050435 0.4662122226987003
Ni 4.91449792678406 4.484534563665292 7.178636098746495 0.6255887370192258 -0.3967435863839167 -0.774749230038698
Ni 7.907391896172285 7.376331098394612 8.961226549155752 0.4948316862076059 -0.38244079660799946 0.11514582663692427
Ni 4.626286806323469 0.55302600198357 10.505674864258285 -0.8268714046552339 -0.9955306298292662 0.3629657186025233
Ni 8.14600650872567 7.140790761975904 4.575913114154486 -0.4042959448098779 0.19666599479960323 0.3331339799530715
Ni 7.103364397351101 6.13574731978826 6.762769062541416 0.3462394069867779 -1.384784849814673 0.7104312846869184
Ni 2.349064370033274 5.1462657001584455 2.6174432353937975 -0.5555135774686949 0.44674665777492095 -0.4069372390874669
Ni 2.4133067657207232 5.295463313632459 11.412253504123 -0.9697092978907882 -0.37326812896979583 0.28402179580745274
Ni 1.3711090187432036 3.3577987573147623 3.952298467400734 -1.6015334742967644 0.2661814251919222 0.33547445516079
Ni 3.6440963902697003 2.673368761927526 2.8025337028897424 0.8889928565763271 0.4486415608047886 0.14662641374370877
Ni 1.0372190519983542 3.4282259799162205 8.151645402237591 -0.5193484404020474 0.5081993657637636 0.4637557907384078
Ni 3.588423879382454 2.4661407856635638 7.264179872642619 0.37144984481413446 0.43783444288695567 -0.05832033300744795
Ni 4.557101990301511 6.6027652324240975 6.000161766721765 -0.5104120571443661 0.7910852481945602 -0.23186131175381358
Ni 0.4107849584886412 7.377682328908083 11.198971289665796 -0.1964507934650036 -0.38490802720156936 0.5794605752025956
P 0.00889182227153362 5.573662632167735 8.119047192816629 -0.6562242025168957 -0.016553533483306973 -1.1741014576900555
P 8.578354929730631 1.5142124919148514 8.196269563228448 -1.054910771559796 0.28245650820286194 -1.026974193050528
P 1.7996304647368582 3.4294230431899 10.341050551277787 0.1442414584513 -0.774145535016428 0.5365362650352438
P 3.935554091427088 6.25971591790337 3.612141148925281 0.21363527566409013 0.5975649981127902 1.7052643742285276
P 6.9127411396788565 3.9704502995870694 10.418471525369107 -0.07963992042083058 0.4150902072119044 -0.35072058268658307
P 6.178868803624204 7.764506070868579 10.306368363521283 0.34254627440590685 -0.4564273753977946 0.2834471542509054
P 2.2838969709070724 8.614221484635186 5.984512885016759 0.24890309772744876 -0.14126154988736964 -0.8479446803857654
P 6.894159452953335 4.014741640713199 1.6623517926309994 0.5117068646963897 -0.3961321780521629 -0.27521036816340994
Ni 5.158698834614614 2.795904511578686 0.7211961614792831 0.9843563583800015 1.1517413448273002 -0.1849528201277331
Ni 1.439377899987574 1.2377090130172888 7.177069940963432 0.5513458192442505 -0.6104076584034133 -0.6502970383991833
Ni 6.703010212933565 0.6378769301667463 9.331673195919755 0.8534275578772077 0.5754509398225702 -1.4523894363375245
Ni 2.6025697242183337 1.5882399729985117 9.459517739816459 0.22112489917291592 -0.07778049861458863 -0.09429289444731502
Ni 6.595002458467512 2.041600481921009 2.638321107126102 -0.2755271280728803 -0.15728029391312912 0.11529932149565304
Ni 3.833168906882861 6.94683023699522 10.432461748947173 1.1613392729283805 0.7989001162532886 0.01567344487119881
Ni 8.100209769846277 7.175723244780542 0.19619867055601792 -0.1632233988704415 -0.46109958406248325 -0.5300465435458419
Ni 7.335440505205071 3.8340304296934633 8.18319527442797 1.4031906060153705 0.3223597721557029 0.16118271429132885
Ni 3.3089912229288427 8.61500138949531 12.550431240264448 0.38571406804263253 -1.0881397088162552 -0.38219139960135473
Ni 0.06462237259023093 4.836026801729924 10.179347254058293 -0.46193596392084957 -0.44003350742080344 0.7484069925997433
Ni 8.680449917117603 2.5677097907030095 6.079771915618129 0.051245428438537556 -0.5122951330996919 -0.388654381617879
Ni 3.5453749448358245 2.6198817983808604 11.673756510588799 -0.180569860568689 -0.10975602307992066 -0.9403619550769223
Ni 1.2760150377750226 3.3154299723554503 12.666754957018107 -0.9219623695238123 0.31321564376258954 -0.3247516694266471
Ni 2.89665733711335 8.251747097900664 8.06652694855007 0.8737120191578565 0.2846810266580065 0.3097719081883633
Ni 5.704450863478349 7.817503326712376 3.751984438408386 0.026778810755740977 0.23742389344325562 -0.21479587163109462
Ni 3.233585305348219 8.499321547684312 3.5656588192618717 -0.09727048901840023 -0.32837949598722155 0.030065451926812738
Ni 3.3710480712757116 4.38665650371969 9.171774562271942 -0.14253013218714808 -0.2033794022640368 0.20890213185447895
Ni 7.277029258646225 5.9948021879737015 11.352379482518364 -0.5245202144109741 0.5730276750930584 -0.10694992108969321
Ni 0.49946286168312515 8.903221578617066 13.659143989417174 0.33862508497462973 0.7730605294823654 0.39848833698916536
Ni 4.8357910165396545 0.5772148419069373 1.7182963633531725 -0.20951842528223916 -1.5942156004791124 0.3118786701187209
Ni 5.956242240703368 5.465917868875444 0.3319420183267715 0.3656103553142219 0.8198504932527106 -0.2043091131671578
Ni 7.777111509886868 9.146107530578805 11.358431906979375 0.8805568099938319 -0.9707631930765991 0.3706918836021874
Ni 0.0937164513373336 4.934104372221139 5.805049521773221 0.029230614730343205 0.07297536391646141 -0.23561126571454905
Ni 8.163146278326074 8.995513343285497 2.556480067583336 -0.16457965578801978 0.061071156279707724 0.34952630526816575
P 8.66036283263882 1.7414550033682827 3.8392802776414396 0.5441403026347467 -0.2506856435491683 -0.36050774398033403
P 1.9075656699135977 3.1413570213079365 1.6128568537288308 -0.35216682821480644 0.6851956500485813 -0.27017100596728955
P 4.790375161429159 0.9480922500762405 8.202480689259835 -0.41751578593426164 -0.5083798572056858 0.6712764688643278
P 8.511845368752123 1.8313617101505206 12.496769251557312 0.27709138723620663 -0.7619597915835135 0.31813673521329083
P 6.524475480593246 7.9230081306971005 1.526184938383876 -0.8427065719152776 -0.4015698041279665 0.5080319869479637
P 1.9951961427436125 3.399287882141143 6.106955227457926 -0.7565244795005552 -0.320954407167744 -0.2942748409940287
P 6.966681536283733 3.99988717372618 5.9021014266867615 -0.6859687807691799 0.21834219422145623 0.45566889996521526
P 2.1888211272612197 8.443494869557274 10.561540537628328 1.7169873190924105 -0.1771137836992885 -0.32255646154754125
