# total energy = -340861.0102791492 ev
CRYSTAL
PRIMVEC
9.30761592201831 0.00000000000000 0.00000000000000
0.00000000000000 9.30761592201831 0.00000000000000
0.00000000000000 0.00000000000000 13.62263673011135
PRIMCOORD
 96 1
Ni 5.012067391056146 0.23333169211676225 7.44398081816388 -0.4043285978200263 0.9159444454645064 0.07232667458886899
Ni 0.20321038555651164 6.2640999584392585 9.192651016009622 -0.0021412147127188932 1.3985222540054236 -0.36447649882009486
Ni 8.460231928926596 2.3786077801139727 6.024420472281927 0.4061962471563843 0.8736677961834824 -0.1275421434187481
Ni 0.1132783392533001 1.5419368796728734 7.9812573611484074 -0.369417387765138 0.38883075929474326 1.3948306640864494
Ni 2.6184743493507994 2.892872173559052 4.790495871623048 3.880689414280542 -0.5803342360568006 0.8667481862455138
Ni 3.3346767772595074 5.063389585102626 0.9349109246924228 -0.5035459261521521 -0.4452225078209106 -1.3634832601234195
Ni 5.479011865289707 6.08092607762048 10.846316516889233 2.645041660446574 2.019199155545329 -1.3196387521346435
Ni 6.046962587218664 5.182657375184528 7.215038597703323 1.1025628262201204 -1.1776274685654429 -0.3002889083985925
Ni 2.6082825099454863 0.7663137011272156 0.5394098485477221 0.7202611262931465 0.8633273334894228 -1.1192564848257176
Ni 5.033837904635166 3.051715946427613 0.07469827136743436 -0.3001616387921089 1.2138545692182772 0.8048121108623494
Ni 3.3558981415007074 8.42110271170291 2.7042161069779636 1.0256477609296206 1.6117492384875014 -0.9286220409321749
Ni 8.308517789833807 4.475483334694226 8.23488430972479 0.9866801214171718 0.6143267909521614 -1.3565669926195605
Ni 4.787735232748513 6.158868053127413 5.630017694812866 -1.0749124114927038 1.263612871588327 0.15242348004146006
Ni 3.014196946753807 8.325988184869216 5.3453731162655185 -1.2362311371412644 -1.4627167864054613 -0.37050187907856835
Ni 7.40698211421862 7.885533185473574 10.240190608365854 -0.9781674559604703 -0.14142867159285322 2.3545903069636935
Ni 0.06963865136676932 5.379355221899124 0.642392103097682 0.2876339386387433 -1.8309519809370403 -0.6965473276159746
Ni 1.3511959071312458 8.871572705801857 7.268398228869278 -0.5222429883410232 -1.6510542067347111 -0.028577811637692723
Ni 6.147931604450478 5.212413823201684 3.673943099688207 1.4486047724841116 0.3965206717398333 0.16835017857404552
Ni 4.457584789327634 1.3512238299789316 2.269680751291708 -0.37152157859233437 -0.8963744937523788 -1.9011297275037062
Ni 8.452497300117633 3.073207231529775 10.371321885667859 0.6229926941572755 0.6592776446312387 0.1198763993433742
Ni 7.816489290762512 4.073049946230733 12.635608873548263 -0.8176804821845852 -1.0002218646573484 0.5194338010270022
Ni 2.8997877321692322 2.782539694736603 11.7497825920411 0.5685668111082273 -0.3358680910547829 0.8933269651753067
Ni 9.093708266758206 8.625302496829088 3.020969168079201 -0.6015682057349124 -0.6130391824889893 1.5351673881667045
Ni 4.285915121755401 2.626432360941249 6.710946497670177 -1.7773393378179068 -2.3456454390655797 3.3862688474684264
P 5.403918020246723 8.286337741155396 9.955967664818562 -1.6075765951670509 -0.12027054945799932 -2.2031996390621216
P 5.49680802688145 8.393366016335026 1.4366025905861806 -0.3506059114855897 0.07355386212775075 0.3272965473356879
P 7.401667465542424 0.5818991151095984 7.227271597274468 -1.001636742727004 0.7490256000203487 2.3051665051149266
P 8.496345478600219 6.481805094229462 7.043257238740348 -0.3080626388067404 0.832631961288095 -0.3101470321395949
P 1.8806503297173947 7.760783209629363 9.42520272991436 -0.734650048024967 0.1956036149733599 -2.060337834567168
P 5.554478014968501 2.2297231562533435 3.7160507539983776 1.1089093372634387 1.1291927701028228 0.5563784965721514
P 6.499964252841121 4.978736818535208 9.34356190785065 2.363170078212905 0.1517868748987257 1.0457280766192636
P 3.478572519000276 4.964533396679037 7.339863034474698 0.7730283906928493 0.16559652708830835 -1.4340158189263432
Ni 8.393608014348304 8.244053242143215 8.425451229849177 1.8823802148103452 1.6734569999099438 -2.6960957988099117
Ni 2.508681712250275 5.264499241751578 5.066081347619536 -0.3547397311483052 0.3355922116855769 0.34703644896677655
Ni 6.386644029316292 1.4191415031666668 5.3984330421996445 -0.3251064816629046 -0.2595253533279853 1.3787828665949675
Ni 1.36195551110617 3.461939809395441 6.727266471380932 0.5169115488257807 -0.39014202190699904 1.1596030069635643
Ni 2.562749652985859 5.501573526219825 9.24682785585118 0.5539266925975491 -0.1413775066399436 -0.22320595007166072
Ni 4.838694429775079 3.959943797871495 5.259236715724395 1.3867496868505278 0.7283639579059391 -2.3300390999868905
Ni 1.597810497892138 4.34105343831894 2.563753013979368 0.32182138315372966 -0.6774216625301173 0.3767278053836221
Ni 0.9408603527726749 4.924426879786347 10.84408175831278 -0.04254301556853319 -1.050379716458662 1.615175490560231
Ni 0.03115352116303527 2.415047096343928 1.7300884734724389 0.581367048196689 -0.43108015488225754 -1.2823405299048174
Ni 7.212797323795745 9.033608990922492 13.502267050880722 1.7082571383082645 0.07502993245264498 2.2510776936903234
Ni 4.405936828724819 3.761793963077238 2.83762216560477 -0.8906938984278339 -0.5324849777840055 -0.7354231787455656
Ni 5.048851089074225 6.565648098213993 8.507963244760685 -1.266573753988864 1.107002864269345 2.1858557484670356
Ni 7.909463065940296 5.872295867328155 11.060790979202194 0.9429957931553437 -1.6315963551204158 -0.5453952580877703
Ni 0.6128860299481084 2.9305773255507632 12.564757439830341 0.3942889541958371 1.4065757204375195 -0.26487041968998254
Ni 5.035308507946618 0.712807940391706 0.03360421642825805 0.5998525085953863 0.8640919795695893 1.2778061323695735
Ni 6.720424442936324 2.9131348533630397 8.264022732046502 -0.3675253129487477 -1.6109354843369548 -0.7736022609184484
Ni 6.725869398235053 1.5121897392716124 10.284736858040585 0.8701885793856303 -2.631144076528875 -0.13312066594779012
Ni 1.7889610055331575 6.857274319444378 1.2895115443085683 0.462054748886901 0.6145787590619674 1.1446096188785255
Ni 6.889208749581026 2.564694944707969 1.952287326216877 -0.5909392652661565 -0.0667340109924399 -0.9310046822317384
Ni 8.455699119985605 1.4670478021795863 3.7566189286394716 0.7410814054726075 0.848323918102055 -0.4248822536016619
Ni 6.954576136013459 6.868769225075028 12.932827110408523 0.03906842675637142 -1.5762068226065176 0.19189891242826307
Ni 0.5883818695806491 7.378956882757982 5.067280168546846 0.6834282737355134 0.32066438673115094 1.5865459997489968
Ni 6.9869573317130795 7.096042590005564 2.272147269503953 1.4397576065061268 1.256884808835874 1.9004123897217078
Ni 1.9789201383395827 7.37290693242606 12.58660799890606 -2.5464802205308916 -0.6052132586866673 -0.5777243092377792
P 0.905332252138866 3.6933271405516823 8.933507443492116 0.33117737044733286 -0.31831722665521306 1.066415429765286
P 4.959842358267824 1.8251769389816261 8.985654292306917 -1.1299332478132735 0.06895852944758447 0.6974767814087794
P 3.6076319210039944 0.14886507786724917 12.268287535288062 -1.3880645490072094 -0.21751069945909635 -0.7287737917498481
P 5.089590523847792 5.587650358019218 12.787296951316545 1.2148881526891142 -0.29519169638134324 3.9708813991856067
P 7.163224961537573 4.0193822329786455 6.012432263008827 -0.9793051691093392 -1.0548817180940737 -1.6118829358518882
P 0.9869330514542275 0.09582562868809216 1.5496426548725617 -1.6467190696944671 -0.32916471089267824 -0.37545999441479205
P 0.7590844758613647 3.036721377220344 4.372607186965471 -3.1225942478587574 0.010191081600388901 -1.079557880684515
P 8.745333511414403 0.22875792966582992 10.48937596263702 0.9958885273893171 2.0580374685687657 -0.41764331265106136
Ni 6.401480369053342 7.818788271888641 7.039320117216651 0.9587083187945942 -0.877682059549198 -0.9603530534868686
Ni 3.76646638625666 4.935689095019616 11.439336371470493 -3.801148224221105 -1.9015292769349705 -0.6410032718020832
Ni 5.3520652920942124 6.0194865050958475 1.367876085577147 -0.32702503884185613 -0.552106608669675 -1.3604663276739666
Ni 9.077056941921581 4.787232621490169 5.582406447223827 0.12645173856804673 1.2645680364127445 -0.5935185959575584
Ni 5.7959268789075225 8.79200189751325 11.932149502561758 -1.398654922928546 -0.3601285062640443 -2.3465790066234424
Ni 8.51125627926443 0.06383069904812512 5.63140732186603 -0.22052788901886536 -2.271219972966153 -0.46418336519412967
Ni 4.03053275682117 0.8396055917328757 4.578268267787205 0.8449938252875577 0.6615515282670801 0.39389840362563777
Ni 9.294873769102528 6.009331896154115 3.408098043726112 -0.3460614866480169 0.3880979948937767 -1.7565463123319554
Ni 3.9285119789931913 5.965148643499301 3.247622645791111 1.5294996483579657 -0.1068802441940224 -0.3989431651383968
Ni 6.745275777376677 0.13615738988544643 3.3369469047763625 -1.9175595909249556 -1.1306708973102462 -0.5293932262325592
Ni 5.5050918050282345 2.944408442771124 11.382775851198158 -0.7371087939781047 1.1992270491130894 0.12535824839355186
Ni 1.3454810309715541 1.7566542707606991 10.349675163380248 -3.9117449980347665 1.2956925257316911 -0.20137934111487255
Ni 3.4041208994540657 7.266865264531328 10.720987607336337 1.190084720492189 1.195045149821258 0.3351252993514874
Ni 3.3899547080614756 7.685056446705501 7.53534809883814 -1.0710447010071813 -0.34646180741022914 0.5147430804195523
Ni 0.0017405241724142077 0.8330530301426106 13.040541356879633 0.31534760250392785 -0.9202327884272152 0.5428277544709103
Ni 8.2242373279022 3.796446217055303 3.4443744766779 0.8296888194993711 -0.6696204213181435 2.2998813454565874
Ni 1.4003866571377117 5.87775013024278 7.137104068289107 -0.006542171993891958 0.747134810755539 -0.1517912457740999
Ni 4.015398573375473 7.632971028155608 13.34468073691961 1.798030290508355 -0.573113035718013 1.6465408922453904
Ni 3.171579423926812 0.7855227588118597 10.35120161238707 2.9416778025839276 -1.596148555835767 -1.1608214527516976
Ni 2.12596185425295 1.5279568405981883 2.9804968618818277 -0.0893095823001107 -0.011074769756922861 -2.2221854361360047
Ni 7.352718713549235 7.5155926841004455 4.7698031799647 -0.43253128550648734 -0.9222886425149793 -0.39127947794555196
Ni 1.1328299306124772 0.6185525065051447 4.797443076127273 2.1020233872314122 0.2839899141282528 1.2879843584541562
Ni 8.76188245247618 7.495581309925629 1.0049311883108978 1.2224651937054236 1.4348686538449416 -1.511994292484351
Ni 4.687873821808235 4.066227463779505 9.066790641589106 -1.8673503170604162 -1.1544692852814245 0.34635690640124867
P 1.9219296062128866 4.966478688401146 12.795565837277898 -0.5536775527012207 -0.09479554511534641 0.31907801608063757
P 7.095000137025294 1.803313349243653 13.349611911820922 0.14054935431169344 2.3701295402498728 -0.007213744139619834
P 2.2440103466525723 6.950238787006266 3.5713517650058484 -3.807011110759786 -0.3690504913440225 1.1677076383485696
P 5.154520452333148 8.101981793117918 5.02803367536288 1.0795761355169602 1.6107894456773935 0.08680147116627632
P 3.0343851656306327 2.9229916185961238 1.1812500100228152 0.22813784015563934 -0.4724623173734702 0.7663946874264156
P 9.150847720739225 7.913083728523552 12.07694435999801 -0.8865333392922411 -0.32472595839503426 0.9406447764246638
P 7.724297355319931 5.031892612913056 1.9650657520794836 -1.1420829958019298 1.078918447328303 -1.6500129099543905
P 2.1396812800825677 1.435178525354205 7.062219644603767 1.2156170604353387 0.6607328890205266 -1.063354017231143
