# total energy = -340874.4653273643 ev
CRYSTAL
PRIMVEC
9.19396462655813 0.00000000000000 0.00000000000000
0.00000000000000 9.19396462655813 0.00000000000000
0.00000000000000 0.00000000000000 13.45629657115541
PRIMCOORD
 96 1
Ni 0.056817781252020215 6.642501446280009 2.4637940113959367 1.0944365975685602 0.10327195801747376 -0.5390798573927038
Ni 9.325897896889385 2.658388867152443 0.29808028144567433 -1.5156128630735446 -1.2339477404237267 1.6475353949481755
Ni 7.902966398189944 7.490148197895933 6.270566967352279 -0.03785203785076707 -2.2380841096441326 0.4212081471841843
Ni 1.7967856774160684 2.044048158846485 2.6664997826398347 -0.9722714021910095 -0.8178779429073721 -0.21453259066737893
Ni 1.630779454291669 4.220581346227673 3.4140104698362097 0.2424131191277309 1.1987794200527095 0.6975289748029536
Ni 0.1271166726595182 1.3758400124985544 7.204568030592923 0.3169051767990349 -0.23720637811581086 1.2491272763776422
Ni 0.26260812758775687 4.94403602529351 9.953380458060542 0.37987277877050707 2.2436397493550393 -0.07795636207082059
Ni 5.878749620783387 1.0213759049255537 1.5343007489526952 0.0836564977793914 -1.4789643586125756 -0.22877598796027052
Ni 6.920784363954429 5.062371542453133 5.493049018800487 0.28036285889862683 0.6272964637389519 0.7952764034577723
Ni 2.205117223031042 -0.17067032131840756 3.812760985039246 0.7608498463487864 1.2028813580362252 0.4102760736527128
Ni 7.8797332498827135 3.9242047064050025 11.385493049715896 -2.0749558415906586 -1.3904225077164247 -1.0450703884306065
Ni 2.7781126729525063 1.9962211554851026 10.974107269091954 0.6692830925833829 -0.30822976051222406 1.0471552959840933
Ni 7.603279931145033 0.5152987256626487 5.9692531685897645 -0.8182921476266553 1.016610590428017 -0.5733426352303157
Ni 0.8313237870315732 4.846396122237401 0.5544034148969758 -0.760959118233141 1.3657417171402928 0.9576395112104475
Ni 5.967167977439753 8.283660886499206 4.6732636572242265 1.624420406197267 -0.9713851429313143 -1.2273598027935635
Ni 4.153621702728836 3.0901374403647717 9.07423978102854 0.6671105104120962 -0.42328534142818713 -0.7977156090268843
Ni 2.6587566257326927 1.0777808771712445 8.484813797138003 -0.9812959742871229 0.7947128176448184 0.7245600107788167
Ni 5.7100955358811945 8.35792973178049 13.292586993881203 -0.9893406989684704 -0.048632159185406566 -0.7547388483550421
Ni 8.459725306793416 3.1345259010008264 8.834852849594157 -0.33435062596899195 0.2892964139428308 0.10796679238998179
Ni 3.123722992706012 5.139564068447399 9.830806523263547 -1.7910726282435991 -0.8628529649561657 0.10611045590753339
Ni 4.9034446719985265 0.8105068125965783 5.8910722914110805 0.09968706887969284 0.7883215694064939 -1.706854601533783
Ni 0.12445501993496606 8.497153936298258 4.621538412912204 -0.4214881403184483 -0.9811033986603427 -0.5003310187592802
Ni 6.333427941474241 4.37797282460974 8.15395059645248 0.7127077394259209 0.12468127693118526 0.5281354425660582
Ni 0.24575007426914258 1.25400159486206 11.908728005540318 -0.3651082188668228 -1.5238514489332529 0.7449236620368331
P 6.873784817398605 2.7754923930682316 5.828621368106096 2.628432076914351 -1.5336733201196813 -0.5473747504116444
P 7.116882432907703 8.605155437352883 11.719922589233382 1.4212580050400427 0.01113339090900018 0.19547840224940527
P 4.635679649719228 0.7687928762353846 7.9042553920137175 -0.07064003091506543 -0.5179705862179144 1.5977914907558288
P 9.141135986172285 5.589884449962302 12.1398403689191 -1.5070973694033658 0.12347748643107123 -0.011449122377206088
P 9.087397263633399 3.8185292783704514 2.23624798684912 -1.217057135315975 -0.17057366858792558 -0.310317239168872
P 7.966073770560674 6.621061121051492 4.202939967133129 -1.1291076665881843 0.7586132437087839 -0.7608462468043606
P 3.8018422327916532 4.315242404783766 3.425690482344918 -0.5630998744563851 -0.11069061907904808 0.04554812094344414
P 1.57093593932065 7.140933844055987 6.375445278664139 0.9678398487822171 2.7938434845750466 -1.057470304756856
Ni 3.938639230679776 7.085108091574189 10.573257771792148 0.21324035421851661 2.0027628643661766 0.05124722821075045
Ni 8.48216777415311 3.553779876449195 4.316295113719729 -0.027061889213798557 -0.9650514874038026 0.2045500255333703
Ni 2.3274337268218597 6.694557673314255 3.2751549432951435 0.6715166098995918 -0.41693677350234 0.11515791082178231
Ni 7.854036119087815 7.1561406613492835 0.11546975842303232 -0.015881190006630713 -0.989066362261161 -0.3085452348701138
Ni 7.720935094931194 0.9639320146906596 10.176472006804092 1.6562128681175154 0.06225694905769279 -1.4424827187467737
Ni 0.7924167680341299 3.45340017197023 11.721564631294193 3.071940687367948 0.9111930468224502 -0.40626746671395186
Ni 4.997590868542271 3.222420201680338 6.2978831552967245 -2.605913584096861 1.1913365906214193 1.669720415685647
Ni 4.811725682084425 3.3268728324355608 13.25236615735582 0.5235591360492854 1.7613571034570374 -0.19638188790028113
Ni 4.581113470374783 5.90677282459836 12.633901036572368 -0.9175099901794135 0.47109963269798866 1.06824682654707
Ni 2.622900164158415 5.401592056874812 5.540764775191343 2.181395655813153 -0.8157850649340853 0.14513980189585327
Ni 3.190416011234168 4.9861995465190585 1.3132134844715013 1.638972592979829 1.7443196883587764 1.3918733812303383
Ni 5.736730451055728 3.4929985770985414 4.046684862764031 -0.8239570592219164 0.4552703789752159 0.44046339586937044
Ni 1.4494193104418736 5.73587541235665 7.911010197736441 0.5652588297809168 -0.8653250806457419 0.9143657881234768
Ni 5.3782945508160385 4.69025502302818 10.798382106088024 -0.3666845622150072 -2.069161860616701 -1.1096102199852051
Ni 1.8548455632728797 8.76980095373036 10.839207905477917 0.26536715682074297 1.0692881233273905 0.0785852539040711
Ni 0.8002242826928163 8.936956422418039 1.9581737721689914 0.1548413454543333 -0.7098954667881063 0.3687054492997779
Ni 2.0719518411228783 6.282622093612841 12.574895091767866 -0.22369625944451796 -1.7997169341821586 -2.3764287429950235
Ni 5.869095958051851 1.207011242270744 11.398869348676003 -2.3215768281521503 -0.12363175262074838 2.2661109338743617
Ni 5.544493847195069 7.874455914256141 2.0794421640060996 -0.16148893267783798 -0.38559554018689723 0.6846181802785564
Ni 0.6693196966567333 8.367886795340732 13.142562639257973 0.8088472001636714 -0.2508849040441679 -0.491402863031715
Ni 4.06284049719437 1.2443295442015112 13.367188660677613 -1.10016270141906 -1.522345810922004 -0.2849535635931028
Ni 2.5175189429880627 3.2175841763500634 0.3223762520498247 -0.8977369213175443 -2.639958075276079 -1.5914313528657558
Ni 5.487518849149992 8.020152669786288 7.09623186923027 0.12231791890533127 -1.4955515735472955 -0.9190451958770173
Ni 6.544236353637475 3.0455834883676056 2.082900014056891 1.5727615443703944 1.3353222243081713 -1.9594019808820384
P 5.471236338009468 5.888026330970168 1.2053986208963519 -0.34621652416864246 0.05294801295194108 -0.6332958758554964
P 2.8734356969530475 3.5859955280790077 7.060707309774667 2.8163588920687435 0.58365224468644 1.7762833857495666
P 0.8026110358786324 1.432410476105357 9.908382437577723 -0.2471724881895872 -0.7369316449702922 -0.7064126504458286
P 8.587374309997845 5.1438484559073 7.337382203056948 0.07747659422092464 -3.188815323770521 -1.5191776976066675
P 3.235365303705103 4.128448627910792 11.7841231239839 0.250383281817401 -0.3288124697595821 0.5001988640567901
P 4.651300195415305 0.6963894863524117 3.5406343459981944 -0.39644379575531075 -0.6265508438221791 0.08970424663536809
P 1.5174822296814576 6.863027878926323 10.133465399033323 0.4983255582934773 -1.5778641557042825 -1.3531561671657986
P 0.9885442576738241 1.276839402695523 4.819157163594807 -1.4783915168282409 2.8638332835006226 -1.0301194235477291
Ni 6.798375920518548 1.3143140020228963 3.889986609305734 -1.0075317680552003 0.19917873391912794 0.5224792727215453
Ni 2.065166695317284 0.3511386506110991 6.238662071722776 1.4026545310062422 -1.1878373192189091 0.7245435557185844
Ni 6.674367727258584 4.93543966848019 12.981168108729895 0.6063208899285494 -0.343846224164253 2.1377884606461635
Ni 1.1124605112887254 3.2769312172377463 6.286943256930766 -2.5171974124063747 0.3232673715716368 -1.6960906781490594
Ni 6.773349949132602 1.7334024861101531 7.892077066628771 -0.8101816027043789 -0.5306435536998926 -0.5029111207816307
Ni 7.3065723086001375 5.459642748767118 2.264991078084931 -0.27352269604834184 -0.42856021667388133 0.3078530938990956
Ni 7.9300426236607775 0.4063392135064744 0.36781834101829264 -0.26915464888763324 1.0766401928170877 -1.6469041891220797
Ni 4.20359089982017 5.461693002852006 7.669618062643249 -0.32229806567983205 0.022951209479534666 -0.5026606953337215
Ni 7.650913861251785 8.650058760001286 2.4248915893807466 0.007507107010322555 -1.9494867786508556 1.3099737182410536
Ni 4.104856914987819 2.422628035319314 2.229089566084573 -0.1713272589244985 0.8046282769863174 0.26237773517511587
Ni 0.9984553514115346 8.317016589727789 8.34937658660035 -2.0178644958943055 -0.23835720389080242 0.5393477663421098
Ni 0.39501868500995946 5.64785239617405 5.347828510631761 -1.7814559310894416 -0.17318873761326947 -0.12266553205273713
Ni 3.169674427308125 2.377025971368438 4.749399796696726 -0.1424743392485482 0.4103298097087837 0.00013009781996106627
Ni 3.0525984832858546 8.102999483951884 7.8375118066807765 3.3041246725685034 -1.921755117063542 -0.36670410259903297
Ni 8.53346090213334 1.501935235701431 2.480628160406835 1.1153216685476857 2.0432996481379586 -0.15570137946178347
Ni 5.204280384606716 6.059116816466509 3.5944594918034385 -0.414519422310099 -0.7287910181410288 -0.0008348371964695299
Ni 3.7249806895196116 7.8661721522360315 5.007451395475198 -0.4405834663870025 -0.7211684685987645 1.0739122523629634
Ni 3.192355937744982 8.140979751327098 13.147542090434545 0.5727942189260136 0.8554841832959201 -0.045754837637611526
Ni 7.884422171780889 6.476136658539866 8.583636963426063 -1.8069792721715265 1.9491234817741658 1.8609912076116077
Ni 8.727950027298025 7.950830177409352 10.270061049098759 -0.22386158137778867 -0.019474049564211622 0.8921992793287666
Ni 5.930585192669483 8.487206066702521 9.283418103284822 0.7525744937138716 0.5583885850236447 1.316067489843617
Ni 1.6446347588025503 3.147268735806454 9.1339187240349 0.5319386183622322 1.5466247380740268 -1.4813243742043198
Ni 3.387139269773866 8.793438636475866 1.9391192807298399 0.3050588189834101 0.445453135774478 -0.5275844551585946
Ni 6.667720490920583 6.514006598341007 11.232441122580767 0.9442651467860705 1.4236499023109868 -0.3698465048827566
P 4.9754885778693065 6.190654866657072 5.753347622504279 -0.06676049335500116 0.7193273016249676 0.5663415213221342
P 3.9064051911209505 -0.03558340082844283 11.424314564843431 1.168782616580303 1.229696164236224 -0.3111680172049415
P 1.8145116409840705 1.0965733406219684 0.6452361066326768 0.49713745152264704 -0.13996931343850735 -1.188434586483276
P 6.265558095489288 2.597478852298702 9.844828238531992 0.2206302189246845 2.189117964158075 -0.6299387864578054
P 2.0052220467366966 6.9060648267799625 1.1356660777024372 -0.5749282345498808 0.615413853368753 1.2995422384950845
P 6.786341020979899 2.484108075972441 13.250953045011212 0.8783749718511648 -0.010803518373407199 0.17050579146446765
P 8.032114017608889 8.789862184282944 8.038885372467723 -0.8387858967046328 0.7964701666555573 0.502865869365992
P 5.588128402741613 6.3066918926901385 9.230884709492702 -0.18657390067092383 -0.4054704247339533 -0.2982988745517572
