# total energy = -381176.30357621005 ev
CRYSTAL
PRIMVEC
9.16696034856458 0.00000000000000 0.00000000000000
0.00000000000000 9.16696034856458 0.00000000000000
0.00000000000000 0.00000000000000 13.41677308068460
PRIMCOORD
 96 1
Ni 4.827871187361836 3.303570733982234 9.220904873994805 -0.5325248298830055 1.8145779104543909 0.7533599657296445
Ni 9.106329790241569 7.026612393537875 12.433980294920197 -2.8814728509592564 -0.03499734201079134 -0.7598705131546526
Ni 1.9644062060573093 1.4054599831085368 12.13938811621208 0.31596312460073966 -0.33595885099637623 -0.30678840008000713
Ni 6.786529709458951 4.349291703295076 8.338108285901312 0.5214950544314051 0.9263044485425918 -1.200927576743964
Ni 7.549000779750996 8.366968626271134 3.095316651941891 -1.3432041981594092 0.42281482954967176 -0.8251014572390049
Ni 3.3539981812948794 1.6522345480342586 9.983621618816567 0.7709931054303755 -0.438996838626173 1.0190688221605224
Ni 1.7853663090452634 2.322064319918452 7.455726961098721 0.493874207390343 1.1958499051107405 0.5975128047186161
Ni 4.1546679741740515 3.350358898149429 2.4050903939150627 0.8958772424009861 0.15289733435408506 1.5544239224034713
Ni 4.81763169297023 6.650785364829676 5.393717381150861 -1.0919966206685001 -0.02832250109377703 0.7707827891917822
Ni 3.5498319491443664 3.2842467821671 0.24095629537303398 0.6202729812332672 -0.39584858537347306 -2.3445997714098845
Ni 5.477991995108202 7.307588886462776 7.509837692965124 -0.42383170084996047 -0.4835324591447027 0.3621835890208601
Ni 3.373102126068475 5.086370294209549 4.703893552670847 0.4829120519518844 -0.5621647642366253 -1.0107309917187883
Ni 9.075427967865469 1.2900937907017682 3.005222851735855 -1.1725341132029354 -0.5866406378908026 0.9487044135043466
Ni 8.157806098488438 6.729575386580663 7.209892009579571 0.4377225998994397 0.13546525492056669 0.7986818295948954
Ni 2.9991084893730964 5.805564146038951 13.172439430020322 -0.44360502682214564 -2.1178513554026046 1.0656194162265518
Ni 0.8836701993876033 8.488770024642905 10.636804191224345 -0.23166127992786553 0.5709702783433973 0.04329454902257705
Ni 3.960905939299052 1.1566228521683912 3.3827036000396196 -0.6809296756833757 -0.23322605331182414 0.24120290086971366
Ni 0.7663514444871802 5.941895176112329 0.8991880293841211 0.8337730168710736 -2.5738580983232127 0.20717563608167547
Ni 1.7937082427035997 6.216674804033893 11.253934943092009 0.9514894324486516 0.28798643688215564 -1.8113316356029516
Ni 6.805019467908251 3.968707022313606 10.855698363811097 -0.6416748439478109 -0.538586205585737 0.12544643723198395
Ni 1.0661724572158617 1.3827717569498754 5.220547088667862 -0.2794182355971704 -0.2633789227461206 -0.061171429302997876
Ni 1.0683450267510546 1.8295418895941884 9.819883211543527 1.6723933345321198 0.6325476848355622 -0.4833329415393869
Ni 3.1700356267284087 5.108205993082248 7.233988280804079 1.2885353458616196 -0.5404147741540435 0.44504870124720775
Ni 3.377410597298605 0.7154188976750032 0.5944727766772138 0.24731826973883214 -0.06862942824293987 0.9419557819266037
P 2.939220739274295 4.990263884897466 9.545537180832994 1.3055007700713646 0.9027891390294709 -0.025698690317684774
Ni 1.6860147958704874 6.4313191739349245 5.57377022724999 0.5634217765721782 -2.5840854324781755 1.662462191461337
P 9.075409633945341 5.619649028978826 5.12472393842176 -2.8968282503694045 -1.0824681123527746 -0.6392708624920087
Ni 0.21724045299118644 7.960056435985552 1.608831742218738 -0.37858748430018024 1.052471051770052 0.6855957137004773
P 5.899415483175264 7.252284616396026 1.7824851334971152 0.9889200664912839 0.20179020340004603 -0.7223308643379818
P 8.422813746981666 0.26158928908532275 5.772150576605286 -0.7758861718566186 0.03926614458947431 -0.42099140318768785
P 1.9201756237479999 0.44573976633310736 2.8037834878071672 0.8725061717752135 -1.1398582202364693 0.4281038458627531
Ni 1.2302060406029667 3.2693963068632494 0.16907724481437583 -1.1001801849205568 0.6672002419124251 -0.17781286664884213
Ni 3.602798644394768 2.8899483289297274 5.2935344246982705 -0.31161333227247623 -1.3294567666663297 1.043613601379422
Ni 1.9571643076066658 2.6560716768142023 3.368803738494416 1.9969706831644318 -0.5907849990764793 0.24510454991696495
Ni 6.962902021092343 5.051966693088961 6.047261131785164 0.011432924427289987 -0.07848909464583902 -1.0036098072929749
Ni 5.342449323600338 5.101963293278593 0.3005736201499445 -0.2945046976166476 0.4277852861810697 -0.6661216641362657
Ni 4.430309296341642 1.6014770901593058 7.700086948743558 -0.6983028768545005 -0.996661915220232 -0.829156858255301
Ni 5.771041374437529 0.6241792274609542 1.8915096229315354 0.3976254747682378 -0.10627834894396533 -1.1744110185106742
Ni 4.2816303710619135 7.465123095164429 0.3386027539758864 1.6144339844085165 1.4348917937733934 -0.1472445069436819
Ni 0.9480378428697332 4.758284793515211 7.327262099456352 -1.5773836165234383 0.6430904933484151 0.6779896192184452
Ni 6.422234716511396 1.2443506599818814 4.217468984181226 0.26412068600815153 -1.0856997319161947 -0.565323107359949
Ni 2.5323543837890337 7.555160976914075 1.9376909343424864 0.16430634752197512 0.6629777191906453 1.030990770409089
Ni 7.545609004527276 6.106313771822125 0.6918048085498674 -0.05681160967240538 1.36557588098639 -0.24031638449970225
Ni 6.847352489484291 7.7213854637565005 5.386606570229134 0.7471659211037907 0.2079582798839709 -1.0330628224467693
Ni 8.016194899418135 3.854101687592158 13.479965272682886 -0.14135873758686623 0.8541752346765096 -0.7263091322594394
Ni 4.728868018669496 0.08773605807754793 5.696425986299735 -0.5923813970293217 -0.17580843462430368 0.4936350947963434
Ni 5.210976782360935 0.3724095859963013 12.601341484810572 -0.1436472765107268 -0.4421490111019095 0.29228377870592887
Ni 8.201284990072491 1.0546679223354092 10.007114704068856 -1.0740886300398274 0.32400244996544847 -0.2858367375290045
Ni 1.507607419102865 5.703893391967956 3.3263533798295564 -0.08427844763410647 -0.06548085531162917 -0.7951828153027015
Ni 0.12157955793821926 0.6373374819369714 8.006298249332927 -1.2479625666455798 -0.42907777974024813 -0.7116990956557485
Ni 6.838176362460122 1.7613030388769866 11.938848031065682 0.6798881217927387 0.6525758071310309 0.4611764600470058
Ni 0.35824754939326464 8.031512889685256 4.255465116950937 -0.21138890283207465 0.1338086931537502 -0.9208755642175366
Ni 8.086377145668926 1.5780921750357726 0.6459232567330125 -2.5521821560116753 0.9046102513986097 0.385151253560627
Ni 3.679782775013127 7.228239680147878 9.583104299871707 -1.2415484355891198 -0.3266290889550181 -0.4692283838172047
Ni 8.20816021012057 6.10683628854578 2.891703801782004 3.146234770095833 -0.10566899749474058 1.2724302127696407
Ni 7.881403918635527 5.8378593463447945 9.956063903471854 1.7147460884667178 1.3936286733585481 -0.7359800796903001
P 4.95952706780252 2.592755483651425 11.331631346507347 -0.6731160931762279 0.2699784303405092 0.6886398998434399
Ni 3.0711332945967738 7.4908089172640535 7.148134199627691 1.695137827317487 0.36065121153673374 -0.3612394799400359
P 8.482499823959056 3.227173288807979 9.07497053655827 0.1545875775723144 -0.6019505287749956 0.5249817274284249
Ni 2.779477293197191 7.942171696900483 4.5207413573740425 1.529847775726004 1.9828702392073076 -1.4160327520853613
P 7.743459503590866 8.082242846680016 9.009443272628031 0.4666577948765511 -0.06050448514296031 0.3298465674510513
P 0.052056416116036265 0.4457241825009984 12.476512239529628 -0.9940113649712623 -0.9948153489297964 -1.3786304001775032
P 2.3726659394723146 4.318747392361477 1.7270204416292445 -0.46489761765233484 1.0693855681372035 0.3597176439788708
Ni 0.3014747323242461 3.557724701759561 2.327434325124005 -2.2670936095026053 1.7875131930271149 -1.131924310101373
Ni 6.70469625696668 6.247558292489864 11.979527333046157 -0.7564805136364972 0.32647765097881837 -0.5502168478461299
Ni 2.305352951721588 9.058679931828348 8.675835595191076 0.456360269605285 0.8719238169091823 0.19702980589692518
Ni 1.8191098890412363 7.868441837104882 13.12370970371155 0.7614599691289595 1.5839941798614203 0.45743267673385735
Ni 2.1827356939041116 3.702232660210121 11.50398394615263 1.3873924626408494 0.2655497051451943 -0.4888003924118614
Ni 1.0123257337993055 8.274336494823348 6.478275093471292 -0.3742207226910523 1.377942372971543 1.0952459808437331
Ni 0.8844952257933727 4.488629496269481 9.71322013102162 -0.8386190321094654 0.1423964348227612 -0.07863127665065814
Ni 4.521520548979492 5.160365995847008 11.28266052914889 -1.1698789349682757 -0.8433565467944508 0.9185422880986696
Ni 5.097856495169873 8.201642501514991 3.5409546650182864 -0.29052025904760287 -0.1973671346316859 0.3046441000434947
Ni 0.934819086457293 1.0013803834827635 0.9155180520423187 3.0814555688369185 -0.5446498952813136 0.3628543898356396
Ni 8.89812062630554 2.8178410210654734 11.409516589300008 0.4826914513006461 0.7420643382111671 1.0212838275339702
Ni 6.804606954705367 4.47971921108717 2.101201084309931 -0.3449777666655349 -0.2819952522957272 0.9041438532851526
Ni 7.233263174263008 8.687060537789572 11.189602134058124 -0.20735561330296548 -2.245618984568597 0.6583638745677177
Ni 6.199761762715618 5.992744303587922 3.6770675214421384 -0.6874636201471515 0.39854464414839746 1.6163306872105971
Ni 6.795348325040621 2.0462304915895158 8.377539964617062 -0.16920532748548925 -1.026156068024607 1.2246925403740456
Ni 8.614348210561088 2.923261061802687 6.919177454978572 0.31740937012896303 -0.2990414091447366 -0.5393907037649033
Ni 1.2416830746032266 3.8099169400831694 5.317174181311586 -0.12445270586014695 0.16297245920189996 -0.8179622750910622
Ni 6.481297440204428 2.2997977739227395 6.186917018273793 -0.9304508666107975 0.46712110766621484 -0.05883301097780835
Ni 5.494015841300259 0.09408234452992821 9.30973730049602 0.03286692593134985 -0.47598164338063825 0.6998889903946978
Ni 5.551309341700918 5.889982681269299 9.421043446290396 0.6378379867002241 0.3740091209008784 -0.17309026436219221
Ni 8.054732799527635 3.366116902499627 4.327298332709275 0.5712461577126032 0.6020937392210792 0.9633422180221797
Ni 6.837268833413775 9.09565944872695 7.253027140161219 0.6567062843596368 1.1206258543694185 0.138459047441568
Ni 5.896335384593724 2.8723752664868374 0.7539742150086249 -0.2719386393906736 -1.9068216356821615 -1.3540943627093518
Ni 7.488388839807129 8.488146671358546 0.26018216071548256 -0.8328880431629593 0.11156068038882723 0.09949140792911898
Ni 1.1248868364264577 6.801783531005623 8.567561879785906 0.27296168133854926 0.2896779656519656 0.7527007348790908
P 5.309860780572442 7.6814266848370645 10.998694690547087 -0.537064883845204 -0.06411611375361861 0.3983721231262752
Ni 3.319072063450637 8.5261345538642 11.576353429074718 0.3463754183440099 0.21006144226990273 -0.6694311881254729
P 0.24771051154826693 4.926159333169176 12.023923837332626 -0.434794113398735 -0.7647406967627604 0.4935232518088275
Ni 5.641952242814794 3.6892705786794764 4.457494833107753 -0.2429327390766268 0.5038354323681129 -0.9840619670680344
P 7.097757170595399 2.5091619748268466 2.591557361971047 0.09920858658137753 -1.6940224827661214 -0.4380848683348649
P 4.862696468645373 3.6454800104532437 7.003837081258605 0.7709679086193948 0.3226186822440444 -0.8034273146996809
P 2.6659994945636285 0.6891170558590717 6.543239506053595 1.497952469679304 -1.4311143290088322 -0.36724403426290303
Ni 4.3127705343996805 5.821432153909917 2.3830741059291003 -1.5048671945212664 -0.17862327836527947 -0.057112942962908086
