# total energy = -340870.2263247882 ev
CRYSTAL
PRIMVEC
9.30584678672798 0.00000000000000 0.00000000000000

0.00000000000000 9.30584678672798 0.00000000000000

0.00000000000000 0.00000000000000 13.62004742178494

PRIMCOORD
 96 1
Ni 3.94941071147198 3.5851519479932237 13.282488336397202 0.45705883833420635 -0.18146563291008103 -0.7532332103437931
Ni 3.3055112499747628 8.89050829898507 12.654277602114274 -1.0884806370954414 -0.8525796080546155 -1.098970480883172
Ni 2.45785096572173 5.912665222651841 0.2914181777992322 -0.5474012327742057 -0.13097688013190992 0.46617494170286167
Ni 0.4555677328284118 8.368375843596723 2.2330477620554547 0.22052043281969763 0.7540803888354368 1.0912240041685335
Ni 7.473367410541098 5.124720557672833 7.68154292704533 -2.4100009225235137 0.7727334851602499 -0.09406946558259928
Ni 1.43897240516781 8.143332549081567 6.408940451966506 0.8006029578770083 0.7249389913847902 -0.40332175382206675
Ni 7.791608761317648 2.8954211907309175 2.38941949028251 -0.9895103917771152 -0.4699439218269907 -0.42306782610074234
Ni 0.19095597748215729 4.957066420717738 8.321385969898081 2.779562806286316 -0.5567150539759638 1.6401319033952528
Ni 2.3282112131728057 7.3802624127482614 8.563387309138662 -0.20927339915096863 -0.8400681058511661 0.8039762452246153
Ni 1.7858385408729724 5.051492848764106 4.896910634887432 -0.3073314170676707 0.4564026928074463 0.5751058977783257
Ni 4.5673840836287845 7.491271859891764 7.041415125278791 0.4000821638388464 -0.5127134515840331 -0.49083670611559993
Ni 5.656382200241576 3.4952667732125144 7.49345035864072 1.0526093771201293 -0.7586852345972998 -1.2484742161746756
Ni 5.489640036278355 7.548744770073528 11.039443303064504 -0.5980825611791571 0.5004058378612737 -0.5054007199727039
Ni 2.5491971584588087 0.8482409690968378 2.075709156340076 1.1299687290368992 -2.348757502332 1.3104434587886207
Ni 5.960171570850983 8.692163479099364 8.943236157855035 0.26317606270669514 0.19502845919618023 -0.7293600032706213
Ni 1.1394171948778178 2.7542421880807315 9.5432129527773 -0.26475626270962144 -0.43255082589051314 -1.2620247011656007
Ni 8.554222911155016 2.68706327962831 11.651473961419159 -0.508402225803189 0.5048811000238079 0.2513237913537994
Ni 5.294273087386522 0.7189399493734663 11.422180686644932 -0.7122433981949927 0.2710726918459525 0.24855882701415258
Ni 1.0687020646201708 4.316219276989242 11.333813295486411 -0.3333784918637097 1.9345705236606554 -0.4647965732980963
Ni 3.6089376925567906 2.5399657583778 7.946398495579207 -1.28375360820226 -0.07282366882994555 1.9511592812572718
Ni 5.4191296346515365 0.796440903158403 6.724762282560535 -1.7333811870694018 0.5229276731128736 -0.10559340706179879
Ni 3.4951644088970997 2.971142866597014 1.8769790743945367 1.1074708050446993 -0.6394816929512341 0.45783685415081155
Ni 4.649768745843674 6.438101253674016 13.001166071851888 0.419913853852793 0.5357160831267935 2.039134203906359
Ni 7.534330013293808 7.599433717897373 6.883694979842321 -0.9854488201132318 0.11114904677270536 0.8357098288824705
P 6.133632556244132 6.34618740427873 9.061908039299647 0.6622482972237885 0.28109228086548366 0.29471835628935045
P 1.2589228802007155 1.9591320210227157 11.620024851969793 1.1639435433204468 -0.9094228422959048 -0.5188519603816032
P 4.853566791986912 4.896066594577605 11.629409798523923 0.07188675883797298 -1.3811482815033505 -1.0928132030325244
P 8.496414990486441 5.286567846189874 13.54797018842448 1.1768851910827798 1.2962887645547934 -1.809219731466271
P 9.378060227457057 3.229556927937269 5.120279807553219 0.42055123032647573 0.44991785641405097 -0.14850331905144745
P 8.057411665061451 3.0909184214787317 9.244606938866603 0.11129714231479541 0.6762124727133645 0.5560401393961263
P 3.9355449996567553 1.17174570685506 0.295092126137924 0.5727921620434845 1.5127077736116077 0.8052198878237294
P 1.5692077319155096 8.286261050940654 0.493696579150909 -0.08430724398951286 -0.967408160561437 -1.2028461339229155
Ni 8.810645521268118 8.193323558391224 4.989309318903906 0.005716847879119187 0.5354427748607488 -0.4291983644785124
Ni 0.11411759999335744 6.06618377823289 6.322222056870845 -0.14272759290993484 0.8374093280720805 -0.5110864575035714
Ni 3.480777569657947 7.866381240804447 1.363203269482748 -0.18259357586693717 -0.4430028744617725 -0.09773560158027683
Ni 7.681818380112263 0.24967866289666302 1.0856759292852516 0.4436189107792166 0.6610121108238423 -0.5649878355077173
Ni 6.836233299708087 2.254294871596744 4.792472046208849 0.20222523405493562 -0.4127301916201602 -0.07601080830867554
Ni 8.25180150003342 2.9437836768407983 6.992627361967596 -0.5281588396048259 1.0946075759287859 -0.9860196050150373
Ni 3.865034598029937 5.683992647862899 3.926945466577259 1.1363682048053396 0.18591287004815724 -0.5732343917872257
Ni 2.8266230649255766 6.1613918974151485 11.621510065127987 -0.44414727247886093 0.34064622916971654 -1.2894691705297987
Ni 8.698417008186498 0.9541377839777324 3.1148232808820535 0.062363906949202276 -0.5923515722326508 1.8271812010406985
Ni 7.416815779198063 0.9089067153348461 10.526308671001084 0.3247917786359632 -0.4456274565688132 -0.27196872129766064
Ni 7.498874736772998 7.8171905343243955 3.0326945294557 -0.0377813325138317 -1.0701378729221955 -0.8679198379561117
Ni 8.67115087689884 1.2083269908454286 8.39507059588743 0.36270655140386565 -1.6464511607450611 -0.10936547250972134
Ni 0.6082143305590682 9.345489763461563 10.118264967480838 0.6102845025619876 0.4466949786013791 0.6766899265704153
Ni 3.9314690387338906 5.098626963089014 7.00378228059371 -0.9902873791524558 -0.0929885738135947 -0.2071877202665335
Ni 1.0251227837941992 2.4409887712189198 2.034072005752921 -1.0711097499171618 1.3865427130460444 -0.5370625698523589
Ni 3.9672034906603764 8.183571030886286 3.57617459753138 0.16552376486884396 0.0712234142223612 1.255414652048251
Ni 1.1913624320272038 1.102975498590287 0.1428484715761261 0.25260522916938427 -0.8427145423350777 -0.8903295731098796
Ni 1.5670115520575276 3.3621652456332116 13.292921121307302 0.02444116376149984 1.004434102966483 1.3680955620844504
Ni 6.113950690143996 3.109902349064677 12.172031867519493 -0.18915477402422262 -0.3436047975774082 -0.8217135146033784
Ni 5.319938613014972 8.668461487157499 0.30918303944706055 1.6776949492506914 0.7834840388085345 0.6126792280464093
Ni 9.407652820458678 6.105054300549799 1.6605557858219593 -0.16188488256467604 -0.15606621900036993 -0.8550573801711466
Ni 6.889090509849346 5.944007314862361 12.049547380618037 0.1260413905035055 -0.4421428404543224 1.1024165304502433
Ni 4.779334051617752 5.000319996903755 1.5465154243575054 -0.43100816399374153 0.39935634141641546 0.25197273779170803
Ni 7.757102681176136 7.568389412786239 9.961511699532693 0.040279416345337084 -0.041323027118503025 1.2112292157802882
P 3.4605931878275964 8.28074268375513 10.46693829864541 0.0655333058161194 -0.28514459655798635 -0.7422664269196443
P 7.276111374737526 0.4423608749705815 6.1107020190066175 2.5761355815034794 -0.789875287046859 -0.7361083777380484
P 2.113339209271099 4.54253747252365 1.9134803281019448 -0.8042014738615441 -0.14327832320708228 0.321936054354723
P 2.3307237918238863 4.716882513368105 8.747584450049413 0.26455108867735083 -0.9120651650147583 -0.2594266229665919
P 5.662570588400721 3.3578380268452386 3.0136259186633665 -0.41629219793980565 -0.40101830249987064 -0.16471746691746472
P 1.5237114466372312 0.9876574443525243 7.869527547626412 -0.11986405804820002 -0.34493405791179305 1.1881291394277151
P 6.910707992095499 8.718201238602047 12.449132069346305 0.08178602022955592 -0.2011271158947504 -0.6703336453350842
P 8.609397277163383 2.3582318751297953 0.40201723709639064 -0.5832974324501825 -0.4195053055604646 0.22878164438722534
Ni 8.181542356271711 5.1007952254064275 10.444656378933749 0.18774940903626378 -1.011482268062516 -1.2918500120571494
Ni 5.31381536578382 4.289306767882107 5.096118106776675 0.08686086364930203 -1.5304638120434482 -0.44343430557223634
Ni 6.062145040697448 3.938038966614125 9.693033364817833 -0.5592501616929917 0.34004819057440144 1.2956655291484975
Ni 4.275869125022251 1.600503294891752 3.9944603161011774 1.1574774759801294 -0.14272167937266386 0.29362820854896526
Ni 9.02083668420133 9.129808150883397 12.451324526865546 -0.8212854259270242 1.028827701319499 -0.397194043657774
Ni 3.292092218808619 3.434890438811723 10.55909130830489 0.8920990063054766 2.302229791084106 0.2190281645448873
Ni 0.6599101710127174 7.057209939147234 12.392240774593033 -0.12550120172931933 -1.2939171789988233 0.8940486738326795
Ni 7.729389869239397 4.775044056217203 5.033601427599038 0.34697525671153795 -0.11946090907251038 0.4247992069695523
Ni 0.11457358648929437 4.226678418542198 3.164958530817976 0.9077865922440624 1.2426316413509695 1.2570496165485125
Ni 0.19531390556475448 1.1057765584938997 5.839173227692405 -0.6869380866609847 0.7297541533852464 0.9807652985946334
Ni 2.3337388862051838 2.818722400944955 4.070868763465237 -1.2579549019716012 0.074234176024227 0.5896529423545651
Ni 7.45643076926344 7.198928680915059 0.5020597437202664 -0.5020117488958128 -0.031806602987635546 0.2154535598197515
Ni 6.896916727055121 4.211044595824361 0.4507649852661047 -1.1158978527661296 -0.7413146045293362 0.2601352189978423
Ni 1.6512759953373002 3.3590757044770676 6.825100715114427 -0.7860800816704849 0.17563565649186527 -0.2775462153854381
Ni 6.115514072415781 0.3653773262708303 2.993113971023689 -0.2663644877370058 0.2850718343385219 0.3080554397178888
Ni 6.932632567287895 5.165508084442048 2.7524889665330883 0.3837554016543649 0.9372897439095018 0.20780684190777113
Ni 2.858421143632035 0.949903623658318 6.186634007011658 -0.40558098216988864 -0.6205470608302603 -1.5318244398364005
Ni 0.037577009603944986 7.971044100392255 8.297346175715347 0.13526316621208961 -0.614246058312897 0.004579906061198564
Ni 3.9974102695544835 5.88336111090275 9.493132607337827 1.0881487076773193 -0.30815596985149507 0.06936424952643538
Ni 5.927787223792605 2.0226723433544977 1.1876847613497699 -1.4471803813327593 -0.258117160126549 -0.81065571412732
Ni 3.7652014729603183 9.234266281840377 8.267096589925703 -1.7734302325714877 0.8040027275871765 0.999659050175343
Ni 3.025098166667265 1.2320569003278605 10.35631597473111 -0.5682739624581569 -1.7473124524385133 0.19772837462584655
Ni 2.040837356417128 6.5630787769481564 2.8763497881845264 -0.4021696424954944 -0.00738035162447116 0.1969228480054157
Ni 6.017262941311658 8.086566883260847 5.010897022440121 -0.14992668176153534 0.04645983412443611 -0.0029205160809046477
P 5.267751423847335 1.5043087559427724 8.84485846723367 0.5734022848236576 0.3278177099464806 1.313915219387305
P 3.6665036612071136 2.9379861342496008 5.878494152997138 0.8923874840801728 0.9641878538519267 -1.3402713407833307
P 5.549002033371859 6.9377135596711925 2.371440594156997 -0.3761593344746619 1.015443052482477 -0.10174240874682479
P 3.0179791938225353 6.975337098509417 5.504774135020033 0.3184378113934774 -0.44147461074270417 -0.2270749461087638
P 6.093291710123997 5.942015863635208 6.215495160450408 -0.23999036861885117 0.6791083062039207 -0.2863823256198294
P 0.4117204436129913 6.616866571775002 10.298949151203503 0.8753238437296667 0.3161060779365072 -1.307211067894252
P 9.158330571496595 6.367581546200341 3.8746587048482635 -0.3125330158732682 -0.2591546002521279 0.3207788008218282
P 1.2828389066202646 0.1723619648794722 4.300366766870291 0.8758843442188271 -0.30735481410643845 -1.389629322391168
