# total energy = -381175.5919201532 ev
CRYSTAL
PRIMVEC
9.20223881450072 0.00000000000000 0.00000000000000
0.00000000000000 9.20223881450072 0.00000000000000
0.00000000000000 0.00000000000000 13.46840668158352
PRIMCOORD
 96 1
Ni 7.056589527421389 0.3295165247951491 12.336346386910456 0.13381460669102116 1.0598061519788844 -0.7240349915132821
Ni 6.59495001974095 4.75121707630656 0.5553477450246844 -1.3170833327026412 -0.2948615667354342 0.8353084796789937
Ni 6.413141389329069 8.024315355804962 9.759988250385748 -0.18042793567418605 -1.10638888483443 -0.25112504507943206
Ni 5.571311388888249 7.65940057932153 5.030126809479141 -1.1063102090776946 0.5494892256514858 -1.2358027913545944
Ni 0.31153074921484736 7.516259756015522 2.205289823008508 -0.9267577340299266 -0.5660756692552573 -1.1403184477023394
Ni 4.58032230101785 8.298330418201813 2.4674662052907217 -1.9319950496239953 -0.5691692205789165 1.101244107408697
Ni 6.73225662369781 2.0624057421628175 0.7931998496955339 -0.8470933881290638 0.30813591524683703 0.16803136178204608
Ni 4.496508310746482 2.552296122716894 11.067608888394076 -0.8141241322918947 -0.015917442561204843 0.14266640065469624
Ni 4.859315774562792 5.96013358156898 9.993880631734926 -0.366760152647949 1.690722986079243 -0.09907231811382937
Ni 6.05417125905944 7.371922641675776 7.276751248374882 1.8593863250183333 -1.4851288355520746 0.4620681186233397
Ni 6.139614045584435 9.033515674104327 1.1018742240113657 -0.6931575852081353 0.9207392957499885 -1.4224736226146986
Ni 5.190320301359135 4.908759403211019 12.04817644091288 -0.8897058234829516 -0.31730524045093095 0.8789850946313378
Ni 8.549220254692653 7.2105337789859165 8.911640304258805 -0.6806635665061826 -0.20176166415495572 0.4555238897469187
Ni 8.163968530635689 0.3171165081185276 9.627028784000716 0.205389233605214 1.9046336268919069 0.3194104597193918
Ni 8.129009225734402 1.772222346333073 6.026976803190979 0.42530931383675136 -0.40372156036364665 0.8105204741010364
Ni 7.198359217157961 2.5011868888601554 8.398184830787851 -0.8241848589620063 -0.775257022913052 0.20249828521066415
Ni 7.746012050164099 5.323099403865236 11.963554494081803 1.1297391295245962 -0.3365388918695623 1.2993226662851107
Ni 5.625227305554909 1.0034857280535914 5.13395474874493 0.9060775799727556 -1.15260009328317 -1.6069726430344646
Ni 3.681318791403116 3.232847687332507 4.301257050010885 0.8508793375340573 0.5220761237458558 1.551971861318553
Ni 3.084433981239334 6.690414044233173 11.668299744492886 2.075288542339729 0.6455960333790881 1.0815463718694536
Ni 0.6645350681216168 0.21401370526395677 4.372396796891743 -0.01602748577650788 0.5915283050004071 0.2401528623386445
Ni 2.904447394094222 6.561610308854569 5.580122532463659 0.40989220795073283 0.37150229531862466 1.0257395493124786
Ni 8.799907641931629 4.047669117127032 6.425561650930877 -0.7388059791748696 -1.6245535893410217 -1.2670872032901728
Ni 4.1707398577824195 3.974953026753256 1.4380080786708254 -0.08161812719312396 -0.16843579630931635 0.519635375514847
P 1.2062478560333143 7.316672400394563 7.931450043527564 0.5516692640219403 -0.19814180801418135 -1.1286258418557593
Ni 7.795934195225821 7.7795818170185065 0.42061684768584806 1.6510763182218984 -2.1602280205966022 -1.2451559504347198
P 1.86414350891769 6.8955411475642086 3.432450686759292 1.4553621458126034 -0.7878875671928689 -0.09012924998792865
Ni 3.7798471613894504 5.778076490711631 2.824405401474614 -0.3062975764865176 0.3531001386623532 1.3043787406517793
P 4.44230712467947 8.428339646852875 13.275363991155954 -0.2556393880100178 -0.1147097675407702 -0.07718631667401546
P 3.1040807609087864 0.7226637696747762 10.003524577914595 -0.9078606400151074 0.616989425385989 0.47620352958345724
P 5.896086000070439 4.551666529640485 3.1659244062336356 -0.3610152797443718 0.03613017006365391 0.08573934845034913
Ni 2.308271156311961 8.760264397521324 6.406772519910227 -2.591667101480175 -0.3182166965216068 2.2286466183803166
Ni 1.5182497598706797 4.556313660194618 1.967815010125222 -0.5934162660517392 -0.44805997726970576 1.8599247140203063
Ni 1.8203592570829108 4.71867796018891 4.652082278788508 -0.48069061882053343 0.09456543138241133 -0.2971431636807592
Ni 2.916667967115783 1.684837887437936 7.690096487023354 -0.7903637966475032 0.7197816155535669 1.4064417659628166
Ni 6.094964783309877 7.2466249592498935 12.31920169594926 -0.5458621704218599 -0.24550307090696427 -0.9746753836468117
Ni 7.6389808115995095 1.4744655080359006 3.832933036123472 0.2055974929612782 -0.046338992275855674 -1.0564549761184643
Ni 8.693078852618903 5.496377558982699 0.7275796055995637 1.1287569681169851 -0.13704494070286075 0.28499315858178664
Ni 4.807589990711743 9.125013533707776 11.012550053678261 0.24586456801144108 -0.6226797909025469 1.3028376214169046
Ni 2.078868547234784 2.260069829891076 3.1795538420033895 -0.3556239335254714 -0.8376983200674089 -0.8682409687409562
Ni 2.5131866081524112 6.156196479759775 9.34768010404114 0.5051505516351107 -0.21941331579844792 -1.7928942548333702
Ni 4.800568682567577 5.489043374722018 5.058693319140911 0.5022259217891479 -1.7727627741908178 0.03938904332058378
Ni 9.045782258319495 2.3874288137904753 13.266757137280152 -0.5442338907898177 0.33401843944055376 -0.6568978315451526
Ni 4.788099649100548 6.4576986292164165 0.7371996259585545 0.889782699467474 -0.5100523598121022 -0.4056084929737144
Ni 8.375886886142863 0.31412394008644057 1.7431083034673998 0.7033129284745823 1.2024630395518838 0.5431717680738903
Ni 3.889335397692561 1.4288776174117948 1.4870606121734085 0.9770603389392205 -0.9501735418507056 0.6451751437915856
Ni 3.406954043934865 4.249538627950812 6.661945078301846 0.6842425421066926 -0.13951885616465004 -0.4290291858904998
Ni 3.3732370412609196 1.0474632269015125 12.65910386736499 -0.24497522342795228 -0.8986432351818976 -0.5489942882929384
Ni 5.383272842862214 2.2787595767335382 3.133209527356413 1.0269212283254057 0.3497870151287202 -0.8714008545261768
Ni 0.9066321655144888 6.393246149214148 10.8659602312996 -1.3419857523712762 -3.551604150475548 -2.4125167469668325
Ni 6.657874928115524 6.958466055938781 2.5622428225504823 0.3967515568037167 -1.5228762295041773 -0.271061636102359
Ni 2.7157278824028284 7.227189831071025 1.2484907328823167 -1.0653293957899588 -0.20208536604296162 -1.265548398048143
Ni 6.428591948141721 3.2208847769951356 5.20232002065139 0.38747913036285525 1.8410898407019907 -0.8643807144546016
Ni 9.14143032758614 8.982139575324679 7.012622151036061 -0.3093337922096802 -0.209354131790233 -0.11556440223158161
Ni 1.2733413785485252 0.04064720865477146 8.959964940678553 0.6910258835771131 0.4959195199551459 -0.5043221421965444
Ni 6.759789721951207 0.27869900190586777 7.556018948633712 1.0576592808392107 0.605912341636221 -0.45665543224820065
P 0.7155338751137029 4.649983248136236 12.39333125019059 -0.22899041796392178 -0.7371705004539756 -0.07098275896646485
Ni 1.4674534021304566 2.4198298963273093 5.953129757678386 0.23679808693379864 -0.11017768399837155 -0.8449151495308221
P 6.43477585256227 1.6812490143367245 10.421367870849917 0.8127424214530196 -0.20765848925536493 -0.15532265596612604
Ni 4.573742700332296 9.131280258276814 6.882935000740234 0.008215960151889076 -1.4319121423197791 0.5378626971561511
P 3.505068313178752 1.2335877072735684 5.667599933969879 -1.0656824082540033 3.0557481367684853 -1.3731416091487902
P 7.1824117374543714 5.796379743527809 10.094045159765866 -0.2763555375114466 2.0816090852411184 -1.9692333651501635
P 0.28585558295923214 2.1891573783066267 1.9962333637435838 0.4818743547159895 -0.32073097830302827 -0.04664032556635839
Ni 8.41137992088997 4.41291517420442 8.71808593634337 0.9764628145645378 1.5912531754166788 0.4833756218518643
Ni 6.480897473032196 4.771968124622539 7.342504004708436 -1.2385003927914153 -0.2807595801164133 -0.408238988618026
Ni 7.724635249615089 8.380644443561648 5.160272231263274 0.2736160270930965 0.2923431711889546 -0.11903950526437564
Ni 0.2671842405942118 2.111205214100571 8.101004052634616 0.8984252056338204 0.7379593149038581 0.16703377375546716
Ni 4.105735243456888 7.958942651930587 8.904852732978155 -0.6836750996389968 0.32610818345454157 -0.014807754436793852
Ni 2.154363713702318 2.49119325760909 0.4844610597086546 -0.9683314437066549 1.346236814338146 0.5094805464690322
Ni 1.1625648288244668 9.282298197928045 -0.07404305319735169 0.06949331890513194 0.14931321654725252 1.2036686298242107
Ni 8.634975917334161 5.593102290179707 3.151445603829928 0.5444814880242494 -0.39467539100097837 1.1070851395705064
Ni 3.9305246182080027 3.909193828852598 8.913876448268022 -0.37637942090526794 -0.46266564299802254 -0.36374836240481867
Ni 6.7907644574862775 3.0319720182906003 12.117242923409885 -0.0992353260542549 -0.3914879944119322 -0.205727076560607
Ni 0.679436253282621 7.12332416262648 5.154709477956398 -1.0995212111803194 0.024477930536706233 0.37416261575960724
Ni 4.906661292782619 1.1285165455565638 8.904542617533256 0.8501648279655359 0.45114401551166816 0.8607312906274724
Ni 8.360970057176033 6.187392069024151 6.791834677849535 0.21092276182893352 1.5291769749112243 0.273525010041187
Ni 1.70598463201892 8.431330374437218 11.091515384367504 0.5675365700714999 2.2233920548495965 0.4581968085933915
Ni 1.7696641239686197 2.3128814779112092 11.198010132414655 0.31696251239953155 -1.2579145356519692 -0.06948971936070612
Ni 0.9099192051856496 6.978747790079987 12.871917600699723 -0.26759630326157785 0.5153809711138673 3.165885711557541
Ni 8.824716877523592 3.078406514877043 10.62743452275437 -0.3556221337532585 -0.2843786649262393 0.47076641772828604
Ni 3.388337915002171 8.673496488620497 4.525464995330026 0.5075532475393323 -0.0752811292315026 -2.499789244232256
Ni 0.08272352498292274 3.2603163699148556 4.062435029378836 -0.24192563796835106 -0.22309307864288028 0.5232955979752536
Ni 1.4033598094383095 5.254008995547556 7.186607038087302 -0.33528496485780324 0.2366713315479472 0.5525676074664936
Ni 7.854580062595104 3.5387945180914184 2.229102456146982 -0.6669485309129352 0.8570121899046725 -0.09168965249651305
Ni 2.7886188153123044 4.451628992503898 11.036443666517478 -0.4484798384159438 0.045429850198024986 0.5212700829047926
Ni 8.344672892401045 7.758527094824734 11.299858670131545 -0.44454965012360215 0.2758415739895056 0.8225820332512607
Ni 5.2004979773846225 2.284741031902224 6.937980032097968 -0.20264560942180584 1.7112157067159561 0.4825459268617174
Ni 7.045408807375308 5.848758886328054 4.9077259918026455 0.9352498306613377 -0.6958595575203306 -0.24959241048498948
P 4.274219032200681 6.35251704063476 7.406869063442855 -0.9685546154610545 -1.6428986675071127 -0.15274435371598855
Ni 2.484107533793878 5.167250288885452 13.550563381676204 0.9457232193888357 -0.2415962796533904 -1.2797678840816347
P 1.7181039804145493 3.894424235705305 9.143216482121895 -0.7268331230837095 -0.5329842860179272 -0.42512727973293235
Ni 2.0741662032483252 8.99743369607907 2.3787087723784035 0.364708669435559 2.3722650985356366 0.8370360038930617
P 0.011229491911303255 0.6478192014848206 11.694456187833612 -0.20530181609773027 0.684251540967757 -0.5299619542518357
P 6.5117617817026145 8.92685252508858 3.2373466618432305 0.34065702780299395 1.0225796635272582 1.5137709247687994
P 4.768986599276917 2.7678401602801626 13.330396139379479 0.6077938749296501 -0.3419811459310562 -1.1329177843628941
Ni 6.001865734168964 4.071981431828058 9.86576982493202 2.004325580867606 -2.1994622835068762 -0.054117864890326155
