# total energy = -340889.8156626155 ev
CRYSTAL
PRIMVEC
9.06923686357437 0.00000000000000 0.00000000000000
0.00000000000000 9.06923686357437 0.00000000000000
0.00000000000000 0.00000000000000 13.27374488235083
PRIMCOORD
 96 1
Ni 6.384479776093034 2.1490826549134976 11.299753149082365 0.741624165349955 -2.4140784350269975 1.9402611462875292
Ni 5.034823147000591 0.6086564412868015 5.847562812604113 -0.8702549138471916 -0.9766870147602018 0.38937506183398746
Ni 2.833601449097028 1.6808288840629093 4.844186880248902 -0.272587328718266 0.6390327783392735 0.968567470976861
Ni 3.3979347157619744 4.386898723745031 5.0253603052096985 -0.48507023594546783 -0.4957909647970817 0.1557638572686027
Ni 5.209233641998318 4.416464436068499 2.7777041143318573 0.5880542304088776 0.615273985356779 -0.30540900323397724
Ni 7.342363509188815 5.89712619231201 2.612538799439204 -0.5366241967633597 0.3565438742365795 0.5961722315303216
Ni 4.624004853494945 4.350739676188693 11.528314243816581 0.49177850120357885 0.08057503064059027 -0.24617438594237603
Ni 5.583539187708172 7.505673258209879 12.992912567646803 -0.48364790167664445 2.625116896498189 -0.7568857194947158
Ni 1.6835587243725298 6.705294962513377 0.25554479530968044 0.9318757719827822 -0.14414941295812594 1.00782333115369
Ni 2.5735048037827006 1.6997382430182555 0.4186749734399452 0.29481400132695035 -0.2023278210710709 0.3151835661222378
Ni 0.40194767288491384 0.1800579088209859 4.567256824307707 0.006043892201234752 0.2890719566368506 0.12341320885203907
Ni 8.817447684733269 2.3187499390077977 1.0707730595210432 0.4430522396424692 0.32699984203087556 0.1938688916704403
Ni 7.160815524743675 1.113285107532163 4.808427786040252 -0.3829223642301083 -0.8600782304245058 -0.4049009253837285
Ni 0.923574809868887 7.566990368951892 2.6952475192785665 0.09019841266296724 -1.2036701724861076 -0.15583687659838322
Ni 7.7877083876071715 3.45072674380949 4.046301717778694 -2.13449462038624 1.239553002425646 -0.6538266488189965
Ni 7.471364334982986 3.668451914284787 12.759002436983636 0.9173958331990523 0.5731248627925548 -0.226311585580178
Ni 8.148255900926014 -0.20996462445223263 6.7871847302598525 -0.778138201115589 0.5464851487178395 0.14584994058900042
Ni 7.212909221549194 0.5565699998708092 0.5492611018458148 -1.6614175522469063 -0.053466861569888564 -2.0939840618667036
Ni 1.9261336039785937 6.554292167977879 9.129057595690936 1.04307778348061 0.17516951548872414 0.32969050148916124
Ni -0.07891868573507484 4.901686749175899 1.3433027217139717 1.80357076071061 -0.5388998801714138 -0.8325825961073984
Ni 6.542502159996128 2.064611782342709 7.11953235833373 -1.6742327017337035 -0.2029608266693795 0.6205938549077957
Ni 3.5329847225744726 4.5082904597725175 0.696345079112917 -0.37330412441405386 -0.16299508490971928 0.0008206961290824575
Ni 5.970913503803951 5.659049654212829 4.769654984406729 0.7589408022515316 0.3471560052637763 0.8532686637018402
Ni 5.497417714019938 2.5432226217434195 9.353874909429102 -1.1721579608104395 1.70312573061897 -1.9338884099919664
P 0.15378886411395468 5.833804780213101 12.339870374003475 -0.769216730256243 -0.6947318716737906 -0.4437585216808745
P 3.8588151970055136 6.195875925332661 12.7001204163517 -0.5732217933817354 0.10958221650621772 0.03607283446315723
P 2.2210017036021763 8.675251119236448 1.324897612330768 0.7500476135269599 0.26062270015722216 0.8107284763467845
P 6.300861411791695 7.834550996242357 5.939469552516622 0.621488341697607 0.06129561358568798 -1.1541453262831027
P 5.042876629375817 1.0348724852166125 12.588050042019324 -0.4112104125415241 -1.0745699405516203 1.1127104561770835
P 4.137948170591914 6.276682826192197 8.174847810467007 -0.8175329008631276 -0.8698111414415537 0.3089761517599453
P 4.673196394489572 1.2238753824009836 3.635784522938429 -0.5808214601058642 -0.2892496198652954 0.45245579234455624
P 0.3156312106031359 5.472250581597355 3.5969065181567608 -0.8488538224635962 1.801129755369285 -0.6788954188621663
Ni 1.6765300657680249 1.4926331489634428 2.6750575840716637 -1.9738680357086973 -0.09628601361794385 -0.7715628618909164
Ni 2.0082736826637593 6.5491680491242725 4.800223754332335 -0.7525325847323426 0.3374752876409027 -0.9038841718658627
Ni 6.060399664385438 5.450130712776209 9.035955530353815 -0.9199707930150801 0.11793804467008073 1.0105340452166338
Ni 8.912184933485088 2.5354865626600094 10.227207960669295 -0.539058260126149 -0.6154686178660885 -0.17984815191131606
Ni 2.021342453049684 5.429207983227056 7.035709029278245 1.471350807931376 -2.1274670241154974 -0.22403873038560124
Ni 0.5835455381330545 -0.3922934701952419 8.925146686875486 -0.014962534847103264 0.730255004281065 -0.01843043879104568
Ni 1.4117627634455427 0.830162576629477 11.313902972507847 -0.23744986158518458 1.5072084410599331 -1.1660073678280112
Ni 3.7979152711613176 6.917787183292158 1.8784339524555036 0.457921700555134 0.07793065103920772 -0.5506945588134968
Ni 5.8701270740338005 7.9005659717032515 8.147026112401148 -1.258709777859755 0.5468453602707357 -0.20750473728632007
Ni 5.310908856985553 2.92794872066176 4.849363600676581 0.5132189304655419 0.37890938641597327 0.18680632839670408
Ni 0.8280875352246889 7.3137954129253435 6.799634978688581 -0.7387067345928439 1.2864620082723588 -0.41022696558233224
Ni 4.980643525705991 4.444814870646154 6.936182316514762 0.03501739661544937 1.1583508797240178 0.617453252396285
Ni 7.911721133101369 7.02053256823466 9.466064997688676 1.7648864567665346 0.4496998268659739 -0.7560670802481624
Ni 4.7157855310144186 0.38354347042540116 10.179529168391097 0.6114564113829019 -1.5338550971131841 1.627851800476319
Ni 8.032042699173589 7.215294430856272 4.482450389971284 0.26366148698354586 0.28895342878111524 1.1299774707876475
Ni 7.339370661008832 6.21995474932616 7.03728798342411 0.21785702705492158 -0.2968361739633017 -0.3788605354559088
Ni 2.257804666979056 5.109263443549982 2.762824217335197 0.9590567032729483 1.5579252506885104 -0.8932197501734811
Ni 2.2600810454432247 5.33103349368671 11.408425280344924 0.4281007605389595 0.5292039930398885 0.6694923803807115
Ni 1.1003886526475097 3.518646259021282 3.9778362345049767 0.4620742892709268 -1.8324879579655926 0.6546293472259499
Ni 3.4830404349163953 2.9705832033711514 2.8771111131681417 0.39275709093234296 -0.31559879928278556 -0.39268227183034954
Ni 1.1870180036026494 3.2839344078153547 8.339761000573588 0.3533189395413786 0.3940770952953471 -0.005597034471803264
Ni 3.676414704290923 2.6017010613329026 7.021705220566999 -0.16554510502508263 -0.3826176885054959 0.1333258399800607
Ni 3.996105305334545 6.741816779546077 6.06026090506073 0.8184888370184936 1.102745631654888 0.3891883997444781
Ni 1.1122874914721688 7.604990471600764 11.205522870673757 -1.0152561332826513 -1.1196539773744523 0.41744456637669397
P 0.11350875530614926 5.738015499979831 8.124992401330637 0.14585019769931656 -0.8457078206354467 0.41794824548598986
P 8.656078752410739 1.5503407034156576 8.17543186932395 0.6761993600872419 0.17932750352115567 0.14931964430515576
P 2.0908672231943766 3.4202813155058465 10.477604150185714 -0.5530342626902668 -0.44212741383535464 -1.4908875924127225
P 4.071534148707022 6.139936872077709 3.9123962486641157 -0.8744864354300358 0.07454167996231678 -0.9457211625063068
P 6.689677736556012 4.08673418976657 10.695598676997209 0.28548269662369546 1.2736869679948775 -1.6066507409186717
P 6.1718061705760725 7.690068983044458 10.434158877696653 -0.6941623723235658 1.3128451262515777 -0.20686170438568247
P 2.1727533632460894 8.672031540133737 5.595534160444066 1.0985956140422564 -0.7947927789531344 0.48504581046543566
P 7.010846623215807 4.003877641365591 1.6059106387284114 -0.5757378749353698 -1.2939526602224491 0.0857069525505169
Ni 5.247088636856646 2.856020602736172 0.5325238251301835 0.0722855369382884 -0.6508377413940017 0.045800346163566284
Ni 1.5834615566074675 1.1364298001240303 6.968118727366251 -0.9465590850265698 0.24344130328192914 0.4204599561642501
Ni 7.119233073515731 0.6884575637731258 9.309156316078013 -0.18063825191277924 -0.8494788576421048 0.37002442522151757
Ni 2.8469604350640423 1.51974109808456 9.185988823463736 -0.8288110448801081 1.0304942903886447 0.12100639918275935
Ni 6.415269835399222 1.7043726230787744 2.5418023792434643 -0.030994648609301456 1.416238440338264 -0.6883935881605886
Ni 4.131481804675769 6.835946389424991 10.52946476760267 0.2552814904499668 0.4279639778507791 -0.22364766559476965
Ni 8.091827108877974 7.123840245865523 0.47414333329931807 -0.32288556275218583 0.31081577607184535 0.12251332274558902
Ni 7.8243299662458705 3.807963985656533 8.359565493211855 -0.34660707473884184 0.5923104345820702 -0.10181465674565691
Ni 3.04061585078275 8.541851713541394 12.533176624101184 1.5813513429219346 -0.0671412737331876 -0.3085318651336751
Ni 9.317189846132038 4.9391245591364115 10.260817645730501 -0.8834606139041882 0.37151386528285046 -0.10326887269368022
Ni 8.547601609741724 2.3879028704392193 6.187875044531507 2.46376217540537 1.0602676649963354 -0.7210874788491839
Ni 3.4051719668153875 2.16245977935433 11.584714014306511 1.0508707971624673 -0.003298211135297546 -0.33945349441319606
Ni 0.9781897545351192 3.220223018529357 12.355865787139946 0.2974884628353199 0.7788269996524974 0.6434807868082983
Ni 3.1955274864260437 8.521074091782785 7.849017336035966 -0.262583937648651 -1.459768502410415 -0.8846487206750183
Ni 5.651540326052145 8.256406551066304 3.718228421060047 -0.3524769032560575 -0.20349947278166888 0.8063012938133662
Ni 2.9291458599337528 8.83989404608314 3.508476016751486 1.065319882708262 -1.8809843629040832 0.018622757307509865
Ni 3.6558910211657683 4.310435987364925 9.162387948255345 -0.35416920335681584 0.14881365120301468 -0.12543923814313235
Ni 7.011245669639805 6.0954522650388725 11.506757574607485 0.7725547934905405 -1.523701039398318 0.8945968330266657
Ni 0.5819738393767181 0.02700093212559066 0.025172573964728415 -0.7251055988696415 -0.3973786488647543 0.9365564652879032
Ni 4.486823576008822 0.2706178670525031 1.5426481766694105 0.44018777361048056 0.27547442045807397 -0.6328325630658327
Ni 5.8201193017173605 5.335976227802136 0.2673329894440492 0.0849325362783376 -0.48490619956377784 1.0485231228658975
Ni 7.8470484047030125 8.551555797034064 11.53049086067475 0.2083611717493444 0.541755604452654 0.3592206497377943
Ni -0.1311139579939756 4.868094295664818 5.562681756664764 0.46825984925634834 0.8038140086151383 2.05419186957043
Ni 8.07203803394245 8.816595176463817 2.522329820676067 -0.8189986867753766 -0.7850850647470673 0.32695381928428857
P 8.525545225578941 1.7213048883879498 3.136771528187144 1.4966453208321064 -0.6768686182401246 1.1762030774140904
P 1.8035265902052968 3.4540098075705616 1.4525190071910727 -1.0656021898353714 -0.7570219879622639 -0.44105372115520175
P 4.7038685537159415 0.9340044323142817 8.099307415480549 1.393098254776375 1.0950050684775208 -1.1510384052230047
P 8.490420071030233 1.602924139014265 12.12948221618759 -0.5873381781784595 -0.7233078835392704 0.9143920133757221
P 6.1737651257484245 7.548842825896904 1.7999061508312084 0.7120428521484123 0.1726428924121285 -1.3297287893807939
P 1.7043907615525922 3.318170777146977 6.193940550176271 0.1301494991346081 -0.0012940362210751909 -0.9362031957135426
P 6.923473594834126 4.177598874358232 6.21431640473981 0.6317069341018218 -1.3278989352609067 -0.4662160793534422
P 2.6329536517214507 8.587624152221313 9.985228023004465 -0.716134762829599 -0.6508295138638855 0.853536058430614
