# total energy = -340887.5794474163 ev
CRYSTAL
PRIMVEC
9.12055878109314 0.00000000000000 0.00000000000000
0.00000000000000 9.12055878109314 0.00000000000000
0.00000000000000 0.00000000000000 13.34885969634477
PRIMCOORD
 96 1
Ni 6.613508595369462 2.0576436300401277 11.401781811632759 -0.4116991792524845 0.8542305133944773 0.1115676223673627
Ni 4.760740073866784 0.47505980126686514 6.002635467578076 1.0085980045361855 -0.01621363364538498 -0.20685759062062442
Ni 3.060987164523337 1.6886805511649108 4.752874504103053 -0.756382297495736 -0.023257170755727686 0.021184347387099
Ni 3.6280214151969687 4.138462599562678 4.742075762683458 -0.10764231917102753 0.7171117820308875 -0.0160663094342433
Ni 3.8692784321151286 2.5940054420363152 2.488894652032722 -0.06127633031197834 0.7890263087830024 0.8133972814281991
Ni 5.266566255564998 4.663478436621386 2.4315482275818447 0.14525575864842727 -0.5692692364918905 0.25136132945995415
Ni 5.0568298892770045 3.0336984530981463 0.22714933682708888 3.6476703347732014 0.4602462349232525 1.3946033785669918
Ni 5.875089927452931 7.992628266025553 12.378143997516654 -0.4741170793680738 0.45878790521017115 -1.0961553800318797
Ni 2.47044011369792 6.6511947436344645 0.4249806379334979 -1.4681058186315168 0.5386808221820724 -0.22393820025199498
Ni 0.5272303086944157 0.6423317586228587 0.3666172711952173 0.5410603781578424 -1.3378565606942507 -0.8935730197478418
Ni 8.375564040724097 0.07746911295936633 6.928685915883504 -0.5141517266924563 0.9095693951760979 -0.17193815303562002
Ni 8.739173351682675 2.5086005310117554 1.5417264622721178 -0.1522689567414668 1.4254812990927708 -0.5724777161268592
Ni 7.14871209641946 0.7792523209652333 4.4361731382417 -0.5164554351249687 -0.48146632064429334 1.5437188772811414
Ni 1.0318087979718518 7.845395088038639 2.330150416997101 -0.2765473418072786 -0.48261097577169787 -0.7275234642825148
Ni 7.535204888984254 4.066191292967354 3.5788689006205536 0.8583000554781605 -0.49736525126273695 -0.3057566163813831
Ni 7.639562320844892 4.210688303364845 12.374018768847668 0.9055669588849243 -0.2106116583464179 0.7369522137955825
Ni 8.463322055875562 7.36552601620543 9.055705987209345 0.24562339853491244 1.4513635661761715 -0.0868562356636117
Ni 6.897340379979062 0.9597199025491566 0.2553701693444097 0.41976961496544485 -0.6829423352380302 0.6266531737279982
Ni 2.068579179839193 6.7422179187759745 9.153913426384822 -0.030387354042605733 0.8389866998615294 -0.7835478021669345
Ni 0.6124756099429255 5.093996165700015 1.3397982062284777 -1.1538823024297031 -0.3102215941312722 -2.1229231134985564
Ni 6.901289581866464 2.0765779097589427 6.987006415996217 -1.3106368057463493 -0.003970297501657678 0.6583913853715436
Ni 3.529865963205693 4.455155756921262 0.11551005095513046 -0.864513126267408 1.7697239873644943 0.6087783503301064
Ni 6.692410548089823 6.004911959012476 4.730595715534098 -1.3241255842614033 -1.3218475868605042 0.13066577664939433
Ni 5.553608476812855 3.16731463704836 9.201849258439804 0.8190727345464217 -0.3580507977994091 -0.29401130291999683
P 0.3001311349397996 5.769109036155902 12.416962007107816 0.29439439729102845 0.9599625029166693 0.49142703140143107
P 4.225746345665309 6.265276546263449 12.463229688989117 0.3933427882324839 1.1010854703436457 0.22452826842751009
P 2.581464673918121 8.765431439982514 0.9417031510286616 -0.5479370506730177 0.44210144569342574 0.6308127044223265
P 6.508822823398093 8.108450240085878 5.665576102795544 0.859648599086255 0.7192190581818775 -0.5975387728605451
P 4.993058943326158 1.234859794783019 12.699383753352999 -1.165519372447999 -2.0057440584816875 -2.2822083536568565
P 4.2527158375384 6.319434423416784 8.095736181353688 -0.07745242585120854 -0.05795292236570019 0.9694565584500336
P 4.854782153915293 0.77304395670483 3.776098244857289 0.4940007056658782 1.3376375027049092 -0.5380372750608025
P 0.46103694237106635 5.951073301411241 3.2623280565911137 -0.3568089549725081 0.653861358711674 1.8320418715671092
Ni 0.9756991212713937 0.11622966303114902 4.486725658568038 0.467463321496982 0.27405054352735386 0.6481805062768127
Ni 2.153044673324717 6.61343563090041 4.605369533468923 0.7956654113660748 0.36908674389859664 0.4537693689496572
Ni 6.407374849740877 5.909109611148105 8.868542091478238 -1.314863185122871 1.123068145262324 -0.36134849471407443
Ni -0.11736882080421261 3.1130290720741844 10.71598420674017 0.29265581733336693 -1.7445773128955373 -0.9553805399729418
Ni 2.620719558267726 5.505552253383936 6.856668160818135 -0.5484487002021134 -0.10796602105903343 -0.07256193052812664
Ni 0.5687790135398216 0.3617350361598215 9.241481733916752 0.4444030972434088 -0.6362665284480462 0.2974311272348233
Ni 1.9217108241975351 1.2483582215575115 11.4726768259306 -0.8215965294095399 1.1691595403037478 0.14168218236455601
Ni 4.57635886057412 6.818028002120286 1.4054479872573948 0.5283956382059803 0.921188210361949 0.8166407280661614
Ni 6.052338863895828 8.432631376080854 7.849876930550116 -0.5682513367503375 0.45247327584605296 0.7852262183106219
Ni 5.70749054204207 2.5939051158913693 4.859425430314545 -1.142377644224213 1.143815148001688 -0.39259588276413027
Ni 0.9087761102575312 7.6818817128946515 6.664964963056173 1.28417732600324 -0.4097001465445847 -0.09694190203438789
Ni 5.219458570233744 4.7810971607321 6.763519895515505 1.006311522494854 -1.028377501155958 -0.13351713005526036
Ni 1.113921187330471 7.921898333838939 11.730643618317375 -0.5384535366626146 -0.831600177589471 -0.3458138894135851
Ni 4.748518525300689 0.4966773493350424 10.33004138386085 0.3189607737764829 0.42596083137782126 -0.66941344751366
Ni 8.4815084497866 7.526896060071036 4.621495593185125 0.3368595084337747 0.11814810379835781 -0.7100422767786159
Ni 7.613167424165579 6.832940115482648 6.859458139703484 0.7005129971319419 -1.9056363571248083 0.756800358869761
Ni 2.6000250107330483 5.1593267271768335 2.592895470050872 2.3781174435513557 1.1514022163203268 -0.35699124618664324
Ni 2.2977423360120977 5.634051803941926 11.53649793495392 0.7369876950192081 0.8974988371648092 -1.6530786933639081
Ni 1.0319820885858488 3.853135043337526 3.627538937645367 -0.5117017224900672 -1.8614869163011039 0.7177609855791123
Ni 1.719033770290256 1.3168536168794298 2.369583152240019 0.012905138097442292 -0.1918721729553857 0.9126218088491767
Ni 1.4453258057615257 3.6602352282831228 8.156940602105653 -2.2887140159858586 0.9972280721363471 0.34743959794246615
Ni 3.521365602561215 3.1882463191074546 7.547711911035512 2.058848908726467 -0.32501340772846604 -1.841736987367686
Ni 4.658443888256846 6.963811011284806 6.075012572653524 -0.6581553581013375 0.7472474250740034 -1.233273082954205
Ni 8.200203059917902 7.464173978362802 13.332213713993651 2.057413718941837 1.0221068376558977 -0.957922332558189
P 0.3786764738176728 5.915320711576098 7.82398001637208 0.9679282947309653 -0.7502522733385982 -0.5028015917869598
P 8.852414207650309 1.9500210381894438 8.138759680529793 0.6144365770571483 0.8646421956461046 -1.019869720795263
P 2.251865926096086 3.5742739631820473 10.497850542120235 -2.805476955048917 -0.32969410103358704 -0.060697317880056764
P 4.447914033367919 6.239875790474961 3.7234507322133155 -0.8548825451561792 -0.19786952818940118 0.15636678095992423
P 7.25547735575879 4.426024692652526 10.090496295797806 0.8618008695425674 -1.379490177074637 0.30053650563302436
P 6.583967105962312 8.186476619177624 10.03978416569542 0.3316406832369966 -0.3913851502854808 0.945473308161559
P 2.8294253014303696 8.540399896869639 5.86440792918382 -2.0358174808283005 0.19929520489233418 -2.175728944445679
P 7.1523968021065505 4.1390007125219315 1.3243753415827568 -0.7160884829726958 0.324991296241279 0.0021471282499898508
Ni 2.9302530771006503 1.9968186245272284 0.2933545598766591 -0.07314479961479016 -1.9143647381367417 -1.0229560730300704
Ni 1.7104513246180957 1.3677828162772447 6.959815294548384 -0.5384969883060403 -0.3235579062288621 -0.770418463873828
Ni 7.297504889932346 1.1028305880346716 9.363304123500683 -0.9090700869421763 -0.350396623688261 -0.6201043168658869
Ni 2.568267225578465 1.8903543436227344 9.166902013931818 1.0719319887081409 -1.8178218713129857 1.0809907564762995
Ni 6.377076353967319 2.159866851181014 2.3647237186012013 0.12544669434230007 0.27074847573731436 0.27578372416837665
Ni 4.128274935571389 7.085333334489764 10.283213699679582 1.1295246995209451 0.4388052914406572 0.01263388671392663
Ni 7.779243676284995 6.4051220717589175 11.066471769995731 -1.0418074014086187 0.8758684033792272 1.0842290609079392
Ni 8.079921132686815 4.116372606557394 8.00741998801398 -0.24392261379372182 0.05299634969137324 -0.5088344282446011
Ni 3.3822588423148905 8.564022143725003 12.156232597511588 0.9758830308016677 0.04681001837500325 1.375005401830406
Ni 0.37671646576778195 5.274574106043379 9.94646169772293 0.3420490230545142 -0.7565951848374906 -0.000951308169675781
Ni 8.787247816228856 2.4307109602994807 5.606481267255024 1.0958424767771513 0.46369408426253694 -0.4751555479349172
Ni 4.115141331142152 3.0765468375485288 11.226738226266937 0.8681499516890469 -1.3371837029969422 1.3984196669892885
Ni 1.47805949068967 3.7880872191782826 12.597798971316312 -1.9088111553083644 -1.44098736514817 0.5382319075701117
Ni 3.4571568697960617 8.605137622035416 7.829960366666698 0.1601265051126726 -0.08959034676532313 2.3747801516480065
Ni 6.048626796532844 7.913306767608147 3.4333932542819126 -1.101984070898515 0.1528605675788787 -0.6211535840660077
Ni 3.1120622928592545 8.382906090422384 3.2859284141057605 1.3520045700598586 0.38470645271372456 0.1874789289836965
Ni 3.7582721130121906 4.681455057683904 9.560079263917574 0.20402963425352605 1.452310246360157 -1.1006635523148787
Ni 5.6209455611885835 5.0994776214374955 11.292094325307922 -1.0732087985380356 -0.4364092804046548 -0.3140697642327688
Ni 8.127822306619002 -0.05202731465703732 2.428744567858548 -0.060229634215018854 -0.23850967030826667 -1.038572953631721
Ni 4.654978075976909 0.4439550481102913 1.6511467162290532 -0.016265312818926826 -0.8570337871712271 -1.3865617392094378
Ni 6.410913626489865 5.890649600478124 0.09879389109547511 -1.2279100188700787 -0.8894893365967713 0.2858621914503012
Ni 8.387739986497035 0.230988179955051 11.424781124333595 -0.6410261546202186 0.018231949626994405 0.06499671658635903
Ni 0.3679707620961191 5.227676193560649 5.562162648753258 -0.9397760006664654 -0.45881027380767436 0.6779659650693614
Ni 7.778213053159645 6.338988901122535 1.9828933556087858 -0.3713385160472508 -0.3059399360367828 2.270774657898618
P -0.2730996232680151 1.7133972650560423 3.496319636503489 0.4773304440990489 0.1807909754405596 0.8877638692652324
P 1.858259097798789 3.358691318811317 1.5368943903091945 0.9932528895386831 -0.1137214354855719 -0.025920833630819873
P 4.891939309779672 1.4279876238032079 8.014160992898459 0.10928216876729566 0.1605209123376139 0.7419908046607543
P 8.517078628449115 2.170090997406829 12.636511182427348 0.37342085249757623 -0.8439491860731271 -0.7115785109174843
P 6.526306934294514 8.043803720506418 1.1394934096212292 -0.6127728162014802 0.11008461006393298 1.123132422841356
P 1.7951539526280362 3.401822440579273 5.86519503339371 1.0878990535603588 -0.038920845434913615 -0.282866599157087
P 7.174687447401726 3.9886027006899165 5.7877988849033954 -0.5474369711081475 1.0147370275543879 0.3642679823537146
P 2.505262406552658 8.829247988726518 10.03489828243657 0.48797506829708864 -0.5877546968905878 0.2670062350860628
