# total energy = -381179.0621090245 ev
CRYSTAL
PRIMVEC
9.11237489230836 0.00000000000000 0.00000000000000
0.00000000000000 9.11237489230836 0.00000000000000
0.00000000000000 0.00000000000000 13.33688174787129
PRIMCOORD
 96 1
Ni 6.690023172279923 5.959967031944999 9.590124876114949 2.047208239163745 0.9967130801731415 0.2535033155036215
Ni 6.963294183332559 0.536000826814142 2.5628818681678576 -0.7806177730043331 0.7785524058348721 -0.6980766197763074
Ni 4.9399642344796675 7.6528458172108165 3.6556396893567706 -1.5255139242373403 -0.19115534939401918 -0.07526184595779296
Ni 6.223660936971548 7.986176491268152 11.050113228486076 0.03537349440328747 -0.33189213712617033 0.6520888401922834
Ni 7.7590140972393025 2.0255807054546455 4.099290241449713 0.5050343377722206 0.47943746313972274 0.4541244382962308
Ni 6.600402965080528 2.996048632931578 12.155994692014447 0.1325596512379975 0.842555391049394 0.5622876629677348
Ni 1.1764531622245007 1.4043627709956328 0.3129462913928665 0.9688538918690283 1.4236517020831998 1.208047732728513
Ni 6.9059317833000025 8.147055470231582 0.13215403954760285 0.2946900741545763 0.1288886301443135 -0.267544624088036
Ni 2.449470161326683 7.131043892975027 5.2917009946094025 0.7361150626062677 -0.7294569338598018 0.9338858604342756
Ni 7.094202561230527 3.3039193315018656 9.708022605122292 0.4093936710477595 1.329959160224045 1.1045189215052267
Ni 3.1802644040289834 8.903701520541881 13.397164852058047 -0.49878192910460556 -1.080231509712772 -0.12790595451607004
Ni 1.351028040671478 0.20635610840623816 10.008063039935951 -0.5339505065859385 -0.5642059630363703 -1.4201624579830188
Ni 9.02860484337687 1.3076986979939866 5.882698648930534 -0.33328721770148406 -0.8776679184818111 1.4867046646796265
Ni 0.5419375390653273 6.444180409694006 1.3228826482996658 -0.6328405334856326 1.1990830673360575 -0.3196997088250365
Ni 4.446046177455891 6.9491153279789994 9.982028984829833 0.14687478230908899 -0.12395416895717362 -0.6452669321744435
Ni 6.735020079565191 5.117072353150482 0.8601580730537209 0.36564917897195737 0.6247413014172659 -0.03701128711702658
Ni 0.13985581881805828 7.84829714656718 5.8115328233905394 0.43820133930807115 -0.13459905026552949 -1.6292129424899038
Ni 3.4094588576618454 2.1023251269120236 0.6288231225554662 0.9724475227575574 0.7409348525924143 -1.0207456956423129
Ni 4.644222106909115 4.239805796210958 13.393029656325755 0.3554748095421168 -0.6251033127423751 -0.13378838143877606
Ni 2.2971932642744104 5.825049209088442 9.476307668590461 -0.8940005942035635 0.5846014959735868 -0.4734730180261717
Ni 0.49030500037359204 1.5003343035044312 11.498352772581624 -2.574556409941818 1.4025763694701394 -0.1896052312980799
Ni 3.6647420406502604 6.28291871098453 7.556983633200889 0.980968158634059 -1.0627816896674405 -0.32099040261200207
Ni 4.5834243415370395 6.880854527559002 12.521637847488055 -1.391720400592242 1.3296339156741424 1.578376576564327
Ni 3.125717727842346 1.680103235647764 8.87810850438121 -0.9521856871847278 -0.6969574185701997 0.10847355682307125
P 3.6666100775059673 5.533325638851385 4.417734939860792 0.44539117218829094 -0.4660965230564424 -1.557252650101518
Ni 0.7162973654645254 8.461541752983543 12.929426648138882 -0.42568160957450557 -1.2442853749043086 -0.9827373347193398
P 8.112328209465247 4.945431659423199 10.99083085106085 0.3031937407502133 -0.1791866070679172 0.705153838338063
Ni 0.595502812474601 2.3223069695150342 8.983150494871326 -0.5458806823646212 -2.536037427931013 -0.9213823286506261
P 3.5390732783231775 0.19073840905503897 4.301424586562055 -0.2516860597892246 -0.991581158263215 1.1013454088732517
P 6.632205153502072 2.3028247119662484 6.2072777981282545 0.35898179425411075 -0.6153364631635984 0.8988278403888778
P 1.874215045892962 3.1872353708319867 12.291950414372787 -0.08785253813860999 0.8816171329375461 2.264449487011539
Ni 1.222990060868864 5.472336513606286 11.696818475556853 0.969591027145369 -1.008047017128722 0.05912765940009172
Ni 8.918244870891678 2.4471100562260584 1.838315933713731 -0.37751430584065954 0.5310166207685951 1.4217601414874417
Ni 3.140288415316858 6.782349754826368 1.958721388295174 1.0377131767345869 0.7318480597997976 0.2770690186387035
Ni 4.937449219005643 4.628931541817037 9.259063183409179 -1.5063270668962445 -0.32032422978291286 -0.4133732245207978
Ni 4.117526837348865 3.873169391872607 2.450171814194436 0.13275685485046815 1.202531173785658 0.7270904905101543
Ni 5.003122104952368 8.866103861680195 1.5871424318078704 -0.23937561785298772 -0.3083040653935851 -1.4771501882219722
Ni 7.232081905931499 8.601334696414751 6.730964161494581 -0.6577876903492736 0.9675202606592692 1.6854992757864584
Ni 2.2188359524586905 2.59043860112075 2.490369233616774 -1.5962889380683734 0.8149777385414416 -0.32949175521479385
Ni 2.1230740045727274 3.264490085284094 10.242351311141203 0.4401713185502484 1.6020101568228666 0.45451807419022366
Ni 6.8609986626390755 4.582859374292874 7.515479499217046 -0.7724902588011922 0.5859014457319329 0.9774382911039295
Ni 9.02561598440774 9.077529184246576 1.7497718979907206 0.9878278618683697 -0.5024899740838119 -0.34871023712477367
Ni 4.104250107110988 1.2456343125099927 6.749795795475087 1.1887796285275205 0.3614665083491775 -0.458837527501184
Ni 6.043281475709522 5.407119246404854 3.3535453252393244 -0.37694634915233144 0.7571459151346379 0.06389062800637384
Ni 3.5384080749550475 5.074481112840367 11.28940328227717 0.5841456393830907 -0.604764601185023 0.5848647769373023
Ni 4.589766554471536 8.051448432719019 6.267801281015664 0.5071189882153911 0.5841132434832587 -0.2938251550511198
Ni 6.430967466080471 1.1869779552407997 10.472799627561114 0.7346451629289605 -0.2550043255291802 -0.052637937910689984
Ni 2.0896315886681234 0.2529258116002627 6.452809828729881 0.5274870103487819 0.6017628382442217 -1.5609882058845503
Ni 6.0365929925286 5.485403659221327 11.76391653693886 1.2155440411055582 -1.4935707956718407 -0.5432154768276323
Ni 2.421376709491834 4.757616500237969 0.9005186039868742 -0.0069358078878848295 -0.9364045130910712 -3.0663937894077895
Ni 9.116202103347161 4.436715105552263 9.098300842844546 0.38514071203766576 2.5024667910644194 0.4906875821322453
Ni 2.3325310541594386 4.215876699708099 5.578230511150104 0.7735084156530614 0.38883153062569165 0.2813766448751219
Ni 8.918035286268843 4.0962767790683365 0.03826924089225232 0.31561088346764354 -0.5992094756947487 -0.9044025062631779
Ni 2.9886129350083745 8.40756004404107 8.511957789625342 -0.10028922124006599 -0.4958930375925847 -0.030467058240605593
Ni 7.245313074294846 7.270873285905858 2.383180367598829 0.5472418243782059 -0.43669801528966723 -0.4198441769571221
Ni 3.1282327433163704 2.2859212565158287 4.581765889304168 0.32001775428608753 0.2604861745793578 1.3187326953806064
P 6.017766825973038 6.668217259130136 7.730963473566511 -0.7420005748527673 1.2811357109634387 -1.2405320785094636
Ni 5.4617570463405505 9.025670658657175 8.473361414473969 -0.6703989513553809 -0.5480103271131143 0.3977082642900312
P 1.6678835408989698 2.5178585349953626 6.966907239982744 0.5720285444045826 -1.00895101700023 -0.31256978264847457
Ni 7.802498350290194 1.365407368272967 0.03209560689351409 -0.7194435154878577 -0.6951262788987318 -0.02985205036442601
P 8.514676011059768 4.653635190186896 2.1600684242156465 -0.040166802026872755 0.002110618585099591 0.8762414704479297
P 8.163093250065941 8.857884499515084 11.501246862851731 -0.003629883443103426 -0.08204698720042643 -0.37483033125059323
P 8.527989190797268 8.739687884610827 3.807946657246233 -0.26064532586504147 -0.24449879801216604 1.1662757909980495
Ni 8.695957597437477 3.2425657112605304 7.086045163214778 0.0005697564605409543 0.013626075423866856 -0.38901330761919456
Ni 5.424715242348121 5.82939581191855 5.5903007629504415 0.12902746971502296 -0.5507470093179869 1.1208644527427858
Ni 5.23395678606829 2.39805814210767 8.685030948687828 0.46189919714564326 -0.41605848466244477 -0.8083273231044594
Ni 2.575403182526037 7.866476334504424 11.210356163681075 0.18862564099363 -1.3937757404593738 0.19830584439587137
Ni 4.760842280954653 3.5889817556827186 6.691193201217839 -0.4106319143302347 0.6530833428950689 0.09483102633897217
Ni 8.531415443761881 5.978938996499056 4.192728533734676 0.40457799482667095 -0.07746528136701498 -1.6584522989709956
Ni 6.000435088902043 0.5872424446224146 4.862360516068665 -1.1945628108682007 0.8756220916963758 0.6051127285530611
Ni 7.439625356787975 1.5307240738155634 8.274281537430081 0.23238041748207722 -0.4674021292417434 -1.4389515656650635
Ni 7.735932451602692 8.407550931666163 9.20298198328839 -0.6992480143765892 0.7324281006729837 0.6230166054166755
Ni 2.7697974763933177 1.2337244385079986 11.56777084461467 0.8833719108451238 0.1675222833561115 0.3105928614277619
Ni 0.5540387729403448 3.570720556371322 3.953998891000294 -1.3291294652338979 -1.0091289373389911 1.3857189315931684
Ni 4.660496808491028 1.529639701201763 2.9379946036436646 0.4775757273406355 1.2369505318057923 0.049019624431812354
Ni 6.5162228456999465 3.32867765412116 2.5365553058272607 1.2080307634476486 -1.086632528143109 -2.108176808427318
Ni 1.4153614075070378 7.807610392612396 3.439515115051422 -1.1257076397677 -0.5413725100816225 -0.6845256205647502
Ni 1.1367505447595525 1.103344578354572 3.9988108170749723 -0.3177428422089818 -0.5384298825135307 -0.7361322889974483
Ni 2.8042695906622868 4.034604225705296 8.06145108665321 -0.012734416847532907 -0.4441750403930028 -0.19121654164925778
Ni 0.21772561857631295 7.001283674315201 10.077627821204981 0.10551961640106988 -0.1165265090345348 0.451237603666739
Ni 8.326150086631877 6.665984727278195 7.6480882462724535 0.003958727537431892 -0.45396682967244395 0.6996161963492854
Ni 2.5870579100306657 0.2974789462276144 2.2397424742052663 0.3624391566750919 -0.3782684103978647 0.09013567774583185
Ni 6.872070198149728 7.582425383938125 4.813894527656725 1.3214030431239179 -0.9863643899489658 -0.4654128667258565
Ni 5.591726849623213 3.2292980933975595 4.54040846455631 -1.9875591600425448 -0.35063805027510575 0.044218089278110946
Ni 7.422658114713213 4.251524310339928 5.337006811403981 0.831300129850549 0.2139301811966896 -0.9995400080989755
Ni 5.138021703059114 0.759342402044953 12.442964336263103 0.5717274682243959 0.21547747107915147 0.994718418340616
Ni 1.5540244164499157 5.158725018845289 2.8458101741457527 1.226594899603081 0.5665325542870179 2.7052592104767346
Ni 8.481270044654787 6.389661070632086 12.632494444405621 -1.934022107356353 0.832156050092941 -0.6324515255773301
P 2.306159841181803 6.931409983536861 -0.05031215556787216 -0.5644342769970925 -1.1230583750703111 -0.7333678388784337
Ni 0.5043553712409787 8.85425777430254 7.902609634718737 -0.6773321881401044 -0.5133225459229418 0.9812157558684907
P 4.314718630312252 9.226735210955566 10.473079377470727 0.20247488817189646 -0.24275250474502064 -0.9483226046848958
Ni 0.36354184182031174 5.2104468588111015 6.136872855892903 0.3567364498633598 0.6216469787626584 0.34310831755696397
P 1.5789832113171391 6.679635064887213 7.377562793778961 -0.8830227550358212 0.5488137968510161 0.3932366016719227
P 5.587371134418199 2.1318127721074727 0.9502995080977331 0.5610771875994014 0.136973464034977 -1.0236135041084113
P 5.351916479224992 6.793448627461737 1.2716665451411298 0.2601277627986746 -0.8066975008105204 0.346733573014377
Ni 4.529688666717025 2.7636739604565617 10.936510161771878 0.10976553616161741 0.753620932700515 -0.036267981193098826
