# total energy = -340895.5795931843 ev
CRYSTAL
PRIMVEC
9.01355171899352 0.00000000000000 0.00000000000000

0.00000000000000 9.01355171899352 0.00000000000000

0.00000000000000 0.00000000000000 13.19224404452397

PRIMCOORD
 96 1
Ni 6.467349456554558 2.1066202372881393 11.452345541424542 -0.3764069317090937 0.12006280432256743 -1.0653805607428684
Ni 4.480636496086865 0.19210762777790905 5.961733378679599 0.18422262682992788 -0.4319422457722368 0.06796685495827649
Ni 2.711997402821597 1.5020452778463158 5.063249035721075 0.2785507453905525 0.038884592880339484 -1.7456250374337614
Ni 3.4257625262416873 4.232953111906679 4.972077862729183 0.15601762515062162 0.7692511830386042 -0.5291829099939661
Ni 5.059162291429532 4.513662149117769 2.598713283710515 -0.24126229335273933 0.12909946060353897 -0.23336900664759166
Ni 7.251005659014393 6.132613191104593 2.573041787423038 0.3718992736467272 -1.0952907180387395 0.30733964459778684
Ni 5.025045998656068 4.687957196240746 11.332361649415569 0.009598442321712503 -0.6457310162950556 0.1288832308276748
Ni 5.671651149168608 7.982797885617292 12.316186298841505 -0.5926405642279794 -0.32142080528120126 0.14073421662898988
Ni 1.8926655631629852 6.383153871139256 0.5612891806344246 -0.4279511223349726 1.3731760619311513 -1.0912335172502303
Ni 2.791596076925285 1.7098256691313578 0.2169381597019084 0.4335332444084405 -0.7221897107744272 1.0973188042123618
Ni 0.4726021424611244 8.984329657144542 4.6214011312898196 0.5898912836176163 0.5805499516120324 0.5162803429996851
Ni 8.503988479287038 2.3833903524537865 1.41781003280401 0.5141681817526886 -0.18628876533033722 -0.788461694528784
Ni 6.821717237370602 0.5147422988612559 4.787663301234538 -0.13364002878636985 0.14280986821109598 -0.5914133766890975
Ni 0.7440443472810929 7.705712296145945 2.527040225521149 0.5750549899357322 -1.354070708560268 -0.2096204980777422
Ni 7.725082418515872 3.6842171045736016 3.685160823425222 -0.2481561922590952 1.2480019045239474 0.13922292219078605
Ni 7.637353520876739 3.802483915004412 12.745290844032834 0.26823753639000253 0.5820393916733653 -0.6354859415282798
Ni 7.76878913018259 8.733608706078051 6.8418273723261835 0.5541467790281552 0.17104726579023447 0.40644024484639035
Ni 6.777505766814766 0.7085724163482822 0.3603843265033053 0.46085610059310955 -0.13760287008885977 0.43814760325200025
Ni 1.9870464618765753 6.308242243863098 9.319225462457675 -0.4575979986671281 0.4173918587618876 0.48398111664634713
Ni 0.11408902926819453 4.787025141781866 1.3952779565358187 0.2652260032571884 0.29581878844238085 0.10986400941269465
Ni 6.466565277566107 1.8098400375895751 6.804888936549451 -1.104677301459962 0.7261317261413107 0.7156904762033287
Ni 3.4398056396210945 4.506938039630581 0.39982492420181126 0.4320394334717334 -0.9148450417527405 -0.04782740389592408
Ni 5.896611369786866 5.452108073056783 4.7342345728213315 -0.01837516007307803 1.42364835964909 0.018979883536612476
Ni 5.209237925426406 2.810479467509276 9.287590600437325 2.6123099745415073 -0.6999648379379558 -0.16979539566100435
P 0.23728895648498008 5.716214148236508 12.395907557246838 -0.1949587823005094 -1.983083126549062 1.1839330990684964
P 3.987721413759353 6.38151340474962 12.558238015987383 -0.46011845109613664 -0.6171496051129371 -0.4312475336980573
P 2.4800336526168185 8.468898722941702 1.3102855731598348 -0.5013936556958396 0.5059319098858254 0.14517091224410483
P 6.172975875130899 7.512984536018547 5.87858246389374 0.2997816297448708 0.17513969069205323 -1.4155509273529363
P 4.85485211750718 1.0938485669264084 12.53224924268389 -0.8015331830007615 -0.4813863593359774 -0.0012683251894623317
P 3.951649180290555 5.98273585524273 8.290164501659959 0.9146216128880248 0.8432714432798123 0.4150297862876143
P 4.777930468226139 0.9606372879570506 3.861554225358677 -0.49202609843801065 -0.25229078325275905 -0.2340873728708549
P 0.24119813381017194 5.633622975004475 3.469876650440336 0.718930066186549 -0.08496056130279561 0.3200563208335069
Ni 1.404212188873218 1.1167520015201655 2.394010118938778 0.3787011270599091 0.3851376267138722 0.5627779723405921
Ni 1.9095479452936848 6.4352161451312035 4.742426989862759 -0.2540651015443624 0.06815197438588907 -0.04942097363528908
Ni 6.136732384181865 5.668496406111616 9.107489924734326 -0.6312071116472677 0.8207058992744704 0.7092565476525269
Ni 8.581099413151499 2.307748627498725 9.947466402957888 -1.3338484679761222 0.9976350777667787 0.7511477885696741
Ni 2.312012037401459 5.080362164772514 7.23588001808886 -1.0501812272946107 0.4096811203811912 -1.3790132374382187
Ni 0.5502304541869312 0.12742277613735828 8.909856989830885 -0.10568519544465668 -0.05751197817353966 0.35384241614501644
Ni 1.1939170166941742 1.2318911095487586 11.124794879303243 1.2125659323138407 -0.47351749811086186 1.5460040737708922
Ni 4.049500296366835 6.806763755280463 1.587646977309878 0.854897971775147 0.8927541233909723 -0.33717292590913545
Ni 5.481888847514782 7.9611924024526965 7.843145522680716 -0.3463383944584874 -0.055806565446658726 1.7546953751661458
Ni 5.4361540867399984 2.9146941510090874 4.622786514169419 -0.2311372891035955 -0.07517417133999311 0.8265189064118218
Ni 0.5792288523667957 7.318571241743558 7.257132170031071 0.786368302334865 0.23113420377980196 -1.4160893163549095
Ni 5.138607735156165 4.466728585981329 7.1361594914125215 0.5485952530823068 0.3116729818658181 -0.0975589667930965
Ni 8.461850125597225 7.124049784849471 9.473785338371274 -0.7397529164691712 -0.4248192615742103 -0.6000350569198376
Ni 4.705344337260564 0.44949950837719715 10.20325116730843 0.20908802261303994 -0.8000167463562351 0.20608111746591604
Ni 8.139210046382924 7.050832705272497 4.725923176898898 -0.5744502664721978 0.16234562425117846 0.5321854442657157
Ni 7.321680917042593 6.073006574430639 7.044565582850994 -0.07122598532552249 -0.16928554590412134 -0.4903438256395813
Ni 2.4346774610088744 5.199187815401991 2.5550471330259588 -0.8831986184920532 -0.5933059657261202 1.0688317525162625
Ni 2.3335454121533226 5.239748797563308 11.464627406822988 -0.09227406424507334 -0.09748389058078695 -0.021025967432363787
Ni 1.042309078926761 3.079633131580187 3.916407996278484 0.6524616501506698 0.3548582590040405 -1.6299014839164965
Ni 3.6425835097729076 2.5843114309777704 2.9092851186990862 -0.5332190277365527 -0.015139683854915861 -0.6367344692234002
Ni 0.9969709144219996 3.385336747354241 8.432653429282349 0.6442009528037744 0.2586511782531481 -1.1190829353623308
Ni 3.4661883051291333 2.9521905256293275 7.120632747441169 0.07054515720841399 -1.6630208921782843 -0.03086429367902426
Ni 4.0018276219999 6.591655346551609 6.052284419322001 0.23924346315049766 0.5713243192487064 -0.047695506303750114
Ni 0.8736240663142743 7.464744007901355 11.513161776722061 0.5235316252454597 0.7260617921353237 -0.4131557091933529
P 0.1624088766393924 5.4706579622318925 8.092003372633265 0.30652769021945275 -0.7808666557903454 0.29491890233593077
P 8.520970010485243 1.7274561760441436 7.795745057571842 -0.08103988609215075 -0.5737884645184829 -0.08972635812255515
P 1.7885590422822706 3.296661426798009 10.506329135503908 -0.2959195756863032 -0.3852582114521365 0.0755014727724248
P 4.03110363756878 6.246932065938369 3.6897649455781107 -0.9405668719988769 -1.5300704332597714 1.3288065346768405
P 6.941624514191048 4.077253021716768 10.379406611479872 -0.24659013332355595 -0.65691660059823 0.26510541851892405
P 6.443166097634822 7.7429472777700346 10.199451053957493 -1.589110160931747 -0.5456773081045634 -1.6097656323985696
P 2.2535681688827967 8.280434372717039 5.88660362345493 -0.3405714100677231 0.9919403413748465 -1.0696581050722997
P 6.965600561424182 4.0678969551648905 1.6569458660100687 -0.6809828975188142 -0.29987598923089 -0.9147769075189665
Ni 5.231852926369239 2.853420027290724 0.5599515695782602 -0.02945224382284605 0.4912534819380443 -0.31075921180229704
Ni 1.6535630800978147 1.1860031183969217 7.090553624425495 -1.2071154507222308 0.21647120245098847 -0.3236378675371781
Ni 7.005791987970252 0.7039457603164145 9.091250208832092 -1.0885240887388674 -0.3021424166675635 -0.5246585397610513
Ni 2.8083252286789304 1.63183140721094 9.181973408309892 -0.36815934698832076 -0.71228607850747 0.1047210317591745
Ni 6.311117566820756 1.991949833942299 2.557131967509051 -0.2504709564352009 -0.46256305598188724 0.03602089817929925
Ni 4.272594711805673 6.892275319228112 10.447056921593996 -0.18648854004596915 0.5272820934268273 -0.960899412908642
Ni 8.192146634879238 7.421451919607842 0.21118841514175188 -0.7939085765759681 -0.8673593374669514 0.7448542422514786
Ni 7.533183905134884 3.788873452101392 8.06017111383306 0.17026230799509387 -0.08905992818314984 0.30815314163801766
Ni 3.1497405358581263 8.55363512145249 12.212693600824165 0.08707966452832745 -0.2928180539428441 0.5143543296215658
Ni 0.009731030298079622 4.870427534657125 10.262101547003864 0.24154331492826786 -0.6589413443377427 0.6560568237010959
Ni 8.51909519175423 2.3357447187416254 5.646267185176896 0.3758852548776688 -0.32299586307780503 0.24590776254455068
Ni 3.7559920158959508 2.557460060786978 11.344577715887398 -0.12921001803947424 0.4819399178466023 0.11736623132701077
Ni 1.207482411839237 3.3135978902382575 12.730977324105684 -0.9983863541105062 0.5698644468737282 -0.6671146241771543
Ni 2.8258926407305767 8.067948907501284 7.902972070013501 1.3170938742256026 0.6225527784063795 1.1381065276526852
Ni 5.521395244139906 7.831361205330116 3.5546896641396506 0.5002382019351578 -0.14105920406857642 0.12886266200238453
Ni 3.12125771282929 8.341483157645618 3.5350860907835067 -0.4585472499542748 0.46262347690617744 0.4038614283756206
Ni 3.4639619578860565 4.037088635825472 9.32594055839327 -1.569446878174865 2.1915211742829293 0.11303520805182468
Ni 7.210688042746044 6.131207077056334 11.602288676213021 0.14073935883531247 -0.7230145206685678 -1.3207350705226157
Ni 0.6312280314976046 0.09484689933086553 0.20326099651711219 0.9113712242715271 0.9237773112453639 0.2807269271062649
Ni 4.548093916196932 0.3391700314777772 1.5730432210214857 0.07188547328639233 -0.16381423837690498 -0.05477940973372501
Ni 5.8448555565490246 5.56945550122527 0.3213826887673008 0.3875056127254165 0.083339737869921 0.6656871477020083
Ni 7.945229402584321 -0.18935398776673515 11.103529207033644 0.8745039189315326 0.9499855942096154 1.5566777514346546
Ni 0.09920224745983189 4.8295961459480665 5.689207744958344 -0.39646410747028493 0.0784106759994198 0.10040003578631741
Ni 7.680321121312961 8.71356256733877 2.526565211352282 -0.06581638427417696 -0.08858350276736357 -0.04716225950809942
P 8.316218172534912 1.5318080252011312 3.410261020214791 1.1046819294456522 0.03243729459309898 1.2284759186758778
P 1.9649272062712702 3.2687374439678405 1.6253903232437228 -0.43038749969060713 -0.8088844811595101 0.09696889861758139
P 4.6501183066600325 1.1798378491084014 7.992085449177074 0.3150987197179154 -0.7437628089595126 -0.038482986566546626
P 8.37270610035824 1.588512278262653 12.335962031033045 0.8343098632111502 1.1221214650783387 0.6178456027386972
P 6.288250186433364 7.518852358104552 1.3258465686272345 -0.8904668700186922 1.4694816159331208 -0.6490518531381725
P 1.6853628901122877 3.304043525551369 5.923436600678042 0.26757393466407464 -0.5443297929377334 0.8189961156722153
P 6.866613737847384 3.9766978401630664 5.88813412451515 1.1243984340379731 -0.6866442095696498 0.40198709417104317
P 2.2378485349073878 8.520573414215221 10.199240136850255 1.14496263134257 -0.21336119606709708 -1.1509263051251726
