# total energy = -340884.7738209482 ev
CRYSTAL
PRIMVEC
9.07137886475106 0.00000000000000 0.00000000000000

0.00000000000000 9.07137886475106 0.00000000000000

0.00000000000000 0.00000000000000 13.27687991759487

PRIMCOORD
 96 1
Ni 6.468056524926081 1.7253490751585032 11.163253534222802 -1.0679809744801931 1.6522662247649416 0.7352686554455724
Ni 4.571557741827833 0.5650688989854119 5.651888226160349 1.081905297870769 0.359434051300181 0.22533739459236676
Ni 2.932894764568953 1.873711479004081 4.673568120303203 -1.2164860933038533 0.8032689347449457 1.4266272397717559
Ni 3.246755407225825 4.664031379541182 4.652390985984799 1.2619645373516266 -1.6458855180495784 1.1456339463779817
Ni 3.7141491397687503 3.156613113920199 2.6524149824239096 0.0024188938541377693 -0.9264299183768625 -0.45109824987539726
Ni 5.4055621860195 4.741056458786232 2.94441360164649 0.10643801445028121 -0.5268131242102089 -1.3051593275715458
Ni 5.461360238361545 3.3292414566399393 0.624329496698772 0.3883931575366924 -0.06293674873353677 -0.3439948339269753
Ni 5.436150876069472 8.140192890762776 12.546107251715021 1.9092852667313052 1.1031827191923065 -0.18767484704458648
Ni 2.218324096533255 5.715875919480186 11.532351617998383 -0.3222178472611999 -0.7305244558923677 -0.7897482745506915
Ni 0.6061849243862117 0.5598827916006051 0.5518863709959045 -0.15040387850827 0.35011174545799056 0.038101691967727926
Ni 8.094318927066837 0.18552602940806992 6.923109553452404 0.1266833949628786 -0.6520204488481932 -0.7541415810906754
Ni 8.665344093515715 2.7679589512567984 1.1677377568641 0.2914980495798399 -0.6370134339163996 0.7427256259442498
Ni 0.498552105195251 0.25798276217946503 5.048148945557492 1.6109869064001805 1.6899567973371799 0.6502170770908673
Ni 2.1436394330749464 6.677260667847921 0.36303477403969714 0.28912389292070856 1.2716974483686743 1.5863490532468423
Ni 7.839921173875435 4.049400094150958 3.9023140333332664 0.1497670162552195 -0.15095923679110773 -0.09160352054060998
Ni 7.990252066968002 4.479546744444422 12.758404734882129 -1.2667665867259603 -0.6811752160352784 0.2906966367244671
Ni 7.986124589514638 7.614116407349962 8.75810710821975 0.5755134176293895 0.31476601896884504 1.1830057021582205
Ni 7.206974774247105 0.9333451158219279 0.32697785671744695 -1.01228625202105 1.105438862216335 -2.3590843381793047
Ni 1.4677944820687057 6.969223001554428 9.646343884734891 -0.20191515901368454 -0.3269077965377016 -1.0128943179186942
Ni 0.4933088481226283 5.124594363683268 1.3594994522094033 -1.318519808038852 -0.19880772373295438 -0.13637234011586838
Ni 6.165671176727456 1.8891963229884527 6.747973881571983 0.5239057207554267 0.27791799690256 1.99961866231024
Ni 3.5839567080969843 4.769903444064676 0.42612984366412576 0.6893307552628773 -0.3510136884469697 -0.6193173021882172
Ni 6.205385674069917 5.914421192055432 4.771976254170375 1.82214569549932 0.5826310025107773 0.6443395352641678
Ni 5.372007155030518 3.3188637990429144 9.187561612294111 0.9407018549148444 -1.1123101354148712 0.16003548806076306
P 0.11998259458658099 6.244056962825264 12.589828577169898 1.2267018574945907 -1.3867777118749858 -1.2234707521518027
P 4.08435211750877 6.565637349026775 12.47346999850116 -0.7548715172781645 -0.8699384110480372 0.28087502264835496
P 2.304683624788217 8.65318844563109 1.4474854787223603 1.0147455121948201 -0.5012499310291239 0.20089751638244754
P 6.716004527635415 7.894730445904477 5.819243376256705 -0.7998609375046611 0.5733920004110125 -0.3422279718345397
P 4.927654725194275 1.5135323750793692 12.80009407143689 0.7891054987603701 -0.18632578921585974 -1.7644969346375998
P 4.274061866920116 6.481210024502729 8.1668083168027 0.07821064417347175 0.541449643176461 -0.9570697547499066
P 4.737219265461459 1.3572053004556555 3.495417327463906 -0.34026827700500756 -1.0195712157182375 0.7456870225654191
P 0.47391786833294275 5.88434049923049 3.511429218569246 -0.26217770334916785 -0.13140162637415434 0.28732360648717614
Ni 0.5427578422897105 8.154616383401999 3.087233392911838 1.2638265302610299 -1.3666452027911689 -1.3303301704102186
Ni 2.1652565292757417 6.689452601248622 4.643163579247304 -0.6782259035989674 1.0853873428820984 0.6770285408567566
Ni 6.168410733191007 5.965665412130251 9.425775118178827 0.17556880780967182 -0.47067180113195073 -0.986111136287579
Ni 9.095418172777034 2.995069996360918 10.288294535176863 0.46688816571980235 -1.3757697908002564 0.6633692982021092
Ni 2.483153935595792 5.596768712968879 6.973960075677825 -0.058198719827919125 0.13838499967052295 0.2695050902485165
Ni 0.6700084257458161 0.3039501610792935 8.895961226610439 1.5210954834546706 -1.6695124134398986 1.9025700594946586
Ni 1.602812887378249 1.3774707611827128 11.445573899170673 0.22509108290951554 0.11434184267839018 -0.06176792523641621
Ni 4.272265733874477 7.1754789462952955 2.0115401975335176 -0.1170517854103855 0.00887519100244278 -2.632825063775724
Ni 5.734372461298659 8.501605702233988 7.9024783107240735 0.045382027679225063 -0.7392027003926559 -0.21201162401773813
Ni 7.063356701628139 0.8682733927093947 4.752060948673427 0.7139025310649705 0.9540188837387247 0.016503396971661897
Ni 1.1303028970689584 7.81611787533121 7.11126991132741 -0.37934030330580476 -0.8022602909747731 0.1015467477962509
Ni 5.1130192840558175 5.1419569831244445 6.63506786975764 -0.738629087277373 -1.0339593661191095 1.1307215480425237
Ni 1.0707311510552677 8.08534733321766 12.06880394473242 -0.5899655884989775 0.2791917214086611 -1.2787381572655399
Ni 4.493716238471129 0.34546895570850933 10.149072452830204 1.495109086693238 2.160072211745028 0.09963179016172519
Ni 8.815938056599814 7.253501877232368 5.158785298341438 -1.6698718536618464 -0.6395475131921631 -0.06706542618992967
Ni 7.307113727230984 6.1719213568711195 7.030559130787193 -0.43649232703676444 -0.4241554027379663 0.5094738616008129
Ni 2.5280209762206916 5.333517293855539 2.524386074648027 0.3153509449380375 1.226142899667327 -0.11434878465692565
Ni 3.7660192849958376 4.821292806203788 9.487937650040164 -1.2854003997770638 0.44186824663669705 0.09039561627543787
Ni 1.3024685994587608 3.552805592547873 3.5977823968588947 -0.826855206705318 0.28435681054936834 -0.049401176140947176
Ni 1.8387413128882324 1.2546533606528885 2.7918493350395996 -1.5995444688911935 0.784448716714649 -1.4283676195016304
Ni 1.1483821554525864 3.9858641555062357 8.394201481794289 0.3422804223390299 -0.1974275555559761 -0.5634384887427264
Ni 5.131071328302391 2.989899310320442 5.0035250178902855 0.7286210682220677 0.9831777646908679 -1.203756561552327
Ni 4.354080501241231 7.370731308286871 5.7902067991567785 -0.21055457985623738 -0.7322640642912936 0.8158989648041303
Ni 8.14581714575417 7.719471403269408 0.30376691922312227 0.43220501251532023 0.1621569052791401 0.2617575850926137
P 0.2698835043136755 5.943095821132526 8.023324500593205 -0.05877490404636329 0.04688406614604829 0.07660781846272613
P 8.781194674959426 1.8890058240290668 8.131916164546409 3.4424762478979294 3.5615265517955823 -2.083493703858341
P 2.1868010544443908 3.7093957371631197 10.58479346553046 -1.7205786359880948 1.9826200708697144 0.7940970384376905
P 4.351368158914736 6.3405401500647365 3.8563366559165173 -1.301586522618623 0.758429666943068 0.9279270717476792
P 7.124307297252623 4.058380759379152 10.722408099515063 -1.9372035904081282 -0.9388550315140927 -0.6706457772588643
P 6.534722089332142 8.100215323428783 10.384604459077085 -0.7956098755377912 0.17693972001526947 -0.48982883367637575
P 2.516355182803057 -0.09167172780812405 5.9714629304608975 0.8796985757585947 -1.6182086209596003 -2.229438775264309
P 7.206666347360481 4.313885220810796 1.7405590563586184 -0.20521954079656912 0.5297470100275522 -0.7791586719603033
Ni 2.9515092343146656 1.6049355900685494 0.4780036174428204 -0.7739439605285832 1.3044913549702437 0.41666912166325015
Ni 1.8146749443524748 1.4129670672816272 7.185208907430408 -0.8001635563467444 2.4582381602633467 -0.9138973331274906
Ni 7.219112279373696 1.101836909709287 8.83743631773547 -4.855612395161786 -0.6872982982138809 2.010042942967358
Ni 2.596754815042944 2.168495011585303 9.353588712502178 0.6256159907127354 -1.668580902764565 -1.3218912956142461
Ni 6.385960544809757 2.338637796454007 2.703797087459808 1.218748664085785 0.2228297976791646 -0.2681953702981575
Ni 4.238656274611385 7.1716961812446325 10.275269849182274 -0.5610795015922466 -0.7079622543211356 0.5806877627414774
Ni 6.983963992459293 6.379420080537505 11.68411941752746 1.1388909712271933 2.102576431521405 -0.23282496121866353
Ni 7.683802740969144 3.684159160733991 8.585361744710674 -0.6392875746625571 1.2523974624884817 -1.910096192668375
Ni 3.317630091496415 9.012315269589669 12.249196480753989 0.15329585534408438 -1.1515184301832169 0.5916625165854261
Ni -0.41554263721177637 5.401398423050065 10.397178297534458 2.0710413370276006 1.0761192873166112 -0.9162097833107512
Ni 8.879582851792756 2.5786574139012792 5.938708902239239 -0.6465450275559188 0.03130858030529447 0.31294876325444815
Ni 3.9541324716999484 2.9102798166761357 11.369722656370602 0.7760707770635988 -0.8295317250962164 0.6227967760963854
Ni 1.1062728140492741 3.569233859950156 12.544314747220989 0.9039708180423981 0.2807747496250649 0.0075896394217998325
Ni 3.332860936868272 8.805914182784507 8.02437405914563 -0.4997815740137135 -1.420630912979005 0.4870461287249161
Ni 5.956349105878377 8.31067131665516 3.6290360189909134 -1.3192631139627797 -0.8925291518643595 -0.44086628773474396
Ni 3.2564436400174532 8.629085791579257 3.595565351826803 0.3867592214776952 0.12009211489860608 0.533619605609081
Ni 3.6124136240776368 3.2000922335552873 6.890819979836485 0.049010368460431726 -0.29088407014492484 0.9420977068211065
Ni 5.351732622924443 4.849903935627753 11.648656675530914 -1.4860027535165956 -1.3140759133348854 -0.3324678071239823
Ni 7.842406731726471 0.25460004494351174 2.3157933426720247 0.6020083785961244 1.0067036157269502 1.7956347936929848
Ni 4.974608182993401 0.48493687242656697 1.3377390282201174 -0.8924075386848308 0.07846261228327778 1.7934056472521502
Ni 5.9756167149134125 5.9267945530365 0.40281277103528607 -0.09289884231326581 0.046244118569204226 2.156485265724718
Ni 8.221708302621924 0.41331924221437183 10.737159068936847 1.6908535981198363 -2.0173893560300997 0.955707070074425
Ni -0.06682703495258949 5.068360885148341 5.86421201632661 1.1949806151319098 -1.2330134015349152 0.10008481853874376
Ni 7.491108507860751 6.450820904791161 2.655681586008428 0.5686719692275238 -0.5047350613642468 -0.2558617884334691
P 8.941231943601656 1.8472139808913979 3.778679301553886 -1.1504377955245284 0.05840029431576395 -1.2991851122659819
P 2.0464123927559674 3.4431961198688077 1.2444271950854704 -0.7863158518303749 0.046606387004629414 1.0430988665265326
P 4.426851103726662 1.5757892492824999 8.282529177526445 1.2910326583621767 0.12298512017568498 -1.1238168505028905
P 8.721804356526103 1.9155668217948785 12.18133803000701 -0.983589141196674 -0.3450973229625347 2.0574980511255276
P 6.40680657379399 7.982886107205077 1.3946564887330304 -0.9281576997012467 -0.9360622992603039 0.5082716137625957
P 1.7277529905983735 3.6445625913187696 5.88959736337164 0.5520922104919718 -0.0832813738281598 0.6001697827254889
P 6.9330554134081535 3.865659312133705 6.182830597278621 0.011949716162708452 1.0718571696061476 -0.42552862893640914
P 2.411000186883611 8.732898653065579 10.285346336995891 -0.42297063840124577 0.6049600050252807 -0.2353688106864398
