# total energy = -340857.75082557485 ev
CRYSTAL
PRIMVEC
9.38980936346056 0.00000000000000 0.00000000000000

0.00000000000000 9.38980936346056 0.00000000000000

0.00000000000000 0.00000000000000 13.74293513989488

PRIMCOORD
 96 1
Ni 1.9270423905013319 2.3188603524207654 2.8165869122669025 -0.01492653940284526 0.5755121320778088 0.6220305873543223
Ni 8.13782845535055 6.790034009942391 6.517147372449519 -0.382939847731605 -0.33221686745544077 0.5347753164800789
Ni 0.38912872053969505 4.101543814946892 4.080483411697537 0.11582125543739409 -0.8273786833089557 0.3917926701365446
Ni 3.44049185134715 8.784091469323588 10.062783491247428 -0.32424541921419 0.028064362336383927 0.24044828209187621
Ni 4.919499491728999 1.035836811472927 0.6565683296652969 1.079708033109134 -1.550674482663368 -1.7500977284931345
Ni 2.4200543271045687 6.147602038158366 5.255903494142404 -0.4852931505895513 -1.2279838095308078 -1.0412993514239486
Ni 2.3468325942861314 0.5954397322273246 4.34239617907693 -1.8357458027812577 1.261541076660963 0.5754403982996089
Ni 3.0009454888229308 0.713444282477279 12.60510252507537 2.9597300320999476 -1.6586016800646661 -3.929561200280581
Ni 3.9403207894926005 7.921233724532021 12.474489338915104 -1.9373745687683537 -0.3160921939794363 1.9940571090620625
Ni 7.571960988491061 5.375149377180073 3.8979361293529307 1.0226958773901484 -1.9348296908593128 0.8904321601260148
Ni 2.331884017901552 7.910369715187198 6.557028709433329 -1.7176159538153453 0.7922440443893517 3.9149020556065093
Ni 3.376894673047679 4.560480133648345 12.493922488215057 -0.6394546963680406 0.7526482843746005 -1.5829389991240288
Ni 0.8710306347947943 1.7518567186375746 5.994365984483424 0.20591065332632283 -0.3795902145330817 0.12026360747946385
Ni 5.9234954599104 8.264994642521632 0.7943590860443883 -0.8650247757965037 -0.6912518835449901 -0.7364048259325447
Ni 3.4361631492659366 6.738314940390718 2.865552889735687 0.4867995599317487 1.0857596386198527 0.32689236991873377
Ni 3.9220576104297815 4.3540170070502695 7.752980548864706 -0.19284147884719047 0.12435448971938581 1.5117577509935125
Ni 4.884973162981449 3.3223868301378268 13.542480613309737 0.5285007963252769 0.023319648562546934 -0.7536813536248053
Ni 7.394765897439929 1.0450763838111345 2.64613370428369 -1.4299357353196986 0.2655725879633297 -1.8083363004200534
Ni 3.316452470668571 9.40502077784085 2.410263572961226 -2.4225345362141506 -0.6623115463615561 -2.5110838433094687
Ni 3.727312965821628 0.6932618263962392 6.191879683850254 0.06769406091286406 -0.3350574222280294 -2.2914229302765894
Ni 5.98794711085497 3.121416741972527 3.5301063132184756 -0.15641563191998867 3.173817050589476 -0.38764908028181627
Ni 7.7840110516147805 0.47079001394510456 0.10636212571525572 -0.12240456508186662 -0.4266313750822846 0.24041357219919884
Ni 5.302124830356658 4.099431107857363 9.90505535280968 0.42546897934306727 0.08688503201901811 -1.3564767468985994
Ni 0.7260848437391642 3.9999554682730434 11.721486728893483 -1.4220275362162156 0.8631470991578167 -0.3406526569276198
P 5.8747999089490754 0.7992633834348819 6.184705869555142 0.6102346231606588 0.3297136414176128 -0.33021089276900545
P 5.339167627993071 0.1079114442475771 12.315126434680527 -1.011024611699807 3.3067492546755437 2.3694785369294356
P 1.8915207419693818 2.527774219242695 12.644461788662833 0.29987470367930935 -0.22275472146685504 -0.22385952449525962
P 2.15301754079737 3.9539172333398818 10.1273891350643 1.7615748758947984 0.23409585751128714 -0.6313279534958482
P 4.923114568304416 4.784173560287692 2.1011989392672565 -0.1848296642863075 0.2606021313319319 -0.679952656482087
P 9.484834156778616 8.970422844810772 5.302024359397291 0.5879642417982326 -0.6660126493622271 3.517875133654219
P -0.011123168081138826 5.337346004991431 7.782980989536019 0.23963144261753572 0.2956264699259167 -2.062514787613828
P 7.863185923521046 7.781776277004523 12.815135657164284 0.8562120626008802 0.39711819611451604 0.5009506546211502
Ni 5.487554784152311 5.880433794521152 4.902187500346933 -0.04658864639281654 -0.13241669790222999 0.694840886447829
Ni 2.9606162579361412 2.3343347581254057 7.360551310360702 -1.2107959848976113 -0.6541138410421121 2.6408001115614
Ni 9.112152626185676 5.330275478598474 1.8383096317220362 -0.1764231853901671 -0.4462771743376701 -0.3759446473606945
Ni 8.110720075939568 7.997413247275799 10.176670610125122 1.055932270845775 -0.06355561326445829 0.40401569456529773
Ni 4.0712335105691135 6.2495847568222604 0.5118140907191173 0.044658262139323085 -0.2069941161984887 0.19084244613929066
Ni 6.234777027576982 2.134453887837374 11.57851937065458 -0.28755963375738214 0.34880691060363805 1.0878419750701782
Ni 3.4671307402937908 8.20330359550738 4.8922512041596455 2.4500283707590453 -1.1972552700986994 -4.218496117118935
Ni 7.4863447074140534 1.8957367663391531 4.874591789833968 -0.10280221746990682 0.004036117742586598 1.6554366520731232
Ni 4.780793228944445 3.2149298526597305 6.011956853201308 2.8898510477206227 -0.5294384776481978 -0.6644748725614621
Ni 4.112238807724553 2.653203291695719 1.764634371115047 -1.796076509216094 2.9189628774849146 1.6721889318307976
Ni 0.9352728929922681 7.765475568082645 2.3352821898824434 0.20032261771558402 1.439813913665359 0.13629597835197815
Ni 4.994786982590531 1.2459713535021404 3.2131392160287384 0.6476081787131105 -1.382907173175986 1.6030830781720713
Ni 7.530843013624181 5.668177155593123 9.018031055856687 1.049530223974173 -0.8266657164023312 1.2490712263287265
Ni 6.682764828650031 5.688355855750449 0.6498827854530979 -0.8254472706141978 -0.8535892802660526 -0.25996629752014583
Ni -0.2320062248009475 2.4589938662169124 1.3713825853175194 1.9557849529547415 -0.6865603916065918 0.5160358310890468
Ni 0.6172935743614143 7.150893770643258 13.791996954468702 0.5336553439430228 -0.8520430188248552 -2.1971385204697063
Ni 2.012527214248325 1.4758244950336254 10.00906157537488 -1.0584123569551513 -0.5444501205656817 -0.7286051273824677
Ni 5.467582659799295 8.04122609740799 5.946733359933364 -0.9559618663977085 -1.0769417832179065 2.3302445311294773
Ni 0.5543001607990843 5.507846162021078 9.73847731911913 -0.8172945596000765 0.6731590305990213 2.5528532139367712
Ni 6.864194723689508 3.120073999244515 0.9549774077806101 -0.02216676590502634 -0.39835618228667524 0.7047548031274314
Ni 4.684106362718304 9.436852231323089 8.019455824576553 1.1576584816426836 -0.14827191976693174 2.537036558619489
Ni 9.186238221458497 7.130367647542321 4.468803669657639 -0.49114189606084446 -0.7918349818763911 -0.5763824504979042
Ni 6.278280014002709 9.488590080493337 10.483317367927741 -0.27204585439249923 1.0261468120532264 -3.211366726708476
Ni 5.896218063932257 4.942326118105201 11.932014703931813 -0.37046819762715555 0.9713383488537788 0.20377869458498454
P 5.023820272905305 8.538782701706037 3.0685633834590083 2.5419905601906545 -2.232930590467651 0.5039645017468095
P 4.203902125982258 6.265171840238342 11.088102777338213 -0.97740306699062 -0.5843035051171938 0.5427737613045233
P 2.3971431924447857 8.146016369048636 0.7066507554582819 1.728829048922345 0.3004822553563212 -0.8457422734178079
P 7.442109315863956 3.721049963027335 12.728252690814488 0.39237733899542104 0.23320188494210803 0.3171208923542667
P 7.106179498819534 7.552373846318805 8.340655847792778 -0.3152313886410378 -1.0368469720795497 0.11544690281711086
P 8.48373024985755 2.170623433210113 8.748051503319006 -1.157269216624065 -0.9970717490641409 1.138330470738033
P 3.1121771696343195 2.6701988465048205 5.022479408139151 -3.1916227113123288 -0.9799281474053186 -1.0768852189483582
P 1.1813412961811218 5.960622765830392 3.3266282069926727 1.2199743089627697 -0.7042884050139742 1.1192397726551693
Ni 6.23627939706287 4.673862080786409 7.488429245075722 -0.07582851709454037 -0.10373989879282777 -1.4520173977100863
Ni 3.8295210399084048 2.540356563687002 10.991256284354197 -0.20134900209756937 0.6302974553488048 1.6192524888430824
Ni 0.8355418505953479 3.366518933785769 8.580071571101938 0.78440680773312 -0.7495542188303091 0.3355366758572931
Ni 7.010271986764197 8.85705967729128 4.622504518892278 1.3796668118618174 0.09379821419908362 -1.3596181207410585
Ni 1.8558488564888427 4.145197038321207 6.567418533409169 -1.3269178022945598 1.076279209933243 -1.1361956837832172
Ni 2.019785536827018 7.145682426489086 11.359484228402412 -0.7758854005256702 -0.8027544570023722 -0.14781452051453897
Ni 3.7241016510455434 4.5371934066170905 4.0299784444866456 0.5867288267292347 -0.9749350650661014 0.1929350670022613
Ni 6.007449744743646 7.666253453349069 11.761052568285256 2.565815430524394 -3.336880012622653 0.5151878812664547
Ni 2.402880365919018 6.036285849063396 8.561958628987707 0.9836996986326092 0.3466469268378417 -0.931345610510925
Ni 9.019850800896467 2.197121475017452 12.903159485342426 -0.6204545011164541 1.461950083442766 -1.4260022045932472
Ni 0.4318138545765421 7.932116513495418 8.175301306252296 0.001228730200778529 0.0020784797955835173 0.7000067469194847
Ni 5.529517841855004 7.03848836367102 9.616041717866736 -1.2253276028548832 -0.2831219097010027 -1.575921944376247
Ni 2.241826357031889 1.400724800357829 0.6132493835015911 -1.6807566188951504 0.8474250604368695 4.6157621516652245
Ni 0.7433611538459405 9.67272424060741 12.595949338982601 -0.22748323729077596 -1.7322499016784358 0.1534300669291035
Ni 2.4409278731491164 4.758069890470399 2.145793960513038 -0.5925297496817279 -1.4284774056066172 -2.1779542342317715
Ni 8.249999117090617 6.0258349913271925 11.626028049722056 -0.008227530116114863 -0.8541474667623677 0.2533441642179379
Ni 8.678211979805674 1.0760158054111284 10.634021929018962 -0.09239567742460215 0.07377266300677618 -0.39314995549538745
Ni 9.254126542602034 0.8357662670373023 3.8474311621420396 1.977970487912845 1.934837918389429 -1.6210044385371825
Ni 8.100541522672682 7.477180253550141 1.1489173457328856 0.6805445244298151 1.1445391706519064 0.8517198311574815
Ni 8.550369726365943 3.324753062078099 6.959490959160274 -0.9112997476036433 0.8983701840261689 -1.535326282342072
Ni 7.470466539910081 -0.19401881235028465 7.406218647827035 1.0555576611151756 3.0676777983265366 -1.5311348699685436
Ni 6.640341670292285 6.957059937535923 2.7493840472013016 -2.2104671192578125 1.2080166223802613 0.6992017345196861
Ni 7.83272538219468 3.6252739083020127 10.57942112699717 0.6617248206201506 0.29010631143863586 -1.0617429639902811
Ni 6.342083768106489 2.156754684893515 8.022108445700074 1.7198358442847992 0.2076327782237521 -1.207781880661636
P 1.997221825110847 0.26608841556923185 7.955634229835128 0.6133258604914728 -0.12600025285292493 0.3076723453468572
P 6.905585003025706 3.904141854310575 5.439082710652012 -0.33920486873749967 1.333079965241214 1.1977568923254662
P 8.052193394654969 3.348359042625105 2.841379764707759 -0.0774169446275828 0.8929443850249073 0.9728115909651955
P 0.9148481798316289 8.90448760399889 10.524902955297105 0.19576559447252093 -0.44970599751356105 -0.4848421790950617
P 4.455210981734072 6.293820148372357 7.2114542846193785 -0.16148147647867028 1.155953326026119 -0.4332200840433958
P 4.6684911098743616 2.0721900624566283 9.155969232241581 -1.5115590047191452 -0.5990266702599811 0.04942508740034714
P 9.390184879167712 0.2983583731451645 1.7770852582293386 -0.6677730836967596 -0.0021265594246995634 -1.01570916165967
P 1.5325952819815956 5.186808582505514 13.31390824176497 -0.39658906308392344 1.5630237482573404 1.9317055434080346
