# total energy = -340875.4543368118 ev
CRYSTAL
PRIMVEC
9.19917484716000 0.00000000000000 0.00000000000000
0.00000000000000 9.19917484716000 0.00000000000000
0.00000000000000 0.00000000000000 13.46392225566023
PRIMCOORD
 96 1
Ni 1.547291999665327 2.6873089340735303 6.009931277150008 -1.04472946015142 0.08861384178466675 -0.08515339403989207
Ni 5.365234709866342 5.820253492257711 11.826318356245576 0.45899050813928044 0.039885780451344215 -0.5249943258339153
Ni 6.037629992427699 0.3781808351645462 9.0910688426974 -1.3432679615178091 -0.20835397266049277 -1.2874678238290536
Ni 9.502839544671964 2.6114065429223428 12.41531116045352 -0.8546326339289023 -0.4902070429514009 1.8002902901871254
Ni 3.6466080798300444 3.857563556000089 6.440952172279701 2.344150599687608 -0.7742476078119311 0.4667076742778801
Ni 4.540924254905188 7.201481988703884 8.932141139358984 -0.6118924704790558 -1.0911928938202822 0.433514218245047
Ni 4.1773360707021165 5.594689726529057 0.2744417411138925 -1.8218525897389335 -1.2500994104829246 0.09949989256955123
Ni 5.461246497097579 2.7910296297746138 0.537412111270867 -2.3791440850436576 2.0198838403171795 0.2807618941092584
Ni 9.066025929180146 3.267427294366367 7.808966974064673 0.04092193502534242 -0.21987739991906002 -0.43010493545318185
Ni 8.578340877127173 5.66268082736513 12.925419201044972 1.295446471159156 -0.6467769410610668 -0.7478781166794668
Ni 8.574799194834942 4.39726994146234 1.5710783059069495 0.2074538294437266 -0.2637771866258038 0.7980082005666386
Ni 1.0940670563570356 3.2328935922234074 3.6613920736270478 -0.11870474763277622 -0.7058140976298811 -0.6572994378589455
Ni 1.7970219975542243 4.983689736482914 7.040271050183828 -1.0863831311364645 0.7926168543477381 0.25861801102236753
Ni 7.6434655404248835 8.596389658055381 1.5858080245727213 -0.7093809890455332 -1.00040107054769 1.9814237365687684
Ni 1.3620482170194095 6.918524571491501 5.289557698497386 -0.2446332667075013 0.5184187294989264 1.7715106469512716
Ni 5.065543993720009 0.7410321654673375 5.047260633834784 -0.25168914511301815 0.4008128713572839 -1.4908914490674645
Ni 5.053548269800344 2.4216827621561205 8.173260734973756 0.013974717012537222 -0.2973375390797524 -0.5399054386177927
Ni 2.563414448068901 0.841454957007992 3.8811778376732313 -0.117114777437837 -0.2450742108996618 -0.49616043232135837
Ni 1.184366156046777 0.13991484889273892 6.005919517026261 0.4792664847794972 -0.029976234647116115 0.7494133223770707
Ni 8.508776717402865 6.613995089408248 9.679590649156351 0.7125141353578761 0.49555262353403046 -0.9137844616987101
Ni 2.230459515899941 1.0866985173542358 12.967884431687576 -0.7105685815957311 -1.4211322780954558 0.07109254507145177
Ni 8.498906002858538 5.577238891961878 7.448578262851831 1.073915337686757 0.029270466829343134 -0.554981873334941
Ni 5.2225555089507045 7.472922039085426 4.701439735811498 1.062456702227854 0.7448652979950721 0.40561620628319817
Ni 0.8075863552019894 8.870782643542912 9.346627437730087 -1.846465246081291 -0.4131379685815401 0.5041239101428092
P 6.995742444636946 4.334522370253728 12.37590281559198 -1.3041815370393088 -0.35271241630563127 0.2718162548801964
P 3.5758848240828223 3.141711371754304 12.847166420736214 -0.5720601689734663 1.2945823233866478 0.7131687382227395
P 0.6466081558039936 2.61261163481918 1.5465735441146171 -0.5776772580499276 1.1482001644432613 -1.1673854791224603
P 3.414016144565637 2.7572318616144558 4.576090860273357 0.013738432632015048 -0.5177083336954633 2.1772911467264757
P 6.257674253285342 0.3312236474744192 13.493677065287487 0.10415718883590451 0.20076793278311877 -0.6555724278655096
P 3.1320614374048197 6.504626100389164 11.980454209438474 -0.3497754451644944 2.1327118174542044 0.4039480745521559
P 6.2636629160703885 3.5207909662953463 2.810014886695935 0.27629974457284673 -0.29602139137149014 -1.2563207088022879
P 6.2653923609299715 5.546476851480776 5.829797636097168 -0.7430387863092944 0.033883283011006154 0.013182817238861166
Ni 4.6071583133573215 7.153913055890555 1.928208669410938 0.49771235018951054 0.8738673137887983 0.9724372383449125
Ni 1.9700584752604227 4.3509061005458465 0.640620412936425 -0.25566818436542416 -0.30695320779264557 0.06790360582050886
Ni 0.47964681312582175 7.664586845731286 11.793641967491713 2.5819143929687858 -0.5483052326457137 -0.3510766804744212
Ni 4.87971146388785 5.361831015195885 3.8922048884880334 1.4269918222000262 -0.324199396467603 -0.3984831947828428
Ni 8.125419506586788 6.275290672998652 4.949997758832783 0.7979146124115677 4.64045271243337 2.5047843834540027
Ni 3.8960805008249615 8.33514229333564 -0.164569557234067 -0.8112848630708867 0.21572352565168654 0.16992575059128154
Ni 3.1796671669172905 4.709167962548392 10.885634660584024 -0.8189971441134799 1.2002004687699523 -0.24806826053097922
Ni 0.6415311312401419 0.5397560610060896 1.8918562904129803 0.6798562401135388 -0.09861440464080436 0.08398534187371987
Ni 2.8851187894757833 8.88518855125625 8.563485129766848 1.183484184456536 0.40989503616421014 -0.7234667777146379
Ni 4.7022409839352735 1.4189819097638892 12.272728550873126 -0.1430533516804698 -1.2212647456394194 -0.8860510003391836
Ni 2.7117879381764642 8.826037857388583 10.996577628408827 -0.0238382400701783 -0.08030223659517782 0.6424446322343
Ni 6.754963243813871 7.16686549398786 7.4737021291071954 -1.5895457058072688 -0.32835172807307966 0.04781891925549184
Ni 4.93956129503918 1.0011185943292085 1.9523767414061384 0.4887852229032098 -0.9849677667117553 0.3980869877856886
Ni 7.501531472666833 9.280679473613768 5.183704634081136 0.26649124312285716 -0.9847600215763234 0.2488912706529068
Ni 2.2853049959682217 6.681645820777273 9.835758600059261 -0.2974753502091974 1.0103065025868598 -0.3870057902708625
Ni 4.81012890581397 8.481813936107976 7.065650653498216 -0.34844772749200636 0.7352097771831789 -1.2845223680474847
Ni 2.353636466271339 2.610265845249 11.13380171867695 -0.18036802897052806 -1.3323991371241053 -0.7548964569788289
Ni 4.799384269665069 3.2433714523035437 10.436612820235009 0.9146372966173086 -1.3714955889049347 0.12663351556154967
Ni 7.100162277621691 6.3144055641845505 2.7992978480713884 0.31487606218414804 1.6498771557074747 -0.23182120254449756
Ni 1.8926566186192768 6.891313412477416 0.5367350520066896 0.41826371984387967 0.2692767762877943 -0.2510412271163741
Ni 4.010867803792422 3.433803569528212 2.759902382054547 1.5000792862143197 1.1348448261822779 -0.6343741965213398
Ni 3.30108707490475 1.2750424219027046 6.6500604541529125 0.4947555815540318 -0.1337924952038341 0.3240361314168613
Ni 6.306963431783471 5.050981700035325 1.0213567788562494 0.3186296156893093 -1.067053320459601 -0.38270459179234734
Ni 8.03485363082828 2.4116280641160954 5.734674489150162 0.6656768632893633 0.03479525330231427 0.002943398899040092
P 5.936052704451525 8.522179915064635 3.0213981244934827 1.2569783969909447 0.532375963009967 0.5516762060004757
P 1.3327488453291256 1.4398180406519558 8.137540339283529 0.2601200494891907 0.4929727786219961 -0.96663425850989
P 0.3480093817046425 4.561935170114171 5.4089022726533456 0.4793230490490455 0.018002864335323835 0.34603834671956535
P 3.2213762253925644 5.541214923503746 2.337336448469765 -1.045790811536399 -1.4127142292350896 -0.43215024801798474
P 9.101451951277252 6.584162165580433 1.2968104291964937 -1.0132506728168487 1.0652486631506943 1.9845298862979175
P 4.083633276341919 1.0625138868444222 10.000543417983298 0.22096420522533558 0.20507144525447907 -0.07073310484950399
P 2.9327245189882536 9.175992864560257 1.665285215045367 -0.3285293913015246 -0.9632555718456444 0.25064527722953606
P 3.152952763341597 8.328509688315641 5.321965471347529 0.7732374213798618 0.8221205202338099 1.5170148856273937
Ni 7.749173257879532 4.4558870831924775 4.169386143852904 0.009309450326383967 -4.092836792545197 -2.428762776512049
Ni 6.760436752810958 4.0143174943368045 7.339803540523858 -0.5675833641490355 -0.2708922004040302 0.5875577503884332
Ni 7.465351118237356 2.198529180221142 0.726629017506434 3.1894334169704943 -1.108252934626362 0.9939319178835786
Ni 0.7992114264777085 5.745427404556371 3.2684474828500254 -0.2926517035683089 -0.4637642753788401 -1.2663104730251482
Ni 2.7104080619587116 3.253048984177383 8.686747632463746 0.023715084228752705 -0.48465011768891375 0.017843455939324106
Ni 0.08744643558890738 7.995527158622327 3.5129394706163333 -0.5164965727755492 1.054748277840003 -0.02602367775727131
Ni 5.918638666583484 3.358066763523154 5.057695257793431 -1.7046429385944448 -0.713801486710732 0.1499333666297547
Ni -0.016682703472631056 2.255269690295136 9.975999099739392 1.1324801826048432 -1.1667013085712423 0.3474822782549435
Ni 2.6630139134662962 5.041377761559765 4.6227840316471545 -0.7909896031569603 -1.5743911095540177 -1.0359195751692738
Ni 2.827311175126727 2.1684846753732714 1.434082355173497 -1.2088627724306407 -0.5108031219351976 -0.25510022767709617
Ni 7.5643066413998 1.4540675623939499 3.2146056327507906 -0.3287391933194854 0.5760777747732918 -0.36450555228581744
Ni 8.764835747543854 7.974921007103886 6.978081868884667 0.09162100404210671 0.0678454988890638 -0.2363805397804058
Ni 7.53429893325107 7.282535917734683 11.671604794876178 -2.6642578283637084 -0.028830293968130995 0.42780096991035355
Ni 0.9656833730573173 4.7815838664560575 9.32960988429528 0.4954436087599918 0.32080374052249266 -0.33351064656619983
Ni 8.221449692167596 0.9451140182380159 7.932404261082487 0.1546431134005982 -0.05852730681193146 -0.2522380756379527
Ni 5.1920694437131525 8.4469214661484 11.280719899333521 0.6784012528345672 -0.11098063951564113 -0.5721630130999178
Ni 2.8893044140029662 7.306830938341917 3.4664753586946833 -1.3729410631022096 1.3540339417850618 -0.3018110014700738
Ni 7.0304325327512505 2.224820421756725 11.800952551693365 -0.0480109806616399 0.2715378044078291 -0.6288028730811493
Ni 5.947027319970052 7.234543822881241 0.1614795544237793 2.0992993034320295 1.0800250501289206 -0.9396829267320268
Ni 5.9535495348926295 5.232417024320244 9.683360470983253 -0.1331592324952094 0.37690778260491214 -1.6844844613686987
Ni 8.59046538949383 -0.008596628836599791 13.19320349936695 0.047640998916730855 1.1195336497465043 -1.8328373708852113
Ni 3.802699677582239 6.325003013536892 6.171376794627083 0.4122645648376513 0.03635539870058255 1.8001362811077644
Ni 8.012922798140798 4.27564765162961 10.143342208171141 -1.3113389740196966 -0.030765306207314755 0.7041248828529163
Ni 7.6705939068659035 0.18582977007972326 10.577351915188485 1.7147376038262856 -0.2960496735062643 0.7718533965481417
P 1.150053234098658 6.946563656236237 7.833956532368175 0.5533057711840987 -0.29195210639812297 0.8997575512919987
P 4.098048383230043 5.067558612997928 8.426638205664913 -0.33793371533455996 -0.35392314878428077 0.07158234022367671
P 6.248410684276827 0.9706877241403674 6.822155856278603 0.19700460908594458 0.23920695348560736 -0.048257035234174954
P 0.302513942887855 1.1673752802188482 4.427139661989295 -1.2643569488432034 -0.0234119511660371 -1.2195752737521381
P 0.6377861471851608 4.36537640248268 11.334832205171436 0.9490060039051657 0.5924168782529474 0.432766541445745
P 7.088194151226382 2.4659859879207704 9.254345915874174 -0.46524291680689556 0.0972028690052584 0.24085040262630134
P 6.515278744790215 7.434690268678889 9.657496071157695 0.5431555701239743 0.3980036840432629 1.069200962930223
P 0.5987972846938169 0.6054087316118097 11.37518346544844 0.6352108334900222 0.12780439594119924 0.2826902214802228
