# total energy = -381173.4520992404 ev
CRYSTAL
PRIMVEC
9.17169357085955 0.00000000000000 0.00000000000000

0.00000000000000 9.17169357085955 0.00000000000000

0.00000000000000 0.00000000000000 13.42370062994632

PRIMCOORD
 96 1
Ni 7.2167195580685854 1.517658475806256 4.3198007106814025 0.8754071474720925 -0.8570363582743885 -1.399000993414055
Ni 7.709010209592111 7.07023844031391 6.928468821538044 1.647568047958324 1.1468251384726056 1.597199879918417
Ni 4.281896852729819 6.145374033998478 0.4351317401241819 -0.984739195640717 -0.7988777476557855 -0.37575515705770773
Ni 7.000808720108356 8.844759365800051 2.871396775733815 -0.8190326253371056 0.7707053989866275 -0.6778523223096327
Ni 5.73529844349511 0.7007027128338128 11.128610115094773 -0.7201428555477274 -0.2494949656751768 -0.9951657902906795
Ni 6.894517963508335 3.426260389361748 11.234107520202356 -0.5733963712863867 0.5002194328820805 -0.549043396363319
Ni 3.441393683726235 3.395260065148436 7.864113636457121 1.2756122100420482 -0.46398667580229125 -0.16517332350796068
Ni 0.3342577857372914 0.16184278728866278 3.347266427117839 -0.33970109164762785 0.8834331031003625 1.589700486217578
Ni 0.8042630562627383 3.8095729780738616 0.19988697215162662 -0.3459499007708171 1.2604576137887968 0.3829431901657147
Ni 5.433045282415319 6.162130718122064 10.749712779659667 0.3222371305349096 -0.47346761870953297 1.000948715521044
Ni 6.726272416949461 5.768252338435473 13.1513601751182 -0.8493001659723954 0.03597641809460901 -1.83902113109842
Ni 0.6520230321253587 5.145751153522483 2.297050650657977 1.4234935792387806 0.2058263211426326 0.6338962284436567
Ni 1.1887615449514144 5.28528012756305 10.398172771758134 -1.5268035895830414 0.3802155068219065 -0.7489464100429811
Ni 4.141331477317624 2.3645451435235874 10.33689393561423 -1.0036499165022907 0.7822563370490205 -0.23396318858816484
Ni 2.5613330004232377 0.9534067166562084 3.518888991243382 -1.7277185894669858 0.1529346153499237 -1.4598641474480147
Ni 3.491168464645064 3.2494668244103284 3.0779469832525925 -1.358841133365718 -0.9977294372527977 0.3557483749184776
Ni 2.924357802993385 2.320869538818324 5.478413981750694 0.9061495708612717 0.09461222545994673 -0.86669265041723
Ni 7.955114262732879 0.9483714568949336 11.554275750301631 1.1683190466803233 -0.7816171608031249 0.23461367768797012
Ni 3.4985516779562227 5.725493903085632 9.164347027697344 0.3597904061983352 -1.0859928376765813 -0.1349075826448838
Ni 5.459441416464405 2.8729963190896735 5.330027903244804 -0.23121930729444048 -0.4976097631733752 0.004029175764051126
Ni 8.91844475181477 7.626400765749123 2.0579473512071553 -0.3751136668189669 -1.3312981907504426 0.8170479908069089
Ni 8.075217589825577 2.7440698227978015 13.011499185770969 -1.3435438408870153 -0.13802864477236873 1.902315520281692
Ni 0.6050456177405708 0.8057956462556508 9.574038324240792 -1.377122705283725 -0.8141714405900623 -0.18462320470245622
Ni 2.996658263281414 6.305667722245831 11.510393782491397 0.5438662230377537 -0.1499984155397352 2.150625978730464
P 7.456797808544223 0.33499335556034104 9.53368654127958 -0.8236624107996331 -0.6738725117262782 -0.27492394727124264
Ni 2.768567416281162 0.4965059618810514 0.8835129087568104 0.8116569016983248 0.8965359590309075 -0.11267011140292209
P 6.43630015353879 4.160261852813564 3.6045452716850868 0.6799431434003903 -0.5516684926909919 0.6608223634105393
Ni 4.899445323123522 8.231457389521958 1.3781175785640691 0.1567609310745494 1.1158790837130526 2.1069149109957586
P 1.8199941821280348 4.448766645255557 4.256601321907241 -0.21675659490189123 0.44326512698422366 -0.11724487525779809
P 4.312943035410902 5.253766188510701 6.887995972221919 1.523797712877182 -0.22604984727835908 -0.1473974875817784
P 2.3512553595635013 7.501986742685934 9.84271391521853 -2.6339545493944767 0.08693234031718576 -0.7867125730481612
Ni 7.387707441000176 7.171347190055789 9.772212024036488 0.623169843165088 1.4489454436529818 -1.0413949964615485
Ni 5.7695455472266195 6.894811457702071 3.9597906437825325 -0.46984004925927475 0.5310521019922209 -0.23324250837205637
Ni 4.698374285334044 8.03463284584809 12.680511108785764 0.24305409514583948 1.006141829686209 -2.576540273141066
Ni 4.767822348926706 1.2341705997384282 3.3556970478328916 2.3106059309629434 0.7451257507453104 0.015997918090153093
Ni 7.99553391622639 5.7262734970377425 3.604680095580334 -0.38570198385777443 -0.2493818371360802 0.12000366894985785
Ni 2.4132835230707883 3.836088344139153 11.902258058273478 -0.367769824859386 -0.8806786802836768 -1.1767612639104055
Ni 3.551188027263973 7.727417798555459 7.9292051456115225 -0.41110345465001463 0.6882485779422922 -0.8814178724425465
Ni 7.846732360002493 4.836674252438343 9.342532855730298 0.03205188622922222 -0.27058418224530817 1.0289464862855504
Ni 6.711652737424012 5.423323287247831 5.767895559556214 -0.15922147679989998 -1.7482326502599375 -0.7949185058977213
Ni 3.3224184749407075 0.7846383835647432 8.834459553938645 0.2598230870740622 0.35219973833527085 -0.20272248540632828
Ni 7.925049451262099 7.888371848738717 4.804342198320956 0.29285353516646984 0.6307132027299848 0.2855387466726115
Ni 2.5008273380459545 8.972658632413848 11.78125682238182 -0.911910641714765 -1.0624870412451572 -0.18074238159081132
Ni 6.684027596438659 6.649120130771242 1.7834193025724592 0.2666542510632827 0.5958611280478061 -0.20338737268383683
Ni 2.3399283180240222 5.941322195803874 6.84074432419986 -0.786874295437006 -1.0161182241726308 1.4799169523338318
Ni 0.7580459752735963 8.626243766870418 13.535117590967694 -0.6024133273440271 -1.0719623277254442 -0.9596154039898958
Ni 5.552552449426991 3.732173056169678 -0.14475408785841348 0.4021390463678752 -0.42327197169174846 0.7592123107453634
Ni 7.8643970417879485 4.503347393596806 1.2677224890985281 -0.863029599743346 -0.6544043756993375 0.8818868416591651
Ni 0.4262608781185264 1.950828390679187 5.051633985776998 1.1087910665180194 -1.285610716015657 0.9669073096656187
Ni 5.712570986867717 0.13268322197168572 5.193723696657906 -0.4619045964622819 -0.6066422778237099 1.2882244994894203
Ni 6.845687867025592 2.3350948355209407 1.8990908673397513 -0.8793368215438016 0.6903183159871272 0.7353072219929917
Ni 1.3899885015313145 7.86227838057692 6.1169922282949 -0.806484613468766 1.1298496869605317 0.49828776307700634
Ni 8.030973340119951 2.3758354982888497 8.96385013792436 -0.44184793492172286 -0.5236059301268209 1.7294242593041829
Ni 5.115236929067546 4.8709580429440695 2.1787202119293125 1.878544643114339 -1.0037036525583616 -1.341639681885767
Ni 1.5430090367901594 1.1369047895957736 7.342267202455077 -0.11490671404292468 0.49386469430864627 -1.0915297083344104
Ni 6.111145273654077 3.662009600479786 7.538347921781696 0.08139778365220174 0.8061660537870826 -2.6643336759069665
P 7.465584290969178 8.54051594721899 0.6568803610316812 -0.21406696388487007 -0.3896216306271548 -0.1906547556085168
Ni 0.11883763338221365 2.9330525684827995 11.04935659392328 0.7119688043773674 1.07271771783423 -0.6096286141455437
P 4.366588271009618 1.3678388615978387 6.786351595576472 0.6779173712196132 -0.41533163379874927 0.8168528440769672
Ni 3.0849449854344737 5.472529423166297 2.6210719092193875 -2.56318442065945 2.1012937081542393 0.15139735276979088
P 0.3842270065594707 5.292259786357822 8.215384913737518 0.9128871466954214 0.14481250046342156 -1.3068418574802914
P 1.5407711435629263 2.2335917029562298 1.6181738169751758 1.4451648935646273 -0.08038065524159706 0.08271187447793497
P 2.1363258928135753 7.008393710677708 0.18073831034909627 0.9080871542036166 -0.44479313359297595 -0.054463164044886846
Ni 4.213054120911736 8.172134875613171 10.324946887590484 2.0283252862163135 0.44603960440556734 -0.7005214817723743
Ni 0.5376575165201898 8.014849502851607 8.376980065300216 0.11162470085754324 -1.0985436777583986 0.3032927282219228
Ni 0.35219578399066287 7.749319802762971 11.227301206415756 0.8212777126175403 -0.2388716816333757 -0.9600913151850496
Ni 1.2009323822978832 3.2304355602852914 8.79532944055886 -0.051137956326395805 -0.1020735668339984 0.6085204686830294
Ni 9.104721847901267 6.361431619055576 0.1399040963069344 0.6591681156365681 -0.39787127223045676 -0.39134864062059055
Ni 5.441813421453167 4.0571353304897535 9.524612067677023 -0.7299197324288332 0.8443916729271845 1.4350329473369479
Ni 1.0531947425262773 1.5804754049592065 12.824708474845435 1.0181807631286142 0.6358530950597113 -0.7343430583075096
Ni 7.297494663200727 7.739762898079459 12.033716859155673 -0.9401531815002259 0.7022436066698035 0.5224941851198808
Ni 3.216476242695747 9.110481671453327 5.462023248199921 0.6269663340930428 0.5695705697823932 0.9707238551982315
Ni 7.951234636359438 3.448437544375887 4.990797225262406 -0.23816977047034465 2.184392533657948 -0.777308763235758
Ni 3.4014050998297733 6.872927796881667 4.985334564581504 -0.30208045308137654 0.4774096340764165 -1.168992418598264
Ni 3.053651167027426 3.953761172439979 0.6868607929217624 0.8215960151889076 -0.18748998472729003 0.7613077598218114
Ni 0.24355799101011316 5.530338607638636 5.800461491859233 -1.5167341211621814 -0.4684395693673223 0.6030627880025679
Ni 1.5295449906525436 3.7042727643776976 6.508803308254367 -0.9155351258412296 0.08140009764504692 -0.43205383164943656
Ni 6.221994361950552 1.0771145193157203 -0.011193134813587522 0.07482552975132276 -0.7247752121134162 -0.1530235755193042
Ni 8.968164502572273 2.6708430214607954 2.823165590840163 0.7491055613286647 1.995727040565318 1.4528445215970722
Ni 8.356256623714424 3.559818590898508 7.152174681850017 1.8444782975582492 2.504635516580964 0.18698579139736182
Ni 4.564174065248488 2.196308768658268 1.2725678948032302 -0.6100222500395365 -0.5580939366013614 -0.2074977953077846
Ni 4.416986727090135 4.9195313320072955 4.4675282615900995 0.7325872519586673 -0.8749402351380028 1.7100417410125133
Ni 0.8826535210707787 6.894921518024722 4.16830084221385 1.0065506350888536 0.024066811141216615 -2.077024294083913
Ni 2.0628055972828334 7.982555969847148 2.234374965585762 1.1533202592786458 -1.295820309558807 0.5304188392835962
Ni 5.735591937688844 1.853856074730268 8.684798610028716 -0.9159845546738224 -2.2701637637874965 0.6638035575260504
Ni 3.715728209626936 1.6070182861051605 12.37716193032624 0.7858222000234079 0.5227081009028998 1.6173285323474922
Ni 5.416380315227275 7.208630124353751 6.3231269580956715 -1.3524226314338839 -0.33107195521772015 -0.8744627812809519
Ni 7.382433717206491 1.5627281779317632 6.8381404803998125 -0.7250138104867836 -1.279336967191803 -1.0106733990079757
P 1.9774263019864662 1.724012409082973 10.677761760896058 2.3908022381078764 1.5949661054918918 1.506757469565444
Ni 8.824297317480553 1.089312871742852 1.3081962555840088 -1.4096646437754883 -0.9773261910060975 -0.8150337885903577
P 4.439815072346625 4.249722551741565 11.604788852551575 0.6285676171418916 0.9133093218345045 -0.9749402072724241
Ni 6.093425561707296 5.905928630378084 8.195008162168076 -1.2356840063885428 0.7256185339503181 0.20235173233047088
P 8.963065040956119 0.15056619006373176 6.519890968592081 -0.12437017344866967 -0.7705256788756537 -0.5919060000548
P 8.508873604456882 4.929317529029663 12.144354998500402 -0.015195991014148022 -1.4159772162570774 -1.4554354222527
P 4.165572263381465 8.408975518264162 3.3975520713676395 -0.7981542392261995 -1.0100367938652413 1.0142757716472532
Ni 5.994041090353613 8.721372572414937 7.8150634193290776 0.26757727709818435 0.8033524955976874 1.5367853833861018
