# total energy = -340898.2221174747 ev
CRYSTAL
PRIMVEC
9.02052407796226 0.00000000000000 0.00000000000000
0.00000000000000 9.02052407796226 0.00000000000000
0.00000000000000 0.00000000000000 13.20244879664817
PRIMCOORD
 96 1
Ni 6.348184765800396 2.0912641680408344 11.360772702626345 0.6065849422232135 0.11507383574840828 0.8877828954286259
Ni 4.620122977315607 0.18389691314373416 6.052873556253607 -0.5464846344972072 0.45750749583585076 -0.23085009688047983
Ni 2.6289234823429033 1.622909539863569 4.783432348464984 0.8367156444391654 -0.648259182033548 0.3495730993457012
Ni 3.399023659857772 4.165172847847369 4.961836664526669 1.0457877262126054 0.3748496145243028 -0.8829939586804147
Ni 5.162238430488645 4.267402446682772 2.8625685855137486 -0.26793646020981593 0.23526005302271738 -0.389949960500851
Ni 7.204178373131793 5.981238868771777 2.6481471211038783 0.1189824267741951 -0.8109789017946936 -0.5957878516077094
Ni 4.912342853277213 4.763305755248577 11.268633461971238 0.3257693120578841 -0.38277863956339236 -0.0016321362867842857
Ni 5.768742384189973 7.808300908489121 12.338955622314991 -1.1463345719894322 0.33248194819136934 0.22442259608758122
Ni 1.9400080211007449 6.588852346928831 0.3271554634785587 -0.9163920745248861 0.19844468396658083 -0.5046077917577633
Ni 2.669227183710289 1.6134289691077224 0.29955717020785233 0.6827253341312177 -0.8412646972624285 0.597440556719784
Ni 0.6278140396705109 0.049328735659701785 4.87273373226016 0.08273321463417366 -0.022278866002858406 0.23061561227217056
Ni 8.694612497086359 2.382771422604046 1.3943763676606955 -0.35605999262162547 0.1251823849373199 0.7405237331969247
Ni 6.799057618406938 0.6374705106449482 4.857524226692669 0.10620507250386871 -0.12681940632011063 -0.3351484392799389
Ni 0.5099031618608325 7.2570296234253275 2.236772437068816 0.4755782372946326 0.4984962795433866 0.5166948048292843
Ni 7.664540817018212 3.7067678576755263 3.7395015352766827 0.15225455856376358 0.14936540994142664 0.26455957331778307
Ni 7.819829138199846 3.878049567962884 12.57510752911386 -0.6575357222394675 0.39761184792148296 0.089698075987781
Ni 7.8571741076852915 8.875636373326442 7.075957938407883 0.35293970182508894 -1.0304701220189285 -0.6079949351968625
Ni 6.854407553856866 0.5605985069111249 0.49356428668474805 -0.5397110632187996 0.6841109016248348 -0.789427400876163
Ni 1.8178520846824069 6.604566099789616 9.208048096157457 0.34163096168048906 -0.5041005131040415 -0.7146697482482983
Ni 0.17767365361522944 4.928273098714725 1.221279727938441 -1.0212586307229896 -0.12273855138251764 -0.09673955621559467
Ni 6.532266599686752 1.9552797682840448 6.964648280083579 -0.9278275700553377 0.23151729815083352 0.5659522563035156
Ni 3.3061663854898526 4.299750045855432 0.2781911569896811 0.1306557493470653 0.36646627555661404 0.20332618042859818
Ni 6.102519814359175 5.541470281246536 4.763813610751483 -0.21803211918020515 -0.01082717252249103 0.9674415849025338
Ni 5.454304957541736 2.991945451418342 9.274034131491513 -0.7095236852709845 -0.02739124752875928 -0.3944905286836819
P 0.2812779803128501 5.742429515593584 12.279425576029423 -0.11795141440651945 -0.8866307841020538 1.0519506604902078
P 3.9363943173908718 6.3187688369375845 12.544108498283729 0.5378092182103964 -0.8311247806149492 0.09770500545265753
P 2.278882047347068 8.50685028939564 1.41245079166021 0.8833585411086852 -0.4211598104447521 -0.40947928878303025
P 6.284012757848834 7.67017864453715 5.867498179221307 0.4767938548692886 -0.49078554116269024 -0.033046903152639855
P 4.846384781567651 1.0888133325534688 12.573629065225292 -0.7388553443555662 -0.5987415349193946 0.6277158106645576
P 4.026987440227186 6.145827350228651 8.139111488304758 -0.018221665214349262 -0.2462108956072663 0.07614476278337853
P 4.660552966019417 0.8910473637131466 3.788033758664509 0.354877285167434 0.6457058194840751 0.21665323655480753
P 0.1401789434308797 5.637015671775485 3.6280592752491336 0.2723109351284278 -1.0824634843670842 -0.5318095489835357
Ni 1.433956623000851 0.9194078912644134 2.7318242081661603 -0.5752051423603514 0.8884922627908246 -0.5446180136021136
Ni 1.7948317073570783 6.518826018881604 4.799261564033357 0.5134840112014705 -0.28157539114948926 -0.8781129764390296
Ni 6.027009007701524 5.580583273441921 9.170935856191994 -0.24021996813115404 0.7702703683317379 0.4532325226095808
Ni 8.739056618983653 2.395499382010801 10.293289301194926 0.098607719772585 0.3710364114257997 -0.06300796829110439
Ni 2.3275477744905424 5.318681378746158 6.943893858394662 -0.2665010133148701 -0.5520891251681783 0.5661090935963541
Ni 0.49759646092629267 9.14455623571778 9.107920279421116 0.7625521737518738 0.004323052855386103 0.5603536791698156
Ni 1.4810076763429016 0.9302595816728656 11.427907952721862 -0.42600788256567285 1.285878882075379 -0.13994797328226868
Ni 3.856391289766131 6.6616299348053 1.651850989162387 1.8341563468069508 0.9808306046149301 -0.038675305083010814
Ni 5.5642110223269245 7.799388630747184 7.981394842054166 0.001287094242539719 0.2875007554949887 0.5803694601701102
Ni 5.540496064651263 2.814024635444683 4.868627589721567 -1.006411281297512 -0.10144416078011562 -0.12065852892503737
Ni 0.7941155186407396 7.389874880819572 6.861748456312725 -0.9240848151834538 0.44508983889778825 0.5818558149076495
Ni 5.044277037744397 4.360972342449085 7.136333207795092 0.7532239543724124 0.8110601486545903 -0.25682055280231253
Ni 8.324825134988195 7.159337348177166 9.26835661366684 -0.6241931422232799 -0.3025450514226209 -0.6679420051744561
Ni 4.724932446023676 0.48372109086288345 10.351182122368996 -0.5132168735830129 -1.0036658573418906 0.423948943154115
Ni 8.121267989720419 7.2916323536055625 4.6552362691559575 -0.3765318873227322 -0.09731574043403884 0.5475619267217859
Ni 7.299804948377015 6.059735468883457 7.1244378427563335 -0.13421518456354947 0.24962634904671843 -0.6263752374762632
Ni 2.170392204834636 5.234889731028691 2.455233292139455 0.030090134517161086 -0.34288540291288044 1.265420357110711
Ni 2.323263025576149 5.360644856535119 11.355941309955716 -0.4315792060058632 -0.5362860966976506 -0.051111731074150686
Ni 1.0438730818345086 3.3002038191058234 3.682281645195274 0.05284234061201221 0.07549195969072806 0.14211155659249075
Ni 3.585983040909794 2.481483017067631 2.5849466235903793 -0.16843116832362606 0.06957559420629308 0.013511404222873504
Ni 1.0873339666124993 3.3770677043680193 8.100970006547435 0.02524720460256297 0.25670922403542884 0.36859772007732006
Ni 3.588147966677066 2.5994173482397884 6.98074179700604 -0.25709026152393144 -0.4559141832068019 0.0028886344017047022
Ni 4.094731575694747 6.623725692829975 5.886866146366765 0.5578705077366456 0.7655212836825268 -0.0906900075874051
Ni 0.8220565918245973 7.52402811419821 11.244815670321632 -0.5098117045562058 0.4232804563321807 0.5816825225545789
P 0.3069116034497569 5.5784995323909214 7.935978307666406 -0.4371908957656858 -0.5354018943204844 0.9058176414431496
P 8.530655452311606 1.6993043578761893 8.021636301805742 -0.1352449113796445 0.6724303799631128 0.3593602606394521
P 1.8393028908264628 3.305390620423246 10.420507555699071 -0.6470451071207889 -0.23548708143185898 -0.24481787191448162
P 3.923873830036814 5.899539982629339 3.712515735587634 0.2149712208666943 0.6903910782065916 0.5094895453300967
P 6.9513872077066345 4.04326948610188 10.550736861124527 -0.035955077938370335 0.7532784617594317 -0.7464902351930047
P 6.443991751526225 7.808986468315424 10.19842947049228 -1.130338453671492 -0.30949551459852503 -0.8423116504697041
P 2.4804727183762374 8.307162948936865 5.940375894914513 -0.1255971038772353 1.1675212333693763 -1.5315539597838332
P 6.913437863111157 3.867405349607129 1.5932184850178326 0.5642360449433573 0.5786707323114485 -0.45505774874377763
Ni 5.189164694719095 2.910147339511572 0.6124547934041171 -0.2008538076287057 -0.9705675321260253 -0.610915194167451
Ni 1.4662049964091775 1.1264920614280367 7.077040401291519 0.4133009765219656 -0.4113127424473433 -0.5581684985930387
Ni 6.8284374651736295 0.7588046773241257 9.146749125109546 -0.06564617724489985 0.24407636576276673 -0.34145381267267644
Ni 2.8380643319854353 1.6686706582692867 9.221210844822473 -0.5149973625222034 -0.2779267386533084 -0.10033164444222721
Ni 6.311344945660647 1.9188188101535673 2.58342846939608 0.16863737079716118 -0.4344277311982518 0.33499340175931336
Ni 4.004093350238282 6.916270307656672 10.306372669248475 1.1356948328873988 0.5192522811438154 -0.3259480037275935
Ni 7.978599381657176 7.2730861561992635 0.19877085521729773 0.5217279963778175 -0.2522355045347914 0.5309798539933888
Ni 7.620241023505403 3.8621463840974632 8.312459800647458 0.48120432523215834 -0.342826524650487 -0.08929929788746557
Ni 3.2177111268487195 8.385713672192727 12.29335416718461 0.3815455384872397 0.5055524150592197 0.6701665236296007
Ni 0.1244435413124224 4.910403440610699 10.170084277831863 -0.1313237219483674 -0.5640627525902867 -0.004952201798952761
Ni 8.728078641238776 2.3199073906368772 5.840393308615058 -0.12587812545276386 0.4011645982697478 -0.7559500950543239
Ni 3.669982160679958 2.661000465794654 11.37890034771764 0.32925881326838136 -0.01397163168874368 0.4822687619409307
Ni 1.170836957560997 3.350998389920449 12.645846478559479 -0.3085645181438234 -0.07311214660464183 -1.3281673584309448
Ni 3.046781216998543 8.372209947719366 7.99470282115607 1.0013215254794305 0.2068038545645535 0.5888764691998568
Ni 5.576776612301134 7.7354421358963785 3.689754247301975 -0.537604558398758 0.10625160947108797 -0.3648210266437072
Ni 3.102347645025198 8.314135814012287 3.591911329302508 -0.02170885243200132 -0.39464890863841706 0.28613935637108784
Ni 3.3865212135517746 4.3680444332888415 9.279776597089203 0.16795551423878816 -0.16997100200692017 -0.5028730684548436
Ni 7.326686109987312 6.226272383530877 11.402017244650091 -0.2812614594534963 -1.5239375808891562 -0.5672216099342425
Ni 0.4276513175953376 9.14185007850869 0.4139671826413708 0.2217036544945214 -0.1689405038598768 -0.05474110029662185
Ni 4.51744235227869 0.1482938068485386 1.5488456252603784 0.1912751628013351 0.11075104000333831 -0.19946438348034679
Ni 5.7393805784713425 5.2618340363072 0.2781640954175902 0.5304016128924155 1.3688203560656167 0.8052977922495163
Ni 7.913038213004947 9.111811733487786 11.125875550720094 0.7985995542937343 -0.5688455186909107 1.292027418175278
Ni 0.05274300400517076 4.944816739786297 5.749151610100965 -0.13759001457305337 -0.7689915016193143 -0.08814872922279013
Ni 7.706026207033566 8.7790806841061 2.5903075210215873 0.4216238945653642 -0.743139830663533 0.17348261470460444
P 8.438384512005655 1.4686675994694496 3.5637239958126226 0.23097479538380222 1.4040046172762335 0.8918763487717092
P 1.749864395066027 3.2350936766551097 1.5418087144643404 0.7230780269166516 -0.07927636643382475 0.4765218321548246
P 4.77566387317009 1.1394635749836095 8.20517690425028 0.24607616980161495 -0.3056008075298092 -0.5819879696101395
P 8.41337961939366 1.728657143070789 12.502362415123898 0.21536459965037102 -0.3534181841234043 -0.6112900610083666
P 6.2637436403527476 7.5079535403762145 1.4951644867560563 -1.1648786535402067 0.4943017818460648 -0.8958762139597216
P 1.7434417819564527 3.3285192440369387 5.918103319031296 -0.6261875469454893 -0.7218600953491504 0.4238874937885603
P 6.992592961477049 3.9533980051879896 6.090447647049423 -0.12349779814604536 0.3937495367525993 -0.4991053738822952
P 2.4652911764332406 8.508329655336611 10.170084277831863 0.014963306178051649 0.86442133788455 -0.22949409707321766
