# total energy = -381171.42047065386 ev
CRYSTAL
PRIMVEC
9.28271126412095 0.00000000000000 0.00000000000000

0.00000000000000 9.28271126412095 0.00000000000000

0.00000000000000 0.00000000000000 13.58618624587301

PRIMCOORD
 96 1
Ni 7.101227676098256 8.697324892826945 12.50814983548571 0.0289310812120534 1.258730089574729 -0.41088953886699553
Ni 8.156486288532127 4.9020976898451 6.824925919845471 0.719169950111497 0.4848756034361585 1.7654819242586886
Ni 3.138828126605842 2.9664388963849637 6.6270287274403294 0.0439298686137308 0.7087297286147795 -0.4037256741287047
Ni 7.998930830854083 5.992797693748646 9.644860426269688 -1.6161738499177585 -3.0936760221625104 -0.9384763080184353
Ni 8.2800763058258 6.844393621833474 11.796423943646756 0.5175376124455539 -0.35594866385474183 -0.023811757707617055
Ni 3.6217054819911128 0.9190598884787918 7.192825757414692 0.9900343826013853 -0.7786953591706395 0.22042375934083328
Ni 7.958671712256919 7.763493425970548 1.2410000944855462 2.010290025981157 -0.9858488837651281 -0.181533510033539
Ni 3.387205630941636 8.273587690677214 5.778544364159227 -0.35173051200833616 -2.0709510913066396 1.022089611264717
Ni 1.9915778458994535 1.2714343915186714 10.764742489461662 -0.43382095085218836 -1.6421430202880105 -1.6780741869669809
Ni 0.6302747421661796 5.3906746299245505 4.050490622506796 -2.117541280361353 -1.619277685654063 -1.3631706139790072
Ni 5.439770889611062 0.2763741614003665 5.575132313013349 -0.07590770707190797 1.599092726065756 0.912876348062144
Ni 9.13949755947609 0.8243994407281373 8.245945633181563 0.14223471243391633 -2.07721712682101 0.9886956091853036
Ni 1.1474637830646393 7.272855723998413 7.202105683829631 -0.5956765228408257 -0.47101170096987266 0.17837722379274443
Ni 4.3509552760868635 5.195190014167646 13.204468283227923 0.14648680284205093 0.2048816978411762 0.33268069446573667
Ni 1.3830589940390556 8.461079892066545 0.975694637953812 -0.7052026892981275 0.3049911989702683 0.8567802763995244
Ni 5.426348089174932 7.1749231205397805 5.73864170167323 0.8646108281875368 -0.4764015045268764 0.1828825678622657
Ni 7.004919547104577 2.474891488712455 5.680791845298424 1.3870543625751401 -0.9911427851742156 -0.9397806286521557
Ni 0.8155558017409298 2.297610269674259 6.577439555787594 -0.24371101200354803 -0.15196453812717053 -1.1082645045905881
Ni 7.161862345841553 8.590072447295091 4.429857393256346 0.00034478493392843843 -0.5824674803497194 -1.4285805068433848
Ni 1.5961714784185141 8.242453477217474 11.013220247078722 0.5769133833007096 1.117252052801179 0.8702068342180755
Ni 3.6923005008823826 5.006713845388113 5.980911182020799 1.4380858752306587 0.757634167624966 -0.3148850610452126
Ni 2.07913237820484 9.016696572636825 8.54128158880799 -0.47429525681715085 -0.26876461253806616 0.32987304981361254
Ni 7.6097345971848815 2.667405636876301 12.326937388242328 1.4199685968046576 -2.377487780387157 0.34940057832357896
Ni 8.974543780949087 0.4875549135732143 11.140319129216692 -1.0876110900062947 -0.4768414202777723 -0.05161669573502724
P 6.684146177899222 4.131252066735308 9.446597495042152 -0.211163674195146 0.5677977941526867 -0.45602679752526626
Ni 4.763905967789302 2.848167872625112 4.876693694026593 0.3042458361638115 0.2014834707929046 0.8041626502038085
P 3.6489316740237356 2.4059487924198235 3.210728294695812 -0.6653891568456154 0.5184593529288748 -1.3201362605963523
Ni 1.7501716576961173 4.219205755623511 1.859378113941528 0.005911480388428529 -0.16394639307939507 0.09502488751733311
P 5.6566428720379855 3.4283280416830335 12.569599527274855 -1.933398614839741 0.18865212335619122 0.8369241609055457
P 7.349224589273691 8.7548962678649 9.156165595757638 0.20540697421702686 0.805956765989754 -1.1328203395530814
P 2.84949530033076 4.740262902290805 8.482888693826329 -0.813736667045489 0.15635315411316944 -0.482987128164194
Ni 3.6956144287908885 6.737800248798832 7.60944590486568 -1.8544256385789482 -0.2240191900015755 0.33590794315378275
Ni 3.7735984858198903 2.43797414615748 11.218099894869793 3.8312285885462534 -1.0920796673006095 1.1986490651224324
Ni 5.270389257828157 6.605586592774064 2.0644619813796243 -2.2368571792155674 0.31119372823655433 -1.8627549843802498
Ni 1.3304631522194719 0.8736999200616725 3.017573639457212 -0.1430564370042633 0.930997740253203 -1.2608283668646545
Ni 6.989584508155414 6.40412391098613 3.3630975016106017 2.4313169103924706 -0.28985768576293947 0.7063072352162159
Ni 0.12897955943282613 4.722337986908946 11.892966925234512 1.2220242495132632 -0.652553695643844 -0.5593172674855013
Ni 3.0496584025467306 0.7074901907054779 4.548505295092066 0.9575834611615314 2.5310137494641762 -0.49596194315730713
Ni 6.448170375764445 1.2564428128849565 7.710608891831764 -0.43895415831369566 -0.3142186311058072 0.406945466617583
Ni 8.19906608493637 0.9535479455053185 0.6357450438930207 -0.14937620857470404 0.08322455244829538 -0.7108665724521241
Ni 5.621080805322344 1.2676191972038375 12.934062905147357 -0.8413330886065187 -0.8500221317400846 -0.6318483447756924
Ni 8.271062793223114 2.8044648681622455 8.023743517967347 -0.41501204567580136 1.9560477196978248 -0.7051371261675147
Ni 2.817247161523623 5.6253601351985925 3.8486000077312372 1.4265321089547884 -0.3301787539794894 -0.0052810458932812275
Ni 0.46489767200716403 6.292675679979084 0.08179739480159036 0.29416094112398367 -0.30990689110433084 0.9110048420710438
Ni 6.051770758182076 6.662972313587454 12.482607527269904 -0.6899195378868117 -0.8478814312479979 2.1378864196766085
Ni 5.333539542314325 8.379800472551494 7.884090697164214 0.33034664701592137 0.14144075577771123 0.3203419703947257
Ni 6.14805103904207 1.1628545182811711 3.0401269146575056 -0.017359060103737844 0.41148192103535586 2.432436625819211
Ni 8.893431450236145 3.6227265802262263 0.6027171573427064 0.10600966866361099 -0.3409758445949934 0.2866872584547579
Ni 2.5954089285895567 7.944747645414458 3.4035302069077358 -0.43092023226562565 0.7504926714841784 -0.4360776080968489
Ni 6.522701264216516 5.047511361236519 5.40840275182837 -0.916597248557157 -0.013982944542653338 -1.2109533364110823
Ni 5.70655601031259 0.3130501534634051 10.346953648667029 -0.1924272741279073 1.027981808379436 0.030620553099334365
Ni 6.650199302937305 3.477832740663592 3.501635468795215 0.25698716028716384 0.8026999496153531 -0.7988690059050372
Ni 6.234176033818297 7.304621161821678 10.380050227280433 -0.5411765920207325 -0.11757346224181041 -1.0937645112022003
Ni 5.796217718066801 3.652681889359971 7.068498692849493 -0.6824607676159214 -0.0690217785853521 1.163097393270068
Ni 2.771678332103867 6.469632004124288 1.5998140143045017 -0.15590243972899603 -0.7227761794055165 -1.2834144796952864
Ni 1.2685845991715812 4.94529014519041 6.325388882618758 0.34018831569669156 -0.35082882612967325 0.4141761800380674
P 4.993188935128471 5.779750188347784 4.07513622081795 -0.45483123455526825 -0.34003173551416926 -0.07657722233510683
Ni 1.9715828859136817 3.061976560346693 4.405728841960609 0.2263748347179456 0.4359971325679008 0.1892337068912741
P 8.998753091832508 5.431852736933317 2.0262710508441257 -0.6239609716078157 -0.006804167406026992 0.06362246194665172
Ni 2.757977050330887 0.18704755952149685 12.992727783568007 -0.16631977840757808 1.738390210248219 0.1969112780411899
P 1.0202906392368416 1.6245487266434468 0.7787043664356762 0.6976127927660114 -0.2865723301434484 1.055266612237318
P 8.884399372211004 3.600605879369172 5.323380543146066 0.5527025903824611 -0.13003354238203413 -1.0321662787744288
P 3.805085442306306 0.8306996168387888 9.400907062105306 -0.2805598054007813 0.39761904701033457 0.12005611945434809
Ni 1.23855502834801 2.5541658426021914 12.435123674523746 0.029728894523000416 0.623565793051926 2.337134573381091
Ni 1.212981158914026 9.276101937911848 5.9035379273906194 -0.6248408031096079 0.3161569857791007 0.18209889561870574
Ni 0.079278066974228 2.62114988682565 10.474473965894767 -0.12866982926528808 1.5671280002337011 -1.778464966781918
Ni 9.171142322053388 2.913007610554832 3.185185986480004 -0.9276671332180734 0.2016428791889043 -0.16219778581940453
Ni 7.007416596424992 5.346628165146236 1.0738630222776435 0.10583946163433386 -0.7837979705045276 -0.47583611894170946
Ni 2.582394567447471 6.499067481429249 12.02079914155952 0.6456996488364879 -1.0083982298205536 0.36723606384310303
Ni 1.876797121561445 6.452542532752976 9.440809724591304 0.5952278653391813 -0.5476855967838439 -0.0023942112637894255
Ni 5.5623119605359355 5.682077500803546 8.311757270976885 1.4746096811883054 0.4637614471653626 -0.08427201987620325
Ni 4.440217827258258 5.123499635351435 10.426121251377639 0.15380801909381253 1.5333599026443203 1.6818760772115744
Ni 6.23070429981891 2.472171654322561 1.2209717167393521 0.18341041534127767 1.6110709814735544 -0.8410883195855643
Ni 6.028972419405354 8.683048082957809 1.097166340545184 -2.2305587478013646 1.0706454086862336 -0.2094358928707619
Ni 9.327268242202273 8.20767115824501 3.2515545869490263 0.39625584811422077 -1.4957158670393016 0.5813415942753923
Ni 9.192566819568318 7.695961701784619 9.66322905524826 0.5746657249171135 2.111468591804712 -1.3578903394166744
Ni 4.2882412790284254 0.8949916748060389 1.899049636917941 -2.097795208082678 -0.40791785783318135 -1.4376444168178661
Ni 4.444357916466083 3.430036060549042 8.972887745265957 0.270425802290573 -2.1821101653816743 -0.5292770123696692
Ni 8.543250451859514 6.834730319444808 5.274347405895906 -0.68705661451672 0.4549343357920358 1.0295126432016657
Ni 4.903211615192497 8.478512823753306 3.57326179690395 -0.34239612198128777 -0.7855470919851504 0.05261685486476745
Ni 2.259040604520646 3.8428196634493714 10.754933448506709 -1.4187588927672725 2.4923235319828305 -1.2727598281949177
Ni 8.037184883825935 0.3096656769495646 6.139692885852103 0.5808865090158447 0.15336501801912297 0.978541037249805
Ni 7.525345469408347 7.251932492889811 7.45772927255024 -0.021932281296717065 0.44692226412083674 0.13545882716266347
Ni 7.183481780292279 2.1321737901633826 9.87566297343693 -0.6355905854269441 -0.6925199516241364 1.2742484969253023
Ni 4.438843985996469 8.381276423636796 11.939159552848812 0.7543557539840106 -0.33657694419634937 0.7463673364618952
Ni 2.060242060855236 2.4664906350508375 8.52245160908137 -0.5235028288900533 0.13381897756639535 2.0099293002076286
Ni 7.127284246516112 4.684028237669725 11.620033864886478 -1.3019323359938157 1.708823552334696 -1.242414383133841
Ni 0.33343870040525725 4.6141201394093505 8.837515182610195 1.398221177825237 -0.4591645718232995 -0.10870135656316118
P 0.1357039554466113 8.353530399775387 12.758732912009352 0.23811911973806732 0.5400861871700311 0.6136253940097625
Ni 3.8616171536866917 7.798155069697044 9.844211291253181 -0.2524550767447652 -0.1760364914747097 -0.4847958992381586
P 8.012854897696544 0.4892239450520638 2.711408472911842 1.609866933863124 -0.20245277668470937 0.16664348029558398
Ni 3.6570818944821886 3.0041638348168007 0.15366785821562987 -0.3836003641337394 -0.8290709834097141 0.08799343459184845
P 1.3797821969754636 7.173604975545361 5.014838074255127 0.626466768748805 0.45017085296512155 0.611262807314857
P 2.0510707421616696 4.725819003619561 13.293607374339981 0.46536221599357924 -0.5407500460062752 -0.6597358152145799
P 3.964878033390372 7.765647014975515 0.3923523554868267 0.44618821416828963 0.3422395417987654 -0.045990350687185315
Ni 4.3288624233634945 4.336585639105445 2.1650540816051667 0.11020288080935214 -0.29410540529569995 0.5205787132647228
