# total energy = -340891.24967955163 ev
CRYSTAL
PRIMVEC
9.09476176525804 0.00000000000000 0.00000000000000
0.00000000000000 9.09476176525804 0.00000000000000
0.00000000000000 0.00000000000000 13.31110315606251
PRIMCOORD
 96 1
Ni 6.396891639731552 1.9663056845615916 11.362730699974245 0.42431146869985636 -0.20512492420023382 0.12838700791754662
Ni 4.591354059008016 0.4458661484759149 5.964945024147199 0.044852380428000174 -0.6487366358905988 0.3055810100354673
Ni 2.6948051972352394 1.5204713677518775 4.732323775945293 -1.384720829345957 1.3160692896158304 1.2456403462703065
Ni 3.404078383523548 4.450394346308688 5.116189114471284 1.3187712619280256 -0.41743273930215213 -1.2393825382860526
Ni 5.438803960893517 4.693761076557176 2.550327630682624 -0.9993317487429112 -0.0796733447619273 1.088128138852029
Ni 7.347876309625902 6.188767111348339 2.6868199963997013 0.08073572458817065 0.5351316713782333 -0.6593252100397226
Ni 5.216373372243446 4.750039462400356 11.316168248131754 -0.9431459455799628 -0.4485379453473888 1.2183367733593469
Ni 5.54878691499849 7.9264850535404285 12.548190151532909 -0.15286468134393674 -0.39165563033804807 -0.6080093333745658
Ni 1.6830675187060415 6.609236137576827 0.37008950287042225 1.2307153495293577 0.35256586342543794 -0.8151906258831959
Ni 2.7883357272952365 1.6480072120762004 0.33415791806285366 -0.3405757809430973 -0.5160196331391306 1.7413986580572396
Ni 0.5577799205050161 -0.3032120816585222 4.415026636730964 -0.12618562939085365 0.04944668466690194 1.9537884913500025
Ni 8.55033114250731 2.183452216622315 1.420853713638093 0.35375474152721653 0.06792648863864431 -0.1250044645985589
Ni 7.055070454386541 0.4902485859217321 5.085001357403826 -0.4613836909618054 0.016199235467681778 -1.4482350478495187
Ni 0.9997598772758904 7.525487912265116 2.446447261726451 -0.7422481720871991 -0.4772003462790878 0.5656789480374709
Ni 7.624029656061311 3.9525288974031705 3.7760668726518976 0.24352949212036124 -0.8369136193825844 0.22836795388857445
Ni 7.466226444560824 3.8675292538850137 12.661241678259648 1.6094239327884348 -0.3021069354439378 -0.5813963587727278
Ni 7.8773915294968795 8.839962925888354 7.2025447449429265 0.25003695422157585 -0.6040819732957016 -0.5684760511666339
Ni 6.684204258860817 0.7404236548325027 0.16636865813705834 1.6327188987606334 0.17519882606476278 0.2674111838339652
Ni 1.9943630246272364 6.631945757720722 9.121460354340805 -0.29357010161752023 0.20930605216111697 -0.4016903888662308
Ni 9.339047072871278 5.138822338616297 1.4458388431772629 -1.0139425566775506 -1.7219976278228084 -0.1527597803349563
Ni 6.3054438101172705 2.0627738226738423 6.787983675961324 -0.47852086486272427 0.22037490838076884 2.093879932188671
Ni 3.566492639242278 4.405702686962634 0.48608955136354104 -0.4096009019625591 -0.09648681677484028 0.4485775403360726
Ni 5.857335802864636 5.752264020116372 4.7791781696406535 1.0470881901915838 -0.934714526983158 0.973070501053537
Ni 5.180358115627578 2.999352389921845 9.501705068205489 -0.21026918740533465 -0.6329796301666583 -1.0235101457613274
P 0.2303302987249565 5.340498680903386 12.390999926975834 -0.6018062898876475 0.8274902691861554 0.6185205173185347
P 4.13065890146337 6.180963805748235 12.648423521018636 -0.6087978907141322 -0.05443925278548689 0.4616564850072178
P 2.484761674118201 8.618860172456948 1.30180691995146 0.7753249000365099 -0.17786943091839047 0.9671703335190183
P 6.133598286441305 7.784961465611257 5.891467534317589 1.231657658837969 -0.3673710467590705 -0.5196418032727502
P 4.608152084000316 1.1173915260308493 12.56790395714921 1.5165022076570336 -1.60440745341045 0.2798226701244406
P 4.076026667500866 6.340895191503295 8.029776991409975 -0.33237499029985984 -0.2565734697885129 2.642270782569656
P 4.472903881693606 0.9934844916534287 3.792093661845959 2.025799948691298 0.30108337927542983 -1.9014840255193317
P 9.231274145876824 5.546485940270254 3.6442073785813167 0.9054579441108858 0.5542215981301486 0.5766747849273424
Ni 1.252148611201889 1.0895160812006384 2.6922368365109164 1.064858112580495 0.871599600800544 -1.2387269069799247
Ni 1.7776621358933251 6.453533816045599 4.91733487676195 0.1340424064311111 0.06743257972136128 -0.806774891015675
Ni 6.165157109789048 5.83029707611742 9.379442366756388 -0.3510872219973824 0.4417216937565038 -0.3861372716229801
Ni 8.587465054821095 2.507780516162333 10.072910676037866 0.4737666380071905 0.12580819144677685 1.2049552098461185
Ni 2.359854215945895 5.2154002327338755 7.067583027632024 -0.6070870786706125 0.2521239186575916 0.5017520674765229
Ni 0.4723137157079715 0.022914252283757458 9.220867009981486 0.9532418963633841 0.2579335833608332 0.14325466905799844
Ni 1.4674852856700475 1.2811881855388756 11.568546977819805 0.8749728881481511 -0.7211931511891128 -1.5253174919558183
Ni 4.184945534478551 6.700529356240989 1.590770238342285 0.034822764106140026 0.6175229292919557 -0.09031359808459286
Ni 5.83029707611742 8.046308539882364 8.011780276816166 -1.9880458698709764 0.14816753297858354 1.202155535613794
Ni 5.490835092989321 2.719624802110165 4.6332490791092775 -0.48420043174600474 0.6924039948715623 -0.10275645183363595
Ni 0.7592552685569514 7.62181053418902 6.913361333317226 -0.3881926114901121 -0.056951734794695466 0.44013198067188075
Ni 5.231588908687473 4.645658881546741 7.335123634669647 -0.31502055818181235 -0.666222194269872 -0.3181601322520585
Ni 8.477009173103996 7.04178300743811 9.379895285892617 -0.7412564975978911 -0.0058032369453383924 -0.5298339133144037
Ni 4.592181682329239 0.29639373875829084 10.440110773093423 0.15072886594785656 -0.28010266325870464 -0.292697983425212
Ni 8.047445385103824 7.085374200609792 4.880662068869989 0.303752955687793 0.009839868908557247 0.26934233941840713
Ni 7.252317647690821 6.214796319538898 7.176668328750131 0.013922009397730861 0.3354934813241835 -1.105900889454418
Ni 2.3878660822026814 5.302000554323849 2.5008766825014477 -0.11331237297261132 -0.20059489754036422 1.2780550151555858
Ni 2.3114518937969937 5.121678712676673 11.775360951031718 0.8258907859095195 0.15077231759128226 -1.1965279050143716
Ni 1.165420962947112 3.3984578207486473 3.981337464791156 -0.39428432621014675 -0.052632538594051294 -0.769624764327939
Ni 3.8618814068247977 3.0008075518053143 2.6718445616664463 -0.7958245626517585 -1.1138877643146365 0.13106841140445166
Ni 1.1503327531678884 3.24729378534149 8.366427783674446 -0.24697836990091016 0.6309656850604229 -0.5669277328429074
Ni 3.7427309328539677 2.5893969083014237 7.05793257591609 0.19067763842665225 0.6671393067675027 -0.13741595088903433
Ni 4.088659291601735 6.9843404920881555 6.062714622668978 -0.7459585310592508 0.8011783707645039 -1.153603851957336
Ni 1.014820802769799 7.363437447017254 11.310191170695406 0.2504385605353687 -0.5986014097971045 0.42040133501217275
P 0.24057463838458118 5.728999619504406 7.733204995320959 0.7131823650694943 -0.1586013267173978 1.6916174728690545
P 8.368153969458712 1.5763132050300164 8.116937550325083 1.4456135510662715 2.214218872990761 -1.1863777039542474
P 1.9356927164381037 3.2505042362468943 10.560417191285433 -1.2346992738777705 0.5399892565808506 -0.8172040567687991
P 4.0136456965088865 6.175788886300146 3.8270621113819066 -1.5828430969761127 0.06897009941181025 -0.6529625010464883
P 6.911000333161297 3.932447663411293 10.375165988758006 1.5045008123207833 0.3281038737283317 -0.5186401014811133
P 6.414762846612911 7.931669067750288 10.405515208790115 -0.4069647498912927 -1.5356571833189294 -0.3371477290981548
P 2.300656411574005 8.64496213874168 5.929164412385041 0.5789124160086093 -0.05059159690462255 -1.0481983925366272
P 7.016244916383223 3.704669354839471 1.540587161838488 0.04197634443178577 0.3233825569932624 -0.23289438100401824
Ni 5.383116734565497 2.913752492126757 0.22168027080390798 -0.19809604237791045 0.15877153374667496 0.5868219006636731
Ni 1.2106128341906088 1.1497506884145006 7.076767827545248 1.1442082696750486 -0.14258823911859314 -0.20913970178658173
Ni 7.165744610386161 0.6179172137679213 9.412866525743505 -2.74921401879113 -0.28391689479847226 0.6789905496791337
Ni 2.7688820318656044 1.7091058216583723 9.251336280868982 0.21992625087912449 -0.31512803029395403 0.7354874563245978
Ni 6.210776434835814 1.7988256465360335 2.4001112694520765 0.08251389953451596 -0.20606594795726446 0.8927068150928045
Ni 3.9617600806014304 6.7108337213283065 10.564064190755879 0.1737872904292168 0.9535483718602095 -0.640311130831065
Ni 8.089326763062429 6.980939051185546 13.565478363171364 2.122858835919525 0.32950563917186476 0.46235351107424244
Ni 7.890742639777711 4.1153433226398555 8.061962443843786 -0.6623596259906721 -1.275037568485501 0.5241088379051684
Ni 3.0763304535573774 8.500091678480528 12.431545284430177 0.20481382071771823 -0.5278747327055038 -0.2261246663803525
Ni 0.30748571021503646 4.920266118480963 10.205555957525519 -0.11340621823799825 -0.3411252256886641 -0.09330584794369738
Ni 8.503474929859596 2.1896912231976904 6.009510266304628 0.35775563515649356 1.4012306540755224 -0.8697134395214247
Ni 3.6769758052446933 2.7637071124175168 11.717657416018916 0.12768586808546398 1.401158148966374 -1.2103082466279156
Ni 1.1319522396273154 3.283572790048737 12.887104630002353 -0.8879675006356063 0.4140345122538805 0.34990811408761674
Ni 3.0154501182577254 8.781574555314144 8.007387506880443 0.9134293923521366 -1.0192225741295673 -0.08579462716831676
Ni 5.592878320067613 7.822541021251854 3.616160952229798 -0.42649767771789776 1.2232506657211966 -0.4515561633484223
Ni 3.0138130611388223 8.494471115705629 3.843155292336901 0.4816226437164996 -1.834058901997138 -1.1270304723441817
Ni 3.3683268749990587 4.466692159403546 9.208941048870276 -0.0008854879287468622 0.2095351374527875 0.5920906052617803
Ni 7.324966604723031 6.237524129206337 11.606110162889214 -0.027017923349740566 -0.7894222586698405 -1.5745577170388687
Ni 0.6675400529465827 -0.09592790926301258 0.31932254266088295 -1.056962254772186 -0.33465581591423654 -0.1857156664356866
Ni 4.677172231085625 0.059664365650777554 1.3333466442994824 -0.8323547963673085 0.26580501568910997 0.676453642189893
Ni 6.021250694275694 5.465869971926049 0.44107684692694615 0.11655504827962507 0.9782507597028959 -0.8656534105194381
Ni 8.208195299418335 8.699485235562927 11.36122642637721 -0.23557578449092334 0.5760466644250403 1.149053513582492
Ni 0.16004234184867502 4.555775350957189 5.8965924325759325 -0.7733220106738682 0.6890610465412584 -0.37742020346495647
Ni 7.781387224234984 8.831504797440688 2.6946860558560304 0.7157233863237932 0.2571218860928152 -0.2512646559810899
P 8.576696856883423 1.6013419894256904 3.8761529069969245 -0.3243552053191769 -0.004616415726088824 -1.063310308477401
P 1.8579779770990652 3.2317235531883677 1.7475211859057878 -0.07702767960896412 -0.10466780992373588 -0.3203743662945579
P 4.760698523196769 1.1459217937086217 8.297076587260648 0.8926209402472175 -0.3557334625201422 -0.09846116689239172
P 8.728415672758652 1.437927309912075 12.523551532417239 -2.159105476956385 1.251511974559735 0.42152413576270625
P 6.524081883108551 7.814028324233559 1.2435913498509117 -1.76141803860196 0.22592129212029477 1.6125367673858035
P 1.9207954966560856 3.1909517361659088 6.129430157121343 -1.0360926104120285 -0.4754841349189295 -0.19780319372783997
P 6.7810907560145655 4.0663953147846525 5.917198434322037 0.8920149312321025 -0.18719970718038081 0.5352964790908716
P 2.403781915303128 8.656166885244396 10.17704387937129 0.12525386160520366 -0.09257488331494379 0.6016671932066219
