# total energy = -340897.62200101634 ev
CRYSTAL
PRIMVEC
9.02782076401200 0.00000000000000 0.00000000000000
0.00000000000000 9.02782076401200 0.00000000000000
0.00000000000000 0.00000000000000 13.21312823424492
PRIMCOORD
 96 1
Ni 6.225332482504851 1.9791601381828963 11.49620131347936 0.7633003647718081 0.536906761000785 -0.7316768243292561
Ni 4.684175128735602 0.2947059895491477 6.098453682646939 0.0006553741958117746 0.23316074729152747 -0.28103365971340627
Ni 2.772886147739297 1.461586140754802 4.89083910096222 0.191670855577857 0.3698958700634533 -0.2782033893534628
Ni 3.4847027386798515 4.30701985688349 4.950866887390136 0.19153792954441853 -0.16951977340211452 -0.27913181470500315
Ni 5.092918745758755 4.402985592570302 2.8297496829575968 0.39938848020593154 -0.2264331987597068 -0.5257101209540171
Ni 7.247660971747185 5.973988922085609 2.6817493934277317 -0.29470061567753764 0.17353377965751404 -0.35515547852948515
Ni 4.997070371743056 4.565332895002659 11.396032224402541 0.5918895449945677 -0.0652150032447522 0.25059925448294906
Ni 5.509236704479108 8.06417320114117 12.647579793495193 0.48372323499927017 -1.1748182812514216 -0.8068288841820621
Ni 1.97217260484126 6.513635941503756 0.372681986618546 -0.5396827810840253 -0.06697492335865239 -0.06053919503563768
Ni 2.7538013344521928 1.43453878947374 0.6090556144963137 0.27204225484807343 0.45687886111291637 -0.9822825065701084
Ni 0.7690096416200553 8.89575286354186 4.561713641621958 -0.2729760795162524 0.24520508005057123 0.5577524941015426
Ni 8.641836374178993 2.3805189977468006 1.2856113427420843 -0.36177735472137695 0.5176371141378956 0.316529538627171
Ni 6.833274966689764 0.5720857853137111 4.749987942767293 0.5291834242145983 0.2828144057629129 -0.26751917016673926
Ni 0.5561589037616251 7.292890354229868 2.2708607661694717 -0.04412013024766595 0.39399893375924405 0.6458888820291586
Ni 7.7280584028951 3.812322357501528 3.9025102878412508 -0.6367876910588388 0.2052164554727756 -0.4144497454144282
Ni 7.5661624915054855 3.808873729934984 12.509780038749197 0.41590319003150306 0.47162850861826516 0.2568282661117964
Ni 7.860117366359511 8.796374611571924 6.908708729406444 0.7114427566705683 -0.8864826885599636 0.282518728899365
Ni 6.814388765461466 0.8183873077855323 0.45651252551229976 0.9150479017921661 0.4933052222607504 -1.3126548646176426
Ni 1.947472486982453 6.439165447272286 9.345579384929076 -0.6786398512079345 0.8070186315953649 -1.2578132341874144
Ni 0.00572093007570395 5.1135202329494716 1.2667594472330344 -0.19856526870484512 -1.4222514793015635 -0.47054453152546705
Ni 6.663524851156451 1.8626741656930619 6.768306253908001 -0.7030938704852406 0.5377824787375189 1.4407677929381961
Ni 3.2704906054365135 4.290733668061382 0.47245565714192445 0.337875865513431 0.18814330204057275 -0.4950016361265669
Ni 5.934663734441982 5.652887389921118 4.759950143080594 0.4240821262978696 -0.11525278452843375 0.736593544904583
Ni 5.195926181712333 2.9914858019180812 9.236267821672572 0.8622652107734956 -0.8147052016063452 0.31762071480882076
P 0.21746034318690485 5.541781998660761 12.316578352981297 0.22043558641537522 0.09717458687048425 -0.1219818757221512
P 3.9439570133857624 6.213117840888271 12.565566554939513 0.33915653199806756 -0.6327988816144199 1.1907526930934913
P 2.2268835424393525 8.478568234019445 1.451898386195487 0.9292532467582706 -0.557597199470601 -0.30524548107291943
P 6.379645024376411 7.726478534245506 5.686719148574583 -1.0439221337587763 -0.9244475978395111 0.49200372984050755
P 4.68826473158284 1.1076684797830143 12.73472083429641 -0.4896280305194794 -0.3146287220600324 0.07923420034197967
P 3.976168278195786 6.261434738103305 8.251479719890867 -0.025933946256942432 -0.6267760724591076 -0.9769405255319047
P 4.673666745260585 1.0125964983608298 3.7376640845962785 -0.056607721191715414 0.27713123933520656 0.5515137122806824
P 0.3265669749100036 5.518427026109323 3.5445933022307745 -0.8745923648802808 -0.36147345032771294 0.2567303070813514
Ni 1.3553016058309224 1.1143219837530218 2.5774582013485983 -0.07203562571101142 0.1857992272884284 0.25689537190430595
Ni 1.8615366602653534 6.507975497827779 4.73266536011105 0.7441800990025894 -0.4700357102098485 -0.31191389423203053
Ni 5.965394436631814 5.674472909585009 9.27071437492625 -0.40276639553922894 -0.8428844922540386 -0.7000088038020138
Ni 8.603964665692992 2.3123770059345654 10.107712535404008 0.21156682317083564 -0.07568273554529546 0.4232747999052259
Ni 2.304351273194624 5.322360812784188 6.9138356288699 0.11927733230679458 -0.4560419670339178 1.0710087055629234
Ni 0.5111507028898845 8.892674376630364 8.974105320740906 0.48589684561182117 -0.11107397056039582 0.745963159044941
Ni 1.6052097427342469 1.1514714665706354 11.357780444658554 -0.7127177667282499 -0.3384183682804623 0.011852014242579588
Ni 4.120432855455923 6.816167246169867 1.6567279052244033 -0.10185270907244395 0.3575329776227262 -0.23199886577294238
Ni 5.65908047502753 7.803323345361795 8.028125112467844 -0.3990560365671772 0.6922792963682399 -0.07431259467064621
Ni 5.374207587953459 2.7703132187956716 4.966009251309938 -0.39715959087541275 0.14466517625227987 -0.5248387740926574
Ni 0.8151264588927687 7.375052551829651 6.766231660675562 -0.696132351565743 0.02552231264082056 0.7471042146279198
Ni 5.083647173740848 4.475722745197644 7.18347587381562 0.5923885961181733 1.171779751535414 -0.4507118130702561
Ni 7.953735868624069 7.078768499195078 9.106514563654484 0.5045987928966987 0.5430198158770584 0.2514510609602831
Ni 4.482881807135522 0.5188947676191552 10.540007028691148 -0.017889221575595 -0.8002998248142926 -0.702490689683603
Ni 8.2769679665103 7.158204294896702 4.712673250828035 -0.49608587032968116 -0.11872454512711811 -0.10594539108457883
Ni 7.257383934807834 6.1508258769899635 6.966001086115348 -0.2485827382735525 -0.4950885394134183 -0.10807555005370419
Ni 2.2563864609929274 5.042065030883514 2.5477160455423697 0.2283193600388261 0.5759949852514983 0.5274196474459563
Ni 2.310670747793003 5.330215016927887 11.35817676599408 -0.12580587745393174 -0.9833847384953516 0.7630257709541827
Ni 1.0703564961900138 3.2873184635099113 3.895560671347205 0.6615839241669123 0.0708464904989167 -0.43569785615992707
Ni 3.567063548338439 2.6718016376277975 2.687405323193281 -0.30873575361436506 -0.47404945935493203 0.16230962880692046
Ni 1.0754752706147008 3.2094535086370275 8.252734586989687 -0.2134506704571098 0.9676346747499464 -1.1684637997883038
Ni 3.734303929674112 2.6639835447675178 6.995466087821333 -0.4470004256569398 -0.5452659315987577 -0.23918792732221386
Ni 4.130887072005813 6.893662060387704 5.9761790714249905 0.2945862015868604 -0.2778411209180376 0.05438320273657085
Ni 0.7949095568704687 7.520472690159206 11.489435864530753 0.703812236708504 -0.27778095710406353 -0.4935785305267952
P 0.23348291964005205 5.625849066460911 8.00352249507427 0.2898659132930556 -0.2360010449538 0.602241577652853
P 8.578406904852978 1.5605852242488363 7.917293264179389 -0.17386673751690057 0.4712492709019755 0.32844711600036336
P 1.913266073763513 3.1071773261726907 10.24884265326335 -0.8360319881085795 0.6605986774355074 1.3045443196953663
P 3.9750127171263676 6.021258592081484 3.7196274013104196 -0.469870645386894 1.2932947149234757 0.29157929643973657
P 6.908675326469281 3.861731621039997 10.299210671376601 -0.14482869841333768 0.8914796275539228 0.3943501464510757
P 6.131280644839262 7.876818834940942 10.308274603514848 0.7653215089668949 -0.27796093432535357 0.007421232164735607
P 2.5142210246067904 8.396776177074711 5.8989875919878765 -0.31465314754006457 0.7560637378140527 -1.6534970118482493
P 6.851691721233612 3.9047582152341027 1.60839475793183 1.4748071419110924 0.40395733052353655 0.29066886881032516
Ni 5.224463123434441 2.915715301483517 0.6547174295979438 -0.4001610967058979 -0.2492543104192804 -0.3847146802438407
Ni 1.4955126915272425 1.001835335901876 7.010991231345379 -0.481207667666268 0.6783534303157673 -0.9645614351412615
Ni 6.915274663514159 0.7567399302962597 9.207396850578833 -1.2091401944617433 -0.0074824244199742105 -0.6523328378822894
Ni 2.7379033419268417 1.594385385529309 8.969864050503308 1.110618092424429 -0.9678424198853783 0.8616252631966517
Ni 6.509022725046939 1.9175181773861365 2.766656951349466 -0.2777053666711217 1.1144315526332484 -0.6220254451479997
Ni 4.16183444189616 6.746030105948716 10.468219602817735 0.09377353160873528 1.6528051279875469 -0.06942878421578365
Ni 7.991390909409553 7.198332958596409 -0.036782953290907645 -0.014712366509510145 0.2796624903974926 1.1936600965482733
Ni 7.640768403049778 3.8786768407845074 8.141454056004745 0.27940820829484136 0.017710529905885626 0.29802813738887385
Ni 3.1461504288029793 8.36047530941745 12.45612137993436 -0.6150994074521278 0.25111244667394167 -0.1927257792049326
Ni 0.13013062092982014 4.763764397391759 10.182829421608682 -0.2175425811382963 -0.01792650257143364 -0.1994499853026436
Ni 8.777416187776787 2.537891970888147 5.793164378709679 0.21420451790399883 -0.7747919103511752 0.5393655069539227
Ni 3.5655920135391024 2.7123365532659713 11.620734685479187 0.012016564844901885 -0.008414192205624218 0.1905521685923815
Ni 1.1675409876922278 3.3831668375256108 12.483102828123181 -0.7544200315630427 -0.053069626131469885 0.1694902057157597
Ni 3.000649040085731 8.33986479440588 7.946560556608652 1.1448721285112928 -0.4947926054395543 1.1309760872554908
Ni 5.47207819384064 7.926589211313604 3.5666988243759046 0.21547155754188055 -0.9845833867891431 0.4371171051049569
Ni 2.983875348937462 8.34459537253381 3.57543324105295 0.7771185016018229 -0.062315827320086226 -0.49111952746334125
Ni 3.420189930851257 4.377626443789093 9.305306276095692 -0.43792545993886517 0.4307705940616388 -0.5138550213876442
Ni 7.168586288879753 6.068654651569326 11.28213543093387 0.20296596887570206 -0.17708010224787565 0.2402852741514507
Ni 0.4291293392954381 9.095619789446877 0.35934247852345347 -0.1680493595041751 0.2357652747939101 -0.5607506574979181
Ni 4.91540470429029 0.27798556254392237 1.6721609649757303 -1.63716742145029 0.3091342746043644 -0.19589800628532716
Ni 5.950155475028866 5.54211602803239 0.39100124069716125 -0.22670599280511922 0.34651785745914515 -0.005097726237881543
Ni 7.9898561798642325 8.85714990156662 11.08843089554436 -0.30202388881182823 0.49089018506135457 1.065211896375488
Ni 0.07528570645465985 5.00418429457666 5.811899815329701 0.04985189052512059 -0.5002096626900675 -0.204405529535706
Ni 7.791424677475132 8.925012030932356 2.348858430008922 1.362930472943743 -0.37714612386796337 1.05174394379604
P 8.547748425229985 1.5221357352281277 3.714170986385762 -0.19881080905674792 0.8697309230229214 0.27876594672515215
P 1.662184320149061 3.1469177935756396 1.5936748960280342 0.35132530615011753 0.1787988847111953 -0.4335586983297372
P 4.982598774912768 1.1806764670360013 8.1269860703028 -0.6871329762806102 -1.0433932578385 0.11619123718230312
P 8.37614760642143 1.7313374278970368 12.317859400760597 0.7604197007899033 -0.9282870261902593 0.16616345533537188
P 6.379581829630427 7.636200325697235 1.445449813758884 -0.4988639472954505 -0.9477919289924063 -0.21814036262329528
P 1.8704290638073584 3.2736413149148484 6.025675002043666 -0.3267699854082566 -0.26623670390988985 0.06029519734563165
P 6.97085895651733 3.9874620820851745 6.043196196758714 -0.5744212130064752 0.5708322101036363 -0.8028220770155141
P 2.4384053850679517 8.499846807774272 10.182670531961639 -0.4026249848653582 0.074862039416213 0.2255770214069986
