# total energy = -340864.4719998379 ev
CRYSTAL
PRIMVEC
9.34761740997759 0.00000000000000 0.00000000000000
0.00000000000000 9.34761740997759 0.00000000000000
0.00000000000000 0.00000000000000 13.68118295115326
PRIMCOORD
 96 1
Ni 8.097532533179704 8.92323562616762 9.110805852857586 1.0049349538623016 -0.4553559967104867 -0.668619490857455
Ni 3.639747243254001 1.351001803702472 11.155786928603844 0.0024633739388280154 2.2180125357052383 -2.231456577025286
Ni 7.460520446215065 3.813893356511389 3.5689007157720325 0.4714179352693558 0.18791395963858604 0.3870160746835076
Ni 6.712879306625563 1.6431709349946313 2.6417684952622023 0.3522082229757031 1.1069475855513773 -0.04719696940077678
Ni 8.611034550661259 8.029855782778013 2.02198313251238 -0.5682140557544988 0.14686295523454707 -0.8328075676340109
Ni 8.564726453770378 6.533423746651578 7.873808526444348 1.2728305335318528 -0.8143547602454619 1.1019830424572505
Ni 5.227140944871991 3.778727619631395 4.130800957408255 -0.1794192919040136 -0.4469531173587722 -0.2901744456724099
Ni 1.735600176427216 5.932390639285848 1.4874321500371062 0.525707806961172 -0.7919900193970166 0.18341504332696798
Ni 0.6059303241523935 6.561466599027969 6.115817067156329 1.4717519000245365 0.6679970267821076 -0.78403091245094
Ni 4.617694981793344 5.832258961067215 3.3260729832361333 0.28488260114585134 0.6240265347384285 -0.031106748707133525
Ni 3.4586184597548915 9.408190019930009 1.3973276610665242 -0.6405065346713228 -1.1321292270233276 -0.020722063038699792
Ni 1.7164282130192234 4.838298753820952 9.733230982777773 -0.24960012379447336 1.4494385812393165 -0.3759153367846558
Ni 5.575694904675613 8.87568429615472 2.345966879825555 0.1499984155397352 -0.2358436934403293 -0.5521642013804878
Ni 6.978632070979161 5.446651045656921 12.599439512272674 0.5226651634801063 1.2444555819335856 -0.16145807943990256
Ni 2.556601417833357 3.5024774808715673 6.168407697741267 2.18871121563796 1.5156267470306155 0.39176618777398337
Ni 3.1741517652487805 6.041262339828457 7.553161878563964 -0.8107991816837198 -0.06428117857657316 -0.18192277505215768
Ni 4.3371636342373865 1.901426910146275 2.758961444866632 -0.8976541317957507 -0.1518267269977256 -0.09111655360186244
Ni 1.9406027749160932 0.017763277456951946 9.787996803945372 -0.8462390105485684 0.9409090858296442 0.5426626896479557
Ni 0.605435835188823 2.6387576276787237 6.066934636417297 -3.3131662139454807 -1.173185116523373 0.9019823268574595
Ni 1.5956943859214012 8.248010479031418 2.5113449279065914 1.075651089430941 -0.4217627341360736 -0.7203323458507143
Ni 1.8012858843101827 1.8957622539662438 1.1422648320388056 0.34883673540030885 -0.5097152881876577 -0.7865516219902647
Ni 2.9629984344720155 3.71442535913233 1.8000604116613341 0.6687184783291644 -0.15040362139795385 -2.180600670715683
Ni 2.513770634637149 1.0599356912704512 6.837951362986012 -0.5375526221149001 0.8998154011131277 -0.8462392676588846
Ni 5.997870699584721 0.5669068255471537 8.861835800889512 1.088143565470997 -0.41410136093607386 0.94002539767311
P 0.9536906712337644 5.08386066446355 12.404755748696564 -0.7001250176649039 0.53044249343268 -1.0480672662754014
P 2.9276457452428453 0.41898919211740393 3.6253491080822156 1.2456292905267128 0.43743489345569175 -1.4597021679488538
P 7.100983035897356 6.8984855988874365 0.7514119684723806 -0.030704885283024536 0.262963946695889 0.46638602927240325
P 0.9241914600572927 9.315685997557754 0.6728966556272152 -0.9468737880535112 -1.1110901469648413 0.5548684876855283
P 9.122433354214584 0.4920754087425001 10.819284851989849 0.2023998119595869 0.24353309166478707 0.8125917548077682
P 0.9073610748227287 4.635390021642846 7.224609015836929 -0.04118727287158713 0.4558275370302666 -0.12696595920030393
P 3.657984444916114 5.324608552114866 5.45719141910346 0.9673091730897275 0.18301703655760093 0.5175676943525409
P 3.7204265295408776 6.978370337690315 1.8374106867414495 -0.7591596031305571 1.3373467109373678 -0.963728911937637
Ni 1.7700181039105065 2.223770150595431 4.085776288394467 0.9826306339381464 0.07207624914095975 -0.659166315864355
Ni 8.715316571031599 5.20034132561762 2.1762384505791936 -0.1350325382585223 1.7341175510147941 -0.2002776234102615
Ni 3.8735031130461373 0.7898362847985116 8.686552082587388 -1.725141829878745 1.1381890600641624 0.23795174092226765
Ni 0.641654113794678 4.775622978759719 4.5294562772675375 -0.7062977221345191 -0.5854409611557466 -0.48021033675000524
Ni 8.419053183292485 4.005827985792868 8.572397108657066 1.7064882193333 0.31399288824824634 0.1731972222537017
Ni 4.2079141276346 4.532239062985021 10.809570807926669 -1.4301596784050465 -2.240175702065839 -1.6285267150561566
Ni 7.758989871674452 2.0251239319785355 9.6573825451936 0.03629703465882136 -1.3922634175799053 0.9295100999640831
Ni 5.701812959429702 6.432039487693465 10.555347394946748 0.3789502669562377 -0.20184985299338784 0.5359821923039866
Ni 3.8022181823053516 8.591077387386727 11.89853832950065 -0.811317516081035 -0.5328025090244244 -0.8479475085992428
Ni 7.782658039080127 8.870645930344427 12.958460934106657 0.09076431246876626 0.48246133756771103 1.107748484186118
Ni 8.271968422578315 8.318426081348536 5.968635091220587 -1.3789047368848124 -0.44336180046308804 -1.6887203538269173
Ni 6.248985094997844 5.727528255058853 8.251271862762794 -1.4282184955182757 -1.522044220521185 -0.38113441909175005
Ni 2.86396977511352 7.159723464008436 4.593662257306776 0.28288948197522246 -0.9243164715782856 0.10433408073340097
Ni 8.326455684745643 2.1884828946884722 12.462599740293346 0.5576519639679364 -1.8324385927848958 -0.07822555657180723
Ni 1.0321545721829064 7.462137584035436 11.175009369146114 1.1707834490604159 -1.010006711958254 0.8606819254467757
Ni 7.990633179920901 4.425021890732619 6.3483016609740694 0.27059652354048236 0.3086424225696104 -1.2797210900040994
Ni 6.611008971559593 7.043710183727306 3.3922354196094986 1.400808478936439 -0.2442681700585987 0.5405320164581982
Ni 7.3705496281741425 3.684391464237215 0.3767099183512651 -0.8394777805653347 0.16013678952531776 1.2647202457198927
Ni 4.050696549595093 3.921419000139931 8.356014720673851 -0.7413513713045425 -0.8171600909047411 0.8793586759206727
Ni 3.5964023410975594 6.181682249294505 12.153501139021559 -1.0689240551197527 0.36072911596252066 0.42678512705132954
Ni 5.240050004582589 7.1635372919316245 6.097169505087775 0.004859384974830341 -1.646832712454196 -1.4926032895522487
Ni 8.573737557000658 4.002752619648923 11.132296365929887 0.08616075225848388 1.367099259609452 -0.26433254490864155
Ni 4.659394703277037 8.907110986051196 4.599805511500698 -0.4189756583092397 -0.24596586947599575 -0.4621339388642686
Ni 8.804464798736145 1.5816355692633706 3.9911980297081047 -0.5242409926076584 -0.0025160815536343765 0.26714147511234637
P 9.496338052566465 7.570841027463787 3.9773392520636923 -0.8750829313634542 -1.537583453807365 0.9155430962610297
P 8.429485124376503 1.5359163722723945 7.407812970411892 -0.4472611355174942 0.5678633572832994 0.3256397284585553
P 5.745400899640073 8.530785254777486 10.93368660302108 1.2017071352224657 0.9764923822508925 -0.2223034928620494
P 5.048545365704215 1.9103258419670495 7.097702022169318 -0.4726201831075731 1.0308599012581796 1.5347218159888538
P 5.638221117857507 3.4765565376583227 1.9627986925720067 -0.3437973732041885 1.7198024199437025 -0.3080320426791211
P 3.5398772983242135 1.1683400109401199 13.174240400763782 -1.5573197558940277 0.5042992593784089 1.6124028129111005
P 6.819002807635285 5.902721301471627 5.326221016126509 0.10442021268930404 -0.8532966887262982 -1.0598837992943553
P 0.6460858192318937 3.4944104870046253 2.5963605739326043 0.272265426602473 -0.508426394172905 1.3999996098818985
Ni 1.48357906212059 0.2337960645472095 12.264209646394821 -0.36313798251432944 -0.10976939281635933 -0.019198170195005648
Ni 0.6263959978166836 2.4298196822396934 9.592629729533025 0.3316139437641192 -0.7820907580054337 -0.1547690974555012
Ni 5.4094662234058255 4.265775879704554 6.42238526838202 -0.02420616493255831 0.5687578440731108 -0.5133035197595481
Ni 2.644403588623837 4.081739987175759 13.095669002213864 1.5871273261737635 0.4827529006662009 0.5601878430159126
Ni 5.110688326570298 2.70739718267867 13.296700732806245 -0.12431618028228267 0.7262327704955494 0.39676595498141987
Ni 4.432210208558435 5.232459739206046 0.6172521584184884 0.7814574952968091 0.0682275648188309 0.47704222343466873
Ni 1.40105829519433 7.376924703281043 8.811680224652589 0.5545190747659096 -0.8723879010297944 -0.797353083481143
Ni 9.159702305022808 6.454352250567614 -0.08684590952444533 -0.07922211615712162 0.5241034385885296 -0.10406051535704015
Ni 0.38267743733696113 3.791234731791265 0.5227365287691002 0.5651207615411559 0.28762416844673044 -1.7288719863451385
Ni 6.902224645870954 2.3461211155136246 5.54431308334294 0.1924334447754944 -0.7071942658068594 0.3875578061195906
Ni 6.215408453085845 1.1896245358938005 11.603133987806002 -0.03181225941459038 0.49557627768311424 -0.8568481535229824
Ni 2.8401333505935877 4.3975772858735915 3.7463596246568183 -1.004769889039347 0.42860752497204896 2.2925994670831935
Ni 1.4896737087037257 8.995698356708214 4.782257917631973 -2.0394463358301396 1.175132727168047 2.882892871235235
Ni 2.3591797371035645 7.608783006729043 13.488278283100797 -0.8101872591313337 0.3843539544703123 1.605679635254654
Ni 4.233835070847844 1.9289836864148084 5.226047273629311 -0.69129173564399 -0.3212225732274661 -0.7491958070496259
Ni 8.76277442486991 1.6402918688173218 1.4834921292782233 1.735052661234554 -0.256827494780848 0.26154418353022696
Ni 8.119265743771408 7.564746380880652 11.083714928473027 -1.3341657421062247 -0.9809609595452075 -0.5627193511885148
Ni 6.282365436943207 3.1212442504319897 8.377412351798782 -0.6550880320299235 0.049258222805179684 -0.34313120037509937
Ni 0.43868742638832686 9.14887776400552 7.365401895239584 1.5423428228692213 0.36588443491121503 0.5063695116438762
Ni 6.03618658354833 0.11745094384629258 6.457176165801917 1.1573288662174068 -0.07539425777059919 -0.0914004033908684
Ni 4.64903754313269 7.940511255106832 8.084854359620337 -0.16210136945085632 -0.09741575634701288 2.2767900108547625
Ni 1.4768674727851738 2.5557881751144413 12.005183427564573 -0.7112650934421234 0.1655728729392245 -0.9072209495485796
Ni 5.357100870401645 0.14848129476251512 13.58059909217086 0.8576760487409164 1.3648500585639591 0.6662671885751944
Ni 5.352427061672247 7.350938326745587 13.113509864895725 1.4592475969099385 -1.7539911500102696 0.6470319944946663
P 6.648464874716992 0.3797544373575953 4.253179030417079 0.861674114156716 -1.2248128680019938 1.7272658182002834
P 6.960591169283683 1.5051159727456582 0.520654814361026 -0.9645336672271196 -1.1921251479609856 -2.3571197582537664
P 7.78590166233833 5.659215866669965 9.757789043365525 0.09467650303897888 0.7831968465854189 1.8056194157095224
P 3.4907649161956944 6.467934338735247 9.987304833878351 -1.1733116147989082 0.21670028774265906 -1.340092649113621
P 5.977455503054708 3.89018861021009 11.596403703235667 1.7078992407482134 -1.5104115213782632 0.1685422399801936
P 2.7145761528870263 8.343094443822302 7.149567277639453 -0.8690403247138 -0.6346847857832231 0.08909412385519494
P 2.600441743715115 2.977075946364964 9.904341924646289 2.210944573114863 -1.4546172972267786 0.27976224920015047
P 6.872218793828216 7.62326246617272 7.681860810498428 -1.5674262482004102 3.1114829684369445 -0.9681447816171456
