# total energy = -381173.13809714984 ev
CRYSTAL
PRIMVEC
9.18875660340755 0.00000000000000 0.00000000000000

0.00000000000000 9.18875660340755 0.00000000000000

0.00000000000000 0.00000000000000 13.44867410284614

PRIMCOORD
 96 1
Ni 3.11550297101888 1.1529132584993005 8.214933784539703 -1.2774749742823999 1.5424502949813628 -2.6180561329966654
Ni 4.798680980625837 0.5558967869296361 1.39271774606614 -1.9798147402104354 -1.1595351298401062 0.12348442840960669
Ni 1.1024577974136254 7.659048942993314 5.490461096372622 -0.1769698019222565 1.028799676295041 -0.02893725185964049
Ni 2.3972546426227987 7.978799286256713 7.660593572934764 0.4356788299965335 0.03830429489683725 -0.34729741593764707
Ni 8.00096256655878 6.173870255089895 2.0959351068344763 -2.6900673332276446 1.4765223248299861 -0.5878454568321811
Ni 0.6223719258256857 2.198970469472592 3.1479980889542984 0.7398071667458743 0.6797431115744422 0.7477696161260605
Ni 1.8719885749663545 9.36361837736943 12.83568276844197 0.03666213130772395 -1.5229531054886996 -0.15423559354953437
Ni -0.005012466585728608 4.295412795657265 2.0246303576039466 0.8491057905734022 -1.6837522111883645 0.007447457416980724
Ni 3.6686017816417253 5.654429858955636 1.495412205843888 -0.3758415461239269 1.2122915956065314 -0.709994454259816
Ni 4.274848358959079 0.3499363267295347 11.805030507479628 -0.12381738626899322 0.28445425535918106 0.40996342750830045
Ni 1.7489786937873466 7.759803656306814 10.179717772074262 0.2456881903345769 1.6419633001770368 -0.14677039552074078
Ni 2.6169578068111963 3.844079461545775 2.698893028256262 -2.445648239413478 -0.18283371690220127 1.7556960485165183
Ni 0.4195117520160972 -0.05606427795813846 8.574363015448368 0.8724598919183103 1.1888822155436556 -0.30186268064361566
Ni 6.601560919127912 3.4031937433975727 1.573723381786825 1.469048127940128 0.9296057450016829 1.796294538764171
Ni 5.269751763364541 7.422695752309333 2.14644845708512 -1.2618408672895687 0.3945553204833463 0.9714003124399658
Ni 0.49932896512383873 2.502419958981486 9.36971787383067 -1.5828970901424997 -2.6293828708633944 0.8979297540546408
Ni 8.736844118379265 5.428634549311072 13.342294741844173 -0.1382405036728587 1.4826148108809691 -0.6453990868769336
Ni 2.524491351720111 5.561779628737668 7.8437236491222135 -0.9116537885089525 -0.6732215084058406 0.5689177666897427
Ni 4.847620296914729 7.979442499200803 6.533473153493465 -0.5851684242206503 -1.2700696829572642 -1.3494702336737792
Ni 7.259880178647508 2.0801139061611353 11.292770205552682 -0.747256423935068 0.2815234548656313 -0.08693131187592125
Ni 6.924628403431544 1.4670308941237413 5.765365714298444 -0.46784513031643293 -0.02062153290509352 -0.2745611646151852
Ni 3.736368859679761 8.772845665735607 9.424386379700133 1.7082077731275678 -2.084830677502209 1.945827070411081
Ni 0.3479276645927056 4.557255596439891 8.669794682211707 0.28283985968420966 1.851526462654282 0.2716157088336161
Ni 5.801734811908552 5.062683139149336 10.649062906371537 -0.287197365321957 -0.24190635469464142 0.35686089125636605
P 1.6584694437975633 0.3853507125554863 6.297099747545528 1.8488232047905064 0.4158983049354966 1.3646274010301918
Ni 1.2582899162539032 3.353822555560506 6.7885815147514705 -0.2968806540479919 -0.8411723946589384 0.8205017536834643
P 1.2580693861016439 6.132686249155457 1.4558729872950515 1.8956257669663419 -3.233885476636282 1.2317049671361369
Ni 8.575774408422827 0.5660338229284918 13.43721551375478 -0.1805847729670245 -1.0239611172558172 -2.112995827082516
P 4.908266088786055 7.232019869412074 4.4204579863665 -0.9834078784238031 -1.3719653294525018 -0.6699101846444204
P 3.1053861502839815 1.6043109139051996 2.0112763380090075 -1.2477766758870186 0.5570858070518212 0.7480611792245504
P 8.158191376363366 1.9189982524229772 1.4388471406649939 0.24654128236349154 0.6142270321495035 1.7917274882187786
Ni 2.6506805425941917 6.5093149941890855 3.4147394157439854 0.446538912639489 0.2589481406682766 0.16923232406868274
Ni 5.904988866947657 2.6946763079699365 7.444674338608883 -0.14200408448034896 0.8073027384946871 0.9535982512615384
Ni 8.241276111227084 3.249245319607844 12.993839642637315 0.16248677781473306 -0.6782516146305804 1.3645242997934242
Ni 0.687097525513811 5.393689708934306 5.910113436360784 0.17481316059056992 0.15123177372620408 -0.8235631662176075
Ni 4.791320786794181 1.4807221410765108 3.5207418278056237 -0.6484175619882833 2.5486967685662365 -1.19496467429231
Ni 3.21011040633815 6.382739875548551 5.780052103563283 -0.29872464923526615 -0.23522277202687875 -0.7714713306183746
Ni 0.3238393398365414 6.4362092487151035 3.708082192149959 -0.3580600537707898 0.17279098795421854 0.2448818923831976
Ni 1.6089696133716789 6.790316351949244 12.589303725710897 1.761341933948386 -0.7899645043265555 0.5519101763881528
Ni 8.583805381467608 7.407001356473541 9.934925627563823 -0.44303758435444995 0.40133197708554746 -2.4670444457010676
Ni 2.3654615456720727 8.578347260199187 1.936044314316992 0.8853884270545204 0.49060067884539377 -0.39256271553334976
Ni 6.036470781475963 9.08117438486324 4.358217945269465 0.47505656046320766 -2.5013936126048986 0.05208052274532322
Ni 4.653278100236159 7.1976906757103665 11.306824408381043 2.6926245524318597 2.011249304570633 1.8618460994127357
Ni 6.314880909947074 8.01560944417134 9.292643504491654 -1.057249704105618 0.855049923971979 0.017242589130531595
Ni 7.082583124987319 6.25821384957276 5.102843517627036 0.2097948188720774 0.9768819043798272 -0.6733665186241371
Ni 7.467261220578415 0.896614953294729 9.352046057629618 0.6422104047363068 -0.21309225867642656 -0.957234819572861
Ni 8.375854636643366 2.1100049305486244 7.264220028268846 0.9766042252384084 0.45672459492323925 1.2238862424226664
Ni 6.6411736477275 -0.34836413051905224 11.51926018517686 1.032226699698719 0.7340430105685873 -1.2882286132544782
Ni 5.166892824848232 5.27964805394718 6.646509558536543 0.5054999645547295 0.46480222972505114 -0.3006743167624693
Ni 7.872448620329631 4.864463287293538 7.0340462762263005 0.161944789268334 -0.2954701468537105 -0.03103964291462396
Ni 3.3125099070372506 5.974051559630216 10.4200322356182 -2.714858938350028 -2.7387737972944124 -1.4356556685226114
Ni 7.130649509423518 5.9193325156008605 9.018465717192655 0.7941242921312002 -1.66783142619305 -0.09105947511168189
Ni 5.639323543525869 5.387854848655778 3.1460344517235552 -0.03357475063165185 0.12004943458612873 -0.23122959170708565
Ni 4.586641239228452 6.425890275340634 8.499803608720745 0.3422943062961008 0.6512984830805041 1.1580246067328508
Ni 0.11385971761151298 0.5362080387110464 10.987270704503409 -1.8789174530727255 -0.30323513551111003 -0.061580234705642334
Ni 0.24194822442192743 6.8001666987501626 7.72581904096801 -0.37472954400667075 0.38850422919325994 0.39724006640436105
P 6.659541971659437 6.862420522981714 7.22127913212141 0.212657228021537 0.5178237762274049 0.02214671130036831
Ni 6.244880964117411 1.4979602479781182 13.590288249064912 0.9309069803116097 0.7983092767468252 -2.1147727164772805
P 7.530507430495133 4.4781587818295305 3.4944629035370167 0.42093843846256546 -0.4486179066557048 0.7560233714944206
Ni 0.07891120173220924 0.08884240958895623 2.45973542913605 -0.3327156614687302 0.43127890115662504 2.0959301298494806
P 5.686425108545933 3.6208294374085392 13.05920018538882 -0.7111853892441237 -0.1868919461319749 -1.6764680188221257
P 6.926916403761236 6.430843015010127 11.96493508313163 -0.03909208090545526 0.46345882832327917 0.4086583355436317
P 8.080031814900106 8.298402609418606 4.174508977432334 1.3494848889617985 -0.09491407297108169 -0.4525306114465497
Ni 5.830458864240334 8.140117092634442 13.472746596786301 -0.6976742421315661 -1.1467983989997281 -0.7021531038385262
Ni 5.462991309281814 0.42824842154810594 7.713620966921163 1.0246573719918934 0.8521492053854163 1.6034476606003418
Ni 8.331132959516433 4.583103568035958 10.892605380019171 0.705201917967179 0.6971371386811736 0.8087497553538588
Ni 2.416569408458182 2.150233305823271 5.026212965219442 0.12825228211189527 -1.1798887537957936 -0.3787090974797091
Ni 3.630183591366874 3.581823166727663 6.792777100898205 -0.09669070525553024 -1.0661025265105577 -0.49548063264551445
Ni 6.470547631173156 3.8947554527837096 5.5253333455742695 0.3371587848417484 -1.6047812918101008 -2.5010087184616543
Ni 4.670552962163143 1.3225009455867565 5.818179010262025 -1.6915663079161447 0.6988808608451577 0.22346151772589257
Ni 6.120933829791301 5.683153911287419 0.5429764766341402 -0.04986423182029477 -0.2671864694176689 -0.7657742802335973
Ni 8.728362896273625 3.268357932803656 5.008044037300174 0.11391323978140383 0.47680645327477883 -0.0749563989022322
Ni 4.416667624374542 3.863449359919223 4.306574377988492 -0.9560102031371407 -0.7268228386710645 0.8390707749349033
Ni 5.198649166773581 1.5083343538906526 9.756838340858039 0.176378962415793 -0.28773652565487867 0.15748418239381912
Ni 1.2227845617401445 1.8596021314144533 0.8961858383734577 -0.661351753551448 0.14710849558644987 0.3190954995821343
Ni 1.8879586334924707 4.098800976161692 0.37458976000086347 -1.3718570860094115 1.5437276190318898 0.24174257542326752
Ni 7.744265469328872 8.831111569713803 7.121233790797677 -0.031800946560680714 -0.8010498156064398 -0.14250210716269004
Ni 3.1342756002299588 2.2880738397417217 13.08330045552823 0.9840606815164538 -0.5520772980936363 -1.0221222642748655
Ni 2.1506284223460694 1.2992533920360811 10.696389595922032 2.575400503109668 0.7260299104561239 -0.8634227214167066
Ni 2.084414244130193 4.025676853175023 11.254616651460541 -1.6808309237765118 -0.3443545312592392 -0.1576461618929801
Ni 0.29313878601513377 7.756624346611741 1.0097478402794204 -1.3798776423210428 0.6358425535367501 -2.392947823695969
Ni 4.336118986261807 3.4195313521774544 1.4098106706175102 0.864679219531627 -0.7759491638840702 -0.6078890057466176
Ni 7.499486189077315 3.3346548098266293 9.167059852660653 -1.4450669345341822 0.1580274564917988 -0.4894359691133312
Ni 2.450889413403546 3.2656472496821345 8.948653221992412 2.558415795626213 1.3152596492303412 0.052122431726852166
Ni 8.771733826217968 7.704000339028849 11.975868784305522 -0.47799276027339616 -0.19093012075709054 3.3422968127628505
Ni 4.422539239678448 3.180495044640985 11.058763823238996 -0.29212951251625174 -0.24706861562187127 0.28702330163793793
Ni -0.044208944522928464 0.8330214083882019 5.236415874223633 -0.3126502581774228 -0.11716619950106273 -0.8294975294241713
Ni 3.7452360095518564 4.799122040930356 12.705674730431264 1.763807364769743 0.9379132364261138 -0.40341251376366005
P 3.571495004596849 7.843651057947095 13.241711858274309 0.17964837719568416 0.31111479536950293 0.11465011794742835
Ni 7.460213444462458 1.6116986740058885 3.519652041303209 -0.11764108225495222 0.7741403928101055 -0.8577876346181161
P 0.8886749489377573 5.954360054784725 10.673041884927205 0.12542021197973885 -1.7347083905212577 -0.0663858836244018
Ni 3.3746626549490166 8.92360559107392 4.234476639085464 -0.5008364976407891 -0.672466632517687 0.4811829850759196
P 0.7840986318607295 2.3504930615874677 12.0746764001497 0.6469466338697116 -0.13594168033635298 0.10485601467514201
P 2.2992841224815734 4.31604155364986 4.943530697883598 0.3282067178547831 0.6310543881194873 -0.1337133052264665
P 4.683582618659134 3.945504954072397 8.730717974524627 -0.2853924509027343 0.6393989034294407 1.0342594138580317
Ni 6.950173146068256 9.010283129668197 1.8145625233180145 1.5226103774373003 0.079364812382573 1.186061201155093
