# total energy = -340863.9477171526 ev
CRYSTAL
PRIMVEC
9.34241415124746 0.00000000000000 0.00000000000000
0.00000000000000 9.34241415124746 0.00000000000000
0.00000000000000 0.00000000000000 13.67356745604819
PRIMCOORD
 96 1
Ni 4.866659674188399 5.821510445533956 2.092889466048825 -1.1925946313982363 -1.3172908207277572 -1.2253042058161157
Ni 3.6377305015849433 4.638078829399328 -0.04365616665773691 -0.8081144357627049 0.5675777077220806 1.126497482658847
Ni 6.728724247591107 1.4819497725716737 13.64340364158429 1.1562333191603829 0.09264224621776948 -0.6590429029126134
Ni 1.237916574928509 7.421548331815274 4.089640820220349 -0.13370970568204069 -0.8645658338822142 0.40521717107256666
Ni 1.4685060387403306 8.41850536332613 0.2082153163811869 0.5589722254412567 -1.4506187175903469 -0.40501945323946376
Ni 1.4516149541211032 8.101975032582741 11.269357961386238 0.5009899924995178 -2.688988755451485 0.42615572099744675
Ni 4.793966350392929 4.052617767544719 8.620172581693149 0.37175991985538553 0.42052346241233385 0.789155378161699
Ni 2.0568912761955023 0.8176919878166503 7.193500004627584 0.3947975184011394 0.014690769242955344 -0.4230955940148842
Ni 5.190458403069929 6.8608072975615935 8.005887369741359 -0.7936069861751492 0.6396200183013114 -0.3476900233903754
Ni 6.797278881958304 9.054322036960405 8.081871091768518 2.4939842075147047 -2.356856991510683 0.6713152925220632
Ni 7.069946578693246 1.1160914955951422 6.141319029370757 -0.7344703279139931 -0.32719858830524295 0.32952440822494217
Ni 8.775946125235226 8.377211893183992 6.081523842425566 2.0115148995271936 1.8326908180050179 0.8169729145945995
Ni 8.352071456950396 0.1214233555288165 4.0303248991164 -0.9504699900452017 4.094602369086051 -0.11990211037498706
Ni 2.69833208309348 4.271295653430925 11.156304474613155 0.30891830193881636 -0.012382432824752869 1.3092437820535645
Ni 5.209180600844781 5.031515912678935 12.055204462398926 -2.272351772577751 -0.17938303934943947 -2.247596420009942
Ni 2.775089357004748 2.6222754902366594 1.2761690892943425 -1.0959550910956157 1.1697344389706112 -0.33904211790739025
Ni 4.7791399392808085 3.1460579344717208 2.305144442269256 0.8756246627995371 0.33907837046196443 -0.15960842782567353
Ni 0.14109661105490573 4.254021529835265 12.066745146486388 -0.14419260749123552 -0.5160471439429564 -0.5485970528545197
Ni 1.476054709300251 2.6660633849326323 5.371974968552427 0.35398176993635816 1.143462906868592 0.44338005529553326
Ni 6.363828239262684 2.034170525203267 3.9103253274902223 -0.2611168661848213 -0.9346744177738419 0.40174746735641126
Ni 4.615769144625702 8.242167297956705 1.525751680888736 -2.0259480442333886 -0.31715920179136997 -0.7324368424237322
Ni 9.119307869156946 2.569313344934446 13.72962851790326 -0.7512562891230804 -0.020642101730383805 -0.12363046706916771
Ni 3.4739486407112277 7.811752939830361 12.843021278536725 0.4933507307867052 0.15499072654800403 -0.909927292736149
Ni 7.026756598497069 5.68297178744849 2.2665854967222776 1.5524768259794297 -0.7401501519075898 1.1100971869239527
P 4.652101792902348 6.147607408274077 5.751703927682812 3.1988868490739097 -0.1358588908145596 0.23813377502608668
P 2.4892675412743017 4.187596965873591 8.977599329981157 0.3605370545563726 0.6342510406799141 0.44913392706017485
P 3.6983627688298477 2.7026763056310577 12.645369429732394 0.24718354393318076 -0.7444361808774533 -0.6707550491432189
P 5.04694023829085 6.750641550974242 0.15153862724899345 1.0608453918766763 -1.4888577064668875 -1.4250974333907909
P 3.86676912466292 2.248625639934665 7.620621161798023 0.33135220546230026 -3.319440219879651 0.47052164870733165
P 9.12626796763113 1.3398516547296102 6.196874628815833 2.024270656530965 -0.10688795750350624 -0.1250718275013846
P 7.227188749725446 2.9842566653785787 12.248699871188268 0.542413292641311 1.0517881667704145 -1.374235356433601
P 5.150818540216288 5.992457937991161 9.929320392616846 0.8046807274908078 -3.1178042826692822 0.5697225219792252
Ni 0.16171251615957905 4.550671203460449 3.2895321899047203 0.23850581365352475 -0.09165597104510022 0.5537315458676076
Ni 9.345964176649801 6.728154360333489 13.116519515881539 -0.26718904052083015 0.6095010874287438 -1.7796695286129804
Ni 7.346809019340816 0.9672014427319623 11.023137704611788 0.4476300888211388 1.5522310285172105 0.0900037801536579
Ni -0.3366361400404245 4.462404075428115 9.283545639836756 4.340866486528756 0.5466566412986972 -2.629245059733949
Ni 0.18680250335725462 7.734070766927221 8.859076794017755 -0.579911289586769 3.263807461006695 3.1791975981750986
Ni 0.3315538667921614 9.074763238922168 2.012735290385592 -2.0315574200003654 -2.0681449893164126 1.4641000399062332
Ni 7.119564139762226 6.85747205574242 9.779964153292108 0.33263210061598847 0.5288563798924827 -0.5016345680620522
Ni 1.0838788519186506 4.75685828174936 0.5106731688270417 0.23831760890211862 -0.4737260145772421 0.08167443435235612
Ni 5.208947040493299 3.113649100099984 10.915417802025162 0.45821789163931403 -1.2259261556708305 0.31803209131462645
Ni 3.1727678962672803 2.0400095339903337 10.39751734168184 0.1353205018125863 2.3308772796174697 -0.5956006752975678
Ni 4.454033272430975 1.0419127279642424 0.5009776115162926 -0.691063678793584 0.6856023985686966 -0.6349542373945258
Ni 7.260699988956181 4.309169800027356 10.2391503439969 -5.096119041295423 -0.9741285100044063 2.6209098003953764
Ni 4.82024656114176 9.096643172649067 6.9266189991609775 -1.4264166664228466 0.9746707556611214 -0.3424187476891071
Ni 3.934240038999237 7.529574665583044 10.338065021332627 -1.3327158970335757 2.101369298587181 0.14127594806507282
Ni 3.5800410947687213 1.2546768657509062 5.123075307425769 0.540470052872011 2.0767368447504815 1.0632683994958718
Ni 4.04519989078163 7.093760392130419 3.763061788914768 1.496322647385365 -2.660818720775173 -3.197462457922558
Ni 8.548215440125553 6.166320263634869 5.431619742631263 -0.262533801137006 -1.7816816739470025 -1.2915196253009242
Ni 0.699288100511802 2.26771219185783 10.663263243840241 -0.2539558296600078 0.06170647587086146 -0.3302443171101022
Ni 1.4266800509968123 0.43567507148314083 4.827220673237033 -1.2836803317621635 -0.9288349282739294 -0.8000154608046546
Ni 0.39343614903820084 1.879142506303122 2.3255454718505653 0.5010095328835437 2.0942080049520513 -0.005476449733538956
Ni 7.495045103219844 3.00310965695026 2.0785460577435706 0.21833345247070785 0.5292710988323982 -0.31940351774085635
Ni 6.326785567517531 8.017201967408587 2.9447532017702036 1.392184484712854 0.19474435229685813 1.7799821747573925
Ni 1.628354743295078 6.005247702838353 9.889900076493598 -0.5604619226129057 0.265155297920253 0.04214166636505646
Ni 6.146318155133892 8.66814400940488 12.593478859322785 -0.6701600958716974 -0.7568371256449674 -0.4460200640215415
P 2.961563941628521 2.9412628758776465 3.6760568210218456 -0.3438572799078465 -0.878117861535036 -1.0140749684903567
P 2.3130322424595295 7.679006578461664 2.2666266033441382 -0.05059236823557093 -1.3743623689297686 -0.5426320935203365
P 6.041982074919549 8.893940814804276 10.2994509555427 -0.7641130904810904 -2.375395930855135 -0.0003280727633800801
P 5.5785703103357305 9.40435426452047 4.807380188499282 0.13338266135992513 -0.2189111793510488 1.2333260476793275
P 6.256642722760252 0.535997650617606 1.755220989254847 0.29712182352452055 0.32047849597259004 0.5835249750799563
P 8.300043553054115 5.296008997111983 0.5375270037991146 -1.4130477013151084 -1.4287975079501973 0.11895131642594352
P 7.884605084664839 6.915778061886558 7.536966383586768 -0.5912092310980914 -0.2598698811515976 1.3042288453374766
P 0.22937494998411193 0.13187564837836946 10.326469217002215 -1.3656062200036934 0.8909674638041947 -0.9139626391477873
Ni 3.373760592339217 3.932483665156088 6.613631311828877 -1.0085661228569855 0.6977261784154242 -0.8548408932849666
Ni 2.15928413428551 0.6742167981422451 12.161065224587748 1.0508011202667968 1.7327867480185124 0.4669321315838603
Ni 8.385022151337573 3.6041632078698522 6.599929727369497 1.54550347998539 -0.027010210040256707 -1.0246738270521256
Ni 4.294380758571473 4.513254835152924 4.252014779295326 0.9161622179022673 0.8867343995594535 0.5735262119960316
Ni 2.703909504286886 6.079912276000337 6.041473847594722 -2.789736661495524 1.2495178269478415 0.12293935453941408
Ni 1.0333737615140357 2.955360578693141 8.155366928931683 0.5983921219997759 -0.617717047580633 -0.7916094961291463
Ni 6.638439158121962 7.66893545610573 6.033967217898069 -2.890906999788963 -0.5716338800693253 -1.5722110711835633
Ni 2.487922233649761 0.4501464708610078 2.207925413085293 0.41632665072216685 -0.05188948978043967 0.437973025347349
Ni 9.07974274561578 0.25759277740884357 12.39625115611675 0.1826964199933886 0.23888016627380793 1.316660643342926
Ni 2.53635330813321 4.919799325357738 2.311558009520971 0.30910547824895795 0.1198018373516969 1.0229987533425478
Ni 5.621480018110129 3.060799063766483 6.242298380213591 -0.03659014041920795 -0.39202895451706676 -0.3805253247528414
Ni 8.739987173520953 2.4357915631988267 4.199206783825092 -1.1807665284150568 0.8649936654482524 1.7341993120953232
Ni 4.499969922360589 0.6697380448422131 3.0935077896295233 1.074391505992227 0.5759697884405177 -0.38446065525150563
Ni 0.5779740512274794 6.371246116025774 7.379145917124297 2.295123776166944 -3.3107995134855175 -2.6119263659498433
Ni 5.484865897320879 1.128946657340749 9.077074552160441 -1.9665630174068518 3.2158167920600293 -0.1453658018637303
Ni 8.906338198260977 1.1401295269697398 8.456020761222684 -0.502420040077825 -0.17842607475280883 -0.07248042655791388
Ni 6.773577177489841 6.325122617814974 12.42533502532478 3.1891994465828173 1.623695097995468 0.870709741996423
Ni 6.170991470664522 4.0155283837292695 0.24087265896690135 0.8446544396702679 0.27363942413186426 0.4951952401946117
Ni 4.578165928036991 0.6317536577598817 11.572418399538916 -0.3815108285945623 0.09975751710631206 0.13245397889806865
Ni 7.712162805958146 8.663668993070472 0.4811744964347791 0.8775501619570241 -0.7790136617420067 1.3642293942608246
Ni -0.04490524741746629 6.54082027361626 1.9937561762241096 1.3301244821573157 1.243368262406678 0.13633197379623616
Ni 6.449703709295837 5.210114842250711 6.951928533089046 0.7011879117117794 0.5725309379622978 -0.4296087125430537
Ni 2.2514283641524573 0.3439848829394756 9.520426285276116 -0.6310451321481068 -1.9394728460582793 -0.7381171806379611
Ni 3.2990212798647587 8.297567813328397 5.105422816060708 -1.9105111687186065 2.9759688625563134 4.311148904859665
P 8.640948242078236 5.829871906117036 11.0096556668828 0.17923005871134293 2.0323853152183 -0.5678798123435317
P 8.431435264384211 7.599138280668646 3.7074370556056526 -0.6706146669106128 -4.518323769610393 -0.7580329457252816
P 0.9798510713682643 4.763752983325129 5.491482194957681 -0.7272758670480829 0.7256632711453244 0.23941418440040707
P 6.983099497597925 3.282074140761175 8.055494654154876 -0.8935305965456806 -0.13351738716557648 1.7725293180237733
P 6.631525771718074 4.152796473502671 4.024814743304221 0.20456853747613155 0.22314295804420925 -0.48513091398007424
P 1.338711880214375 1.1545822415194882 0.5108133050379313 -0.5476370029340956 0.6259756880449994 -1.1197591354937488
P 2.49427507521009 7.934091851936989 7.476460238931665 -0.07972836636957882 0.13939235788911478 0.024846369619718502
P 2.05435948198543 6.138778826988031 12.321197004288495 0.2372729696876881 -0.6439564408931361 -0.03591856827348008
