# total energy = -340894.4086342744 ev
CRYSTAL
PRIMVEC
9.06826683185024 0.00000000000000 0.00000000000000

0.00000000000000 9.06826683185024 0.00000000000000

0.00000000000000 0.00000000000000 13.27232514287486

PRIMCOORD
 96 1
Ni 6.188638764478561 2.1269257347108046 11.269624090038704 1.6425258575487263 -0.0107963192845556 0.44185179157646487
Ni 4.766426189215567 0.3416097765884613 6.161650695276474 -0.9720657139381065 0.48957789400783425 -1.433111819054835
Ni 2.6719648501041955 1.5740153636245906 4.552434133093817 0.4478080091598997 0.12830678949891453 1.3287479135247633
Ni 3.236745582598135 4.2717522283359335 4.788323333364715 0.31389544343843356 -0.24560025860646087 -0.2856894133178628
Ni 5.199327115787004 4.091094214611936 2.819958059529668 1.0611636944480434 1.636815694537826 -0.15231446526742157
Ni 7.135792040225491 6.139797078808576 2.846396591755966 0.13144893467232202 -0.901371689856654 -1.4403808419124224
Ni 5.23881941825503 4.511344908819908 11.495771251149694 -0.5973875919946615 0.4846773713824234 0.08288465261037338
Ni 5.818463040242677 7.641647174226382 12.508954205700455 -1.3604640136811217 0.5473642088886831 0.3812812290822595
Ni 1.93645585617156 6.475041838840824 0.20217066335543174 -0.22718550354469905 -0.1664064245841134 0.9807264749368982
Ni 2.85732022609649 1.6788354610362801 0.20565469150886814 -0.0516640040331949 -0.35018939277346145 1.1306855525982655
Ni 0.6791116282588938 9.000581382871262 4.255625222432573 0.015298320919967202 -0.16436008357804596 0.6044473270549203
Ni 8.608342565201461 2.1688301961814695 1.3734470630351978 0.12341320885203907 1.188004698034709 -0.6398388191803368
Ni 7.189847979378626 0.6077534358086312 5.101656440020731 -0.11969102280544547 0.69457452016032 -1.4718120638385104
Ni 0.6901141565216851 7.366361795116886 2.2239507498718596 0.7268086976036774 -0.5798809505694658 1.1524196018412474
Ni 7.5593526518618965 3.6477647810742004 4.189940137771976 -0.5160276035589306 0.7107873824747565 -2.488286128688663
Ni 7.728956448201616 3.835976661148569 12.615916227760353 0.5210127154783479 -0.45381770568908936 -0.27544382433045467
Ni 7.978524222305529 8.93694028557606 7.244419902919919 0.2501056026759822 -1.587284420576918 -0.36867588161342313
Ni 6.828667975934539 0.47294639332202343 0.4762998384317079 0.050727351151538445 1.2633776156490693 -0.8151458886881896
Ni 1.6555028102325535 6.677944311337282 9.520225723561678 1.1949929564270838 -0.07060197858827841 -2.010444806391467
Ni -0.03138527183509459 5.007034515595389 1.4533067557297257 0.4092653730000113 -0.8712707567062156 -0.2409661022685592
Ni 6.482686387860467 1.8319168750346135 7.1096128604333115 0.5590174768568953 1.5151711475504357 0.28283446036757093
Ni 3.654194182325597 4.199460004392168 0.5810555511482144 -0.3580857648024027 0.768344869174251 -0.7046031080409155
Ni 5.79457722515639 5.598512225923052 4.7240982396794005 0.903163234539438 -0.3531582455937982 1.5604639579499642
Ni 5.169320220524846 2.9176967472978945 9.245780065969642 0.15591786634796376 0.3516477224865428 -0.2420832465921379
P 0.14705010966504198 5.601278047335853 12.438292456150203 0.635526564958228 0.4801355176480119 0.2648879031914793
P 4.073674073844755 6.1060631258393325 12.622525180696908 -0.19275688955318415 -0.24605328698347947 -0.3365532900472656
P 2.398520329180924 8.434558297808294 1.3789950287412684 -0.44512223479762053 0.01358879442802821 -0.849879178404317
P 6.3147239478345725 7.8861004457833435 6.053480780061871 0.6587886208099623 -0.9344828705883261 -0.8086620807360589
P 4.833331862604566 1.0561991855467023 12.63050253511278 0.010497042876581923 -1.2579173638654466 0.1381209473758589
P 4.142284581416071 6.2136127715961145 7.946619338775505 -1.1232707481914332 0.6956327862215053 0.8967511603655072
P 4.711191375361894 1.0415085931246124 3.710398393913789 -0.22382250060973713 -0.1297016129639121 0.8343869963059889
P 0.06892064230022707 5.5638442414603055 3.676261809892977 -0.7055063365814752 0.463430289078189 -0.34204799461324964
Ni 1.7223450057530625 1.2995461285385437 2.400154430881208 -1.595364626481891 -1.2812935766975417 0.04716843015568651
Ni 1.820635950977157 6.346544496482173 4.535591640929898 0.24569693208532523 1.1814388718917328 1.2906806743393964
Ni 5.862008858027168 5.603001018052025 9.125572933235851 0.7719166456859093 0.22404875768793028 0.4167074311003533
Ni 8.515274941727444 2.442392604574795 10.25446425329781 0.2324935460211738 -0.0649956881450945 0.41202390958175494
Ni 2.317450022851613 5.376004160329953 6.942580824594148 0.128145838441018 -0.15909754962752598 0.4682279675771484
Ni 0.4051901164952509 0.2098133987216894 9.678219417754486 0.1808495965926369 -0.09639040040629206 -1.1875619540703353
Ni 1.6312814692699595 1.1631321891524333 11.594517423373535 -0.6570335857920684 -0.1650303701721932 -0.5965550687910371
Ni 4.253552216613011 6.755033648485546 1.5575473908847661 -0.3085750596667847 0.1383420622477295 0.33794914195352765
Ni 5.635528891519948 8.049837073421156 8.156334800214381 -0.08136795885553083 -0.6863855565916243 0.20968811809088403
Ni 5.218125633127123 2.8389841903696595 5.158329481009061 -0.47275465180290843 -0.8368781381589588 -0.8920414135946637
Ni 0.6817504939347138 7.488810603435082 6.7086957113141645 0.37642904319628073 -0.38086522459076344 0.14624691891710298
Ni 4.877448981205472 4.405890032723313 7.119752996511324 1.0445577104602464 0.3428494074686224 -0.5946493671278921
Ni 8.175069839686008 7.196404336367003 9.189426227977151 -0.12149953676909399 0.276662270118588 0.07195232196858575
Ni 4.715988488566391 0.39237121436693834 10.414647933953539 -0.5193841787359894 -0.7162828583716889 0.017670163586253437
Ni 8.059068569153062 7.243269139846856 4.719187773138312 0.3268566315847919 0.20423223718263536 0.9900444099037145
Ni 7.239215624530389 6.156083686209856 7.0305765663757755 -0.3975254588552638 -0.0808982183079639 -0.02798311547648729
Ni 2.3654755644981487 5.333328896170475 2.4512523013626852 0.20480687873918277 -0.4660070486664297 -0.05661106362582509
Ni 2.3258835110939238 5.342297412161492 11.404298735828174 0.8783559456877712 -0.16234973801623653 -0.053796991215797674
Ni 0.8786960218866835 3.5698955729701964 3.522846683671722 0.4911164421395477 -1.0285669914589448 0.5777664753296244
Ni 3.693087979176426 2.5067138218895377 2.431569627997163 1.054122471330546 -0.0835089164579336 0.0722809089525981
Ni 1.2460977632695327 3.3897000408594877 8.23920697118213 -0.6162846860094805 -0.05316424272780522 -0.28871328774585114
Ni 3.453540640027088 2.664420052020752 7.19506041920839 -0.3124049749358362 -0.46089415291989655 -0.8261306698344676
Ni 4.0257936244690535 6.995641974865367 5.8429020196115244 -0.3068043409196071 0.7460824582316248 0.3050184526637779
Ni 0.8374626121686324 7.5472827885817715 11.424419406486281 -0.7294286517250277 0.3880820540541768 1.5736179788334188
P 0.3462726794424358 5.680335198407322 8.14517267045367 -0.42859441234592643 -0.06520471883210706 -1.3089159664005006
P 8.66411240680384 1.6627302189735447 8.038118152071114 -0.3466201873649643 1.1006468401443303 1.0215609924547568
P 1.7833925787070808 3.023296715665325 10.446395029639028 0.13350401742913784 1.7230728631648584 0.3148583215723352
P 4.037246845598128 6.19290991820128 3.78818689444214 -1.1757119967102847 -0.8024261271286761 -1.215298243643339
P 7.0384623312956816 4.180942603326793 10.38591331654127 -0.014954307316987148 -0.9019111072998919 -0.37164396310281156
P 6.2534043268727375 7.638010799188568 10.323745812621741 0.058149354647222436 0.8717638942925503 -1.0551213449087056
P 2.316661083628945 8.619188212446412 5.655709412739776 0.7133289179496877 -0.87694209605938 0.25109187784865145
P 7.121047038201838 3.852816432832409 1.609136761433698 -1.281795970255257 0.45808882226061753 0.2710652356467848
Ni 5.567924961577553 2.8760824703689005 0.27668007856290205 0.1886043008373913 0.10538180527162497 0.732428614893616
Ni 1.4658944170513941 1.0414632517899765 6.97111594013402 -0.47190644487000016 0.48646634496204605 0.10464621265718108
Ni 7.019990271564943 0.6313572277934816 9.309421163264844 -0.6743209121176065 0.5610098246965758 0.17488643703066653
Ni 2.741572867037505 1.5593157029355733 9.213210478473853 0.1503408864808185 -0.9000833100625336 0.20422606653504827
Ni 6.421430244767123 1.8692327934401076 2.642572783339703 0.07965997502548862 -0.05746389854442362 0.015378796448915452
Ni 4.1695347235323545 6.942891866149752 10.292395907027661 -0.870819785211726 0.05664731618039921 0.2877740637610334
Ni 8.096774423036425 7.11944195495572 0.5679555327451582 -0.1925602001613458 0.22797534643584608 -1.2024506982567098
Ni 7.753594929442864 4.00463735772786 8.274419051660509 -0.003695960794348473 -0.6167500556816733 -0.8118085967848405
Ni 3.22747781379852 8.25877901169114 12.506233725622291 0.5188378193142161 0.770722368267492 -0.49670293508838975
Ni 0.27053179358624957 4.77605668869227 10.134588112306863 -0.4770131699689462 -0.0958160159600608 1.1512577203226624
Ni 8.649521565317949 2.5351609752402147 5.868013864386371 0.5783773694407458 -0.6174792205382139 0.9459890714557126
Ni 3.7603382467086597 2.631284604668704 11.513861536842798 -0.4729593116145467 0.7440952525982669 -1.0666401441815823
Ni 1.2934613214303818 3.6584199947136793 12.682356699055987 -0.643390283977021 -0.9373812751820436 0.2120144522312155
Ni 3.1548047226438114 8.415025250847071 8.005879556318169 -0.18174536893402893 -0.5284154357003222 -0.22960799694326264
Ni 5.710722960880423 8.030285889926079 3.8499699038439554 -0.9142297767662448 0.2130763178368266 -0.3443668725544134
Ni 3.094210563036154 8.244396740344575 3.4491189530733775 0.3186355292265803 0.286643549701016 0.7502980389748691
Ni 3.3048936085561635 4.559198153394826 9.300077221023042 0.1630169392865902 -0.13736118639169892 -0.21048001786456008
Ni 7.352215298710428 6.160908004215135 11.400330462220824 0.6644905562907459 -1.2583151135244974 0.3507174973627895
Ni 0.5353950135162965 0.11020936844653426 0.39836443197913546 0.22853507559405803 -0.8683019038858788 -0.09107901549570765
Ni 4.437257168024553 0.12589112244376888 1.4558676343099715 0.8806485983766899 0.8346801020663754 0.23069120270511237
Ni 5.995838341339022 5.503685358665155 0.49426679569460097 0.5836249909929304 -0.4597160734513954 0.0006700294838311041
Ni 7.718255893227502 8.861066096196044 11.428267978970192 0.7198731468261086 0.14923968299683976 0.8681610074326402
Ni 9.144259004066074 5.0787191656550315 6.003869198529764 -0.11695562615215341 -0.9681949181287907 -0.6723074812320035
Ni 7.934017168226752 8.802893163857954 2.6152183561537554 -0.17373483992472658 0.0665774308099176 0.04019611260291142
P 8.55114900569151 1.6123469279259324 3.449065450298507 0.3318551132406478 0.526333356360313 1.8141349093797015
P 1.8883487001226789 3.2801100350440824 1.5507389360758124 -0.6827785559666564 0.7557734602671435 -0.5208306813745287
P 4.767922453258557 1.0685320285677162 8.191971275584955 -0.41064682672857017 0.27847721184013974 0.7812080982901642
P 8.613094337071324 1.608248071274831 12.44798099253524 -0.5563453293413708 0.32639023347133467 -0.5643383748491765
P 6.294583326989226 7.835263741389371 1.6136890314311605 -0.6955996189907245 -1.319797646310011 -0.27540037268702894
P 1.660517561843304 3.212297534962361 5.928933574776715 0.6991143170122024 0.31457061512858725 -0.057360025976707675
P 6.78117746203671 4.025195118851858 6.08070281055068 0.5909464643550081 0.3559214101612322 1.7252819550010352
P 2.457799590084135 8.579995162786984 10.189562666899727 0.44958772676814185 0.3103321515672075 0.658264372875376
