# total energy = -340889.12766182283 ev
CRYSTAL
PRIMVEC
9.04882667425746 0.00000000000000 0.00000000000000

0.00000000000000 9.04882667425746 0.00000000000000

0.00000000000000 0.00000000000000 13.24387250719184

PRIMCOORD
 96 1
Ni 6.306715392317521 1.8726998974368478 11.365732431717406 0.30963229728670544 0.4083875983807483 0.6514684329994652
Ni 4.420143643788549 0.1486749347677352 6.106179822860168 -0.5362439306058054 0.3838685301934615 -1.054207060624552
Ni 2.7818174026707645 1.684538598278568 4.773885800346929 0.36757287835723146 -0.6128926296087961 0.09546120372380333
Ni 3.374633176055221 4.374193702597545 4.938692983077509 0.458749595773068 0.27702865231907126 -0.3129410499449643
Ni 5.159478016575278 4.310870014441844 2.8186406974093767 -0.04690977717766115 1.5129718259062719 -0.46084530195983214
Ni 7.392610772917224 6.224895902705653 2.6477146981696684 0.03215730145883494 -0.27313240258845867 -0.25057457189260074
Ni 4.979189196510377 4.699571407470749 11.542498543608684 0.880246992062897 0.9994492481573819 -0.5331701767764881
Ni 5.577027068626816 7.851223399825945 12.53332514277063 -0.6550312106500591 0.5156614784687635 0.19711516652187988
Ni 1.9408104148343843 6.041331407431784 0.3087984448790818 0.6174913047230721 1.706714476411493 0.9910134586852029
Ni 2.580055717216683 1.4797636535852972 0.2717036853441462 -0.325992998032916 0.12479311991870122 0.6161599875061582
Ni 0.4392318502165402 0.14159965729289348 5.070866477759401 0.10471254711874223 1.4956793573744112 -0.4905870519986389
Ni 8.856511833570693 2.5028330314892253 1.1505411023134984 -0.47445980741947313 0.12314401435105243 0.08243908043252254
Ni 6.629668011676904 0.7195672112011154 4.866924025108188 0.7183402551213499 1.353177250211721 0.46882703461372804
Ni 0.6325464560916922 7.813001156503613 3.1223754189543733 0.5916985120296843 -1.2250697212078063 -0.5616911670343164
Ni 8.139265646378142 3.7987245296981516 3.581884784573616 -1.52959966427094 0.5444033264881463 0.28875802494085756
Ni 7.512779189423041 4.04829116578478 12.524875348543738 0.9913520729715443 -1.1458337210936138 1.515330041725803
Ni 7.926980175653257 8.532174743750058 7.0417805287407385 -0.06479437076756583 0.792686531243409 0.18879790490543613
Ni 6.727739193761997 0.7902620734596505 0.20141059098416972 0.9378427881994945 -0.9316759972671502 0.7462266971189728
Ni 1.6028638898914065 6.213295307076101 9.218768031024428 0.5411184850892874 0.8644429351511048 -0.1789490371358144
Ni 9.48081752332866 5.0066704827248465 1.7636334862180028 -2.0961337612198547 -0.7934511773235754 -0.7005752178284451
Ni 6.198482378023389 1.66513791416799 7.273442251744532 -0.09200898350914476 0.4115770518523234 -1.0162272389466693
Ni 3.875060430424287 4.29744155585038 0.537327464133303 -1.6666579747102392 0.03432422720316669 0.07693974788084813
Ni 6.189723113928688 5.439367270411229 4.63493111505288 -0.3670434882163227 1.4013334982019738 -0.3560484226573997
Ni 5.206486670471945 2.6354707309728296 9.446946860691392 -0.03562340563056445 0.13611034470373334 -0.48198902591698284
P 0.16666219217212247 5.536017786728896 12.425149136083725 0.31655190722467424 -0.13308055673847402 0.37091274136374186
P 3.978968105630333 6.357750774026318 12.613715822671184 -0.035244425024590915 -0.5729230311943939 0.10103998336316146
P 2.0115631895828017 8.254972991397711 1.3822625475724826 0.10094536676682615 0.34001528045393703 -0.22759225206481448
P 6.244712832837261 7.828854700608899 5.683978769082302 -0.0031398311805623342 -0.9703343330692967 0.8452995294534345
P 4.509084559890633 1.0433477981892847 12.640614364456212 1.1866227300855174 -0.004833673943217482 0.1599542412008665
P 4.038364603065889 6.103614480534912 7.9380722272310305 0.6195618140988555 -0.05969278787494236 1.3990696418684614
P 4.715081096167358 1.1242714539732848 3.7240708058265675 0.5043625085161765 -1.838657062890782 2.308835983546714
P 0.16624866079905654 5.72495728496997 3.9028502816239112 0.7986915997869083 -0.05632978493998041 -1.546103318352918
Ni 1.537097018568795 1.22533779764448 2.6006988052117674 -1.425253499352681 0.9676040786223271 -0.24721388295048388
Ni 1.981973526783553 6.511363653439175 4.908510622139621 0.006640645244969209 -1.321891552724562 -1.141755180148866
Ni 6.036580773496125 5.704552181112996 9.265651811114786 0.08107433887451197 0.12168439908639044 0.5264158887717902
Ni 8.427298844103793 2.246389287229071 10.033981338796815 0.5935332512455779 0.8392124427190902 0.3096302404041764
Ni 2.348233829983059 5.151741269880063 7.086067295612936 -0.2543975451831167 0.23755681947669408 -1.0492276051320897
Ni 0.4435942894934569 9.007011916652374 8.875394019920291 0.45765893381205053 0.22964784904226257 0.35012691496664217
Ni 1.331869632548319 1.1661132279132622 10.993340643651608 -0.06009208019589007 1.4081075837010137 2.0533336353351928
Ni 4.0662259399952125 6.851246627262593 1.6739324686862136 -0.554844062205496 0.6035315001088702 -1.3727127491414874
Ni 5.615855583327603 7.8841701772730595 7.790721135786699 -1.0055124236323263 0.24776204214447006 1.4344557346772393
Ni 5.146746317627712 2.878504114294609 5.107022873981712 1.007385472285323 -0.2617830390139104 -0.3757561854989722
Ni 1.0552741515744253 7.288567365313017 6.956542392460506 -1.6072163836141544 0.7530457769233353 -0.34450982589018087
Ni 5.290043534780281 4.254233409102242 7.527644601669709 -0.14749107573684922 0.19735350778493108 -1.2982669713270867
Ni 8.198064921261786 7.11852181689605 9.36527215230423 -0.6237138885940161 -0.003319037070903961 -0.2675567082728941
Ni 4.483874529138735 0.27661448350963613 10.518111656559935 0.47387513856059676 0.2906495855366156 -1.3841323038323388
Ni 8.252737931241315 7.300339888646907 5.024155530256036 -0.7541801476380946 -1.293646698946256 -0.19382235470322104
Ni 6.99634456089744 6.056678217250599 6.872231760901045 0.40125227288754767 -0.35147622990568506 0.5469898562683999
Ni 2.4405137630799207 5.309598048942108 2.7227810485316644 0.9343610002984812 -0.10435490666900737 0.22311750412291254
Ni 2.44704701584477 5.39958862892331 11.395305806628874 -0.1136640998850752 -0.7966156910944862 -1.3219578871861233
Ni 1.3559304623291146 3.4587420187827487 3.913060977496288 -0.0374548024123484 -0.017863510543982136 -0.17547676231649778
Ni 4.132427154991941 2.3853249699873778 2.349012933948508 -3.7871969042473355 1.1279074756324963 -2.478845552101054
Ni 1.2068781914944897 3.453457504080987 8.27564594052039 -2.1871718961752977 0.29114169468168566 -0.9591256088376707
Ni 3.683858725547185 2.6401489742961357 6.9384121635967215 -0.1546009473087531 -0.26238724825681264 0.9208853344095494
Ni 4.277850846382377 6.559485313000766 5.88074278763607 0.2909498903858538 0.798764619116689 -0.6012097939542291
Ni 0.7356071611332097 7.4251232066902215 11.397862100127586 -0.10193009927759863 -0.7827823847558196 -0.44969776998344485
P -0.06222968502651758 5.77166732759068 7.8306517975605585 -0.5134428735508899 -1.6165479454277256 1.4709921390403762
P 8.265650606719763 1.5697180382603215 7.86296606203224 1.2146696089204048 0.06420661658489586 0.41470608439960843
P 1.801431339575416 3.3521920862258217 10.309110004987907 0.12399479238712194 0.3733555464772796 2.006288618131248
P 4.246379027661953 6.152143337290988 3.5950092025931966 -0.09024366407860587 -0.6335450157518251 2.165285894735484
P 6.796863179732475 3.9523102626313773 10.5581870995585 -0.1346396736954778 0.046333592959216977 -1.813494190471909
P 6.132679311394601 7.67983862508045 10.344046619392072 0.20441349995550603 0.19517192675258 -0.8490569396133377
P 2.3483152694219567 8.405572611571378 5.614554362070559 1.4158491753196456 2.1015533895735294 0.36089855166084944
P 7.052601115522189 4.09341766376027 1.6646483726519539 0.24746585106028995 0.8121374408791692 -0.8834156195988656
Ni 5.665777959371473 2.766434397545773 0.4055602617632424 -0.614513967262303 0.8892751637034363 0.04007578497496324
Ni 1.4426182206217144 1.170357127562451 7.016603978647054 -0.10452151415385871 0.32717544837679136 -0.15282765745841423
Ni 7.0015838314664816 0.5526724641868093 9.333142483894049 -1.5707972215551722 -1.2497793081393445 -0.40943480869834004
Ni 2.648591529461793 1.7798408394411631 9.148257764827394 0.7378433581512842 -1.3588725008242855 -0.22665379941094516
Ni 6.3595786369882275 2.2799875801873615 2.7583936102786746 2.3745772916085817 -1.2117400939784357 0.12318849443574267
Ni 4.028048940805601 6.871226436271993 9.96370905673789 -0.6406273765199032 0.6433254921773566 0.783310746455464
Ni 8.131718925040351 7.186098453527484 0.416731943014604 -0.1985560127334645 -0.5322430369765285 -0.14758492100223614
Ni 7.50820048319172 3.8841725987542084 8.403382795547703 0.6594373101375546 -0.26984010499043204 -0.8999488413671985
Ni 3.0189057069530616 8.502766057481693 12.176138097946907 -0.5087781210853689 -1.3885168060532795 1.210196917861032
Ni 9.091898958462696 4.704005332477364 10.218495055975163 -0.4803792582277018 0.18094369896833998 0.8247430454583216
Ni 8.40709281443079 2.398364329037444 5.823224826591072 0.16860188957353545 -0.1345962220520521 0.523028460356796
Ni 3.8140079977311583 2.813361612003541 11.582256372795554 -1.3098137956244216 -0.9793918152858746 -0.3064832101347625
Ni 1.3989576325463704 3.5324628086376353 12.652030364024265 -0.5924883549208312 -0.003864625161728828 -0.20085972116597667
Ni 2.836056068976176 8.197512942842595 7.971407199336887 1.6771565602487182 0.7689207962823791 0.9997294984019622
Ni 5.620968170325027 8.126579191563295 3.5939369166477193 -1.2266694615947584 -1.624078449476816 0.02994075342349037
Ni 2.968974282082648 8.703378541964673 3.3390052313030862 1.26575845717642 -1.3990081925029068 1.1283198805795664
Ni 3.4002323063485163 4.287922190325974 9.137291491938583 0.8276298800878134 0.48147866193946753 0.7716752190990647
Ni 7.338571180795783 6.194980482150818 11.511520790817569 -0.6540063689299704 0.01993170592692051 -0.18273755764396918
Ni 0.5232103898418327 -0.09780333681938791 13.102176003935659 0.9480446684331608 0.9051553252688024 0.6100142796197365
Ni 4.571385730646848 0.08439750029428493 1.5248069023565813 0.06588606116984783 1.0668499461995433 -0.9810244657932911
Ni 5.8579207422091635 5.738394792387978 0.5165332607349319 1.276745552315543 -0.4272003602118772 0.34896220523457966
Ni 7.682788542533832 8.810353769369172 11.463299594163994 0.9631918084872443 -0.14441372236310612 -0.01776452307227263
Ni 0.0397297778245813 4.737413600078229 5.840071026968245 0.3267370752877921 0.28848754488829026 0.6684719095359971
Ni 8.356491776396112 0.13871670115593915 1.8949862523323429 -0.7454769634371419 0.875290162278254 1.0055538183932229
P 8.349478935824424 1.6206176875709557 3.77741725783473 0.8560053459067128 -0.9001900108437271 -1.7774704640791323
P 2.0425192251902113 3.273204879322262 1.6657478050770635 -0.0637625870689418 -0.04178813968037964 -0.12856261426346247
P 4.381052713117982 0.9540449290254364 8.208194177695265 0.8258406493978744 -0.6855193519365871 0.01685718076665484
P 8.71615548504496 1.736008323661481 12.283744933444185 -1.411633337466085 0.25669019787203534 0.7378886095669227
P 6.467730211843463 8.00416666607454 1.6439356086924797 0.5182446658149075 -0.2778974280772698 -1.3646484840761142
P 1.7791440797972666 3.183413373525031 6.116509963242926 -0.5916077520880908 0.05542629928910455 -0.8614064623176261
P 6.911213200770428 4.017869010943474 5.952961472284634 -0.33487718789642323 -1.228013891437795 0.9632067208855799
P 2.1461644844264782 8.530717882676457 10.170605046373101 1.5079625456171384 -1.9703726209609294 -1.635796252134376
