# total energy = -340851.04415280244 ev
CRYSTAL
PRIMVEC
9.38355561782387 0.00000000000000 0.00000000000000

0.00000000000000 9.38355561782387 0.00000000000000

0.00000000000000 0.00000000000000 13.73378215102333

PRIMCOORD
 96 1
Ni 6.061392108199662 0.08242515125329292 9.105195112580756 -0.0845926364404156 -1.2221173234477016 -1.2448476751656818
Ni 5.941507803507943 4.642870644161463 6.426983874532134 -1.1052403730522837 0.22860706648257403 0.24927693612709972
Ni 6.882228006541312 7.415504847488021 7.5292166493912145 -0.26439579404640917 2.401092821400607 1.2122116342982157
Ni 9.03679556168929 7.13137078783983 13.219492892152896 0.5801614579243621 0.5856386789888495 -0.11061554286673851
Ni 5.442330803141205 0.19961074539168355 2.071672287765611 0.3416394463209213 -0.23013970107701656 0.3746153870263097
Ni 9.163464176986217 5.277865226408912 0.8557990260249113 -0.7773763832488998 -0.2630721901389792 0.06837746013313385
Ni 5.139673604994153 7.4924406187910435 3.273790195542034 0.14909801521265292 1.429021193925229 0.16379624065477597
Ni 2.838366009397746 0.9805627795613163 2.4596513407397143 1.0698632791045704 0.8176887097147015 0.7762332707833921
Ni 3.0203037664161996 0.5650974159028838 10.811233408014278 0.1719191268722265 -0.07191092720768906 0.03920340967233893
Ni 1.4254277608645225 6.649881789535075 11.531556413577606 -0.9985971845697317 -0.7761854482645922 -1.5116757328026675
Ni 1.941692215743128 0.9465380074251096 7.2341460558421 -0.3448890636064706 -0.04101758006294226 -0.17548164741250424
Ni 1.3434248696074043 1.9035574463108214 10.341386586981832 -2.504668940922061 -0.01903156271015432 0.18148620173537133
Ni 5.045556543624557 8.797148938526966 11.183185348244686 0.8983753262324915 -0.06125987525174611 1.220937701317304
Ni 6.290332094570091 6.911945726716538 9.861844676437217 -0.20700362928018542 0.40764789200124635 -0.3694968348528217
Ni 4.5401863966472575 1.7372151584844182 0.5890367426193457 -0.5193450979679378 1.938592243225539 1.7795949666213031
Ni 8.779911347127571 0.8006546855911424 4.47368326231639 0.26616111347694804 0.009416408217893461 -1.1719551007710138
Ni 2.7939161071337604 2.8343967654337043 8.947353387655122 2.038570360983089 -3.4964300764065652 -3.0977414504811356
Ni 4.96460461058014 8.637609728416711 6.9398993384633005 -0.20528793214065938 1.1560924227071443 0.1266599979241109
Ni 7.808028356376511 5.669272092196406 6.895704668908113 1.7379405243053103 -0.3884468935927633 -0.8752888767266733
Ni 6.768499314238272 6.969551373750231 5.084850182157476 -0.4031983408703249 -1.0404791695154985 0.32980003048383205
Ni 1.9721606203559972 7.237433115323434 7.743491076916723 1.2538704474895825 1.3445820523435423 0.7453535504854002
Ni 1.9932548530537888 4.86184529462217 8.585371475112172 -1.3308575036685983 2.1204926496801932 -4.6299518129020445
Ni 3.813645847229144 2.7311401210357946 3.8641781701491382 -0.11433541492048696 0.3811878980375048 0.7149057755185042
Ni 3.308866864246489 8.035504508093533 1.5912370627401986 1.6986779792602615 1.3072375502568132 2.6796001151477333
P 4.62175764435273 2.1165547719367885 5.834289421990368 0.5658689525610899 0.14131888548786628 -0.24668217881673
P 0.8248370463942913 1.16986662762415 13.333305098099625 -2.379113488916038 2.763532492296331 -2.3859397678092527
P 8.503368583855053 6.276979295135502 10.813458249016346 -0.8321223686415283 0.39792629383810824 -0.4845531870997332
P 3.727814465340042 0.6532850085706401 8.337325631448161 1.1171949743109986 1.6949951310920357 0.14831074342466716
P 7.291022600615733 1.007155775764849 11.02116794113466 -0.4400756735126486 -0.06489721489401726 -0.0424100895350947
P 0.4188227998057946 6.637420427870188 2.6292093730258737 0.8644064254862146 -0.3683902320522042 0.157182077772368
P 4.077530194171892 5.8612971713457 5.456211896748786 0.71007055891339 0.17595190218070345 -0.19996780547932658
P 0.04472859386146076 4.9724211122871065 12.57211013997323 0.9852570158173999 -0.43373661866849816 -1.6257098144326516
Ni 4.336722763379367 5.42769245660715 3.18838013529356 -0.31006989904475635 -2.277981202949386 -0.07520039659223822
Ni 2.2352379815282784 3.223044865912858 12.98619705933304 -0.13475665888931632 -0.5218938325317206 -1.0964621126390213
Ni 3.114899389114793 5.4928612493501054 12.551138831852104 -2.349502093807508 -1.0953344267924814 -0.4571429134075804
Ni 5.002204517350624 4.162329384959234 0.10082630353103737 0.8930179185753201 -2.3380208326407863 1.075953194052392
Ni 6.0695933356809215 4.89714623030237 11.215500436574159 -0.40408125769591047 1.7933773651173759 0.5848868884244895
Ni 7.461972214178174 1.9251208567821405 0.49429661316650564 0.7712975240446717 -0.014220514474756155 -0.20440192999128026
Ni 0.3677612443572611 8.061797230522009 5.261590387800793 0.6137338945631688 -0.8708272414108937 2.6350742648212164
Ni 8.09572816710351 3.463123132626826 6.52130737412208 -0.9515454824975677 0.11079012077138983 0.02874596178444082
Ni 7.336166885984539 3.865949785421978 1.7176429384839493 -0.6314763061482543 0.505227427619633 0.6648176006128615
Ni 2.472182140715084 8.268404354872533 12.82095264749669 1.83878536093853 -1.7698803104367002 -1.7635836787947112
Ni 5.057529960404976 8.312854257136518 0.044676045950825694 0.454352752256953 -0.6260913876872573 -1.0282188640909065
Ni 6.787951424728718 5.985863870217222 0.23818935699774718 0.7345153222193157 0.4155769170403359 0.2526281119875198
Ni 2.6781793339600224 6.884461292743303 3.9084694903256714 -0.36981205210039536 -0.06289535397264007 -1.682255057817548
Ni 6.688710942072203 4.7962636254385105 8.735935314414847 5.447033742270683 1.2154044302039002 -0.07902568387559938
Ni 7.047265980157309 6.255678624217357 2.664641678482663 0.01498130390018065 -0.8016501681946 -0.45400436777859876
Ni 4.531609826947177 6.514993179645949 7.930888186507943 -0.3151213454257347 -0.2704222027461472 -0.9083897730457
Ni 8.97463889025238 1.4924357304797053 6.715545095651329 2.1875573045391743 -1.1019611880803795 1.1387852988872647
Ni 0.013716881386846947 6.205251397118634 8.319663903341494 -0.7538039952455986 0.3855618587354844 1.6166243071916158
Ni 8.84564315319876 9.142041519846956 1.6018536173995763 0.0022013785266929826 1.1040062435348663 -1.5586891254377286
Ni 4.275354310601984 6.166103203695506 0.8610172212220829 -1.3240183692595777 0.7887242041615513 3.9307102262833595
Ni 8.711514611302746 5.283936386798356 4.879901132058597 0.6225916020641148 -0.07814148149843315 -0.5588747806314439
Ni 2.160113236431072 4.707607793352773 4.462737344859996 0.5025087431368894 0.7467871976081332 0.30151378194462913
Ni 0.6251343421589964 8.954154588660174 11.597903780887663 1.5399956627932831 0.37343190824116973 -1.4643548362295167
Ni 4.787902877514252 4.435644205149884 8.820631286092015 -5.67613008968485 -1.973269225782434 1.3599135404942901
P 8.595562016353187 8.848176713175807 7.3965754010372855 -0.5984923950230661 -0.2432662111566456 0.31059234720712964
P 1.3764080670863803 8.494275918604092 9.517470067379202 0.05914822822538201 0.3379843660668373 0.5939047756523835
P 1.1037876300005516 6.016041384610505 6.253306461394403 -0.9472597106380203 -0.7704251487420474 -0.8126172087290651
P 6.150019789618987 2.6596374283502198 7.951956145250416 0.6794384358498298 0.6255152034688131 -0.12027877698811543
P 2.3047325933431564 0.8404606662527536 5.022746058631202 -0.2179647562773795 -0.3608445584944624 -0.5294626460179139
P 4.972890290060634 6.055067591812514 12.794720918178774 4.205496362425158 2.290797637987765 -3.988726912007459
P 6.710987502759283 9.049491512240943 4.699261120761721 -0.37600172585087505 -0.5521104653244169 -0.8186850121896998
P 5.298621651109764 3.2203517854928108 2.3830993568554373 0.4104287971804932 -0.009670690320544635 -0.49527391595134707
Ni 8.031732318794374 1.6309557763359337 9.068704342066889 -0.26486656303524064 -0.26251451786329627 -1.165365363368638
Ni 2.4207790238474227 4.1793980723601605 10.448619982188161 0.09031539785680574 -0.17972371051830982 6.680014233685134
Ni 5.19513041782509 1.9960793032504236 9.835585734808435 -0.6776520333733684 0.8687186797083233 0.14962354869881972
Ni 1.7522382307927655 6.690850392719487 0.8288710368910799 -0.6850763508618976 -1.1115981969495115 -0.2562857633447651
Ni 1.0657654632338915 3.150744571012286 5.590637897353214 -0.7249330778475193 -1.4628306862755065 0.4219563382041185
Ni 6.816984145354592 0.7890096932521923 6.509400580585502 -1.232406878299168 0.36660254402416215 0.6720915085664554
Ni 3.856500545063136 8.293815023086777 9.351030190575905 -0.5005601040509509 -2.7296980602453895 -0.33950105982167983
Ni 0.26016282884312925 4.479765682972399 2.8059214280027795 -0.4225795736104141 -1.0625975986810925 2.469027280459051
Ni 9.023630433364112 2.714033899412986 11.779684832529759 1.6369648185211807 -0.958998082120871 2.904032738537644
Ni 1.3678877987191227 8.632411238686027 3.2460758644597703 -0.4443565602761896 1.0276825319714622 -0.5655658194983744
Ni 3.1394936880030992 7.930605741488279 5.766334651628207 -0.49698421377423446 0.726540274433639 0.6625100355256074
Ni 4.435184410931826 3.3225105539006656 11.717401483093997 -0.3920256120829571 -1.0070792538988138 -0.3610571887259008
Ni 5.990471195953262 0.9309979012103352 12.786535642741814 -0.07747813688282142 0.735851781642552 -1.464913022725832
Ni 6.197134621636609 4.339040501580593 4.2034715839198515 1.108936333846632 -0.6886740955154849 -0.9397708584601427
Ni 3.7303292582061487 4.05352705927823 6.615260223270941 -1.6566353003669145 -0.8215566773105398 -0.22509365401267686
Ni 1.2562797899524258 3.0019213812493963 1.331977870288883 0.03942452454420952 -0.3854736698970523 -0.20101038781122801
Ni 8.21953479798192 9.373439997750667 12.749234133035293 -0.5858230270855137 1.3849859100818858 1.6536301949920036
Ni 8.368479973965925 7.959272503450803 3.4362064037595594 -1.035319736801746 0.04202005318552764 0.9330952462121801
Ni 8.17105935042107 8.735808636415996 9.898307296284672 1.0592117129279952 -1.7003155148636846 -0.5163996421863687
Ni 1.7523883676802943 9.290451833169142 0.762081704118361 -1.0772580289067446 0.24340505072735502 2.524996339625503
Ni 6.479626559077454 1.6295294759044106 3.829719877750193 -0.1788086549032082 1.5019443644475163 0.1010852347788001
Ni 7.546386679191223 3.4117481664255767 10.448193968769797 -1.1699262432664432 0.14308780446283098 -1.3697806630963572
Ni 7.068360212855101 7.553030236464371 12.026617786514963 -1.0159233345530052 -0.7902385839235487 -0.4070724791137505
Ni 4.448809333475062 0.21135801848526248 4.430298393598312 -0.14506601123512436 0.5176782517884762 0.36768677822727647
P 3.695159692302535 0.6031486716915028 12.863032263648817 0.40000837317811755 -0.39156127085202885 -1.2007797383121899
P 0.3274926544109517 2.846051141328125 8.573396181620657 1.5770781694678773 0.4643754266002777 -0.8870794416036981
P 6.844459195772357 3.3772260658494306 12.616607898370116 -0.4438472247399388 -0.8249937280165469 0.6527280164381791
P 8.372730724594085 2.9147106167061234 4.200106640928113 0.22037850792519464 1.7645385865088126 0.3949129609330812
P 0.7003416625443439 1.413923521857631 2.5752351619592826 -0.7677067213696198 -1.2751928631164426 0.542159524759292
P 2.7450840844650295 4.617422441725338 1.0164464340362387 -0.3183424234661937 0.002414265868447455 -0.13437613562144599
P 6.942254610886408 8.154478607904611 1.2254548102316758 0.0828550849240186 -0.8365582929256948 0.27488383806192657
P 3.275039146775164 6.03498678310554 10.014797568962694 0.5433805416505867 0.9215738758361418 -0.5641123748812994
