# total energy = -340865.74335378804 ev
CRYSTAL
PRIMVEC
9.31577339313604 0.00000000000000 0.00000000000000
0.00000000000000 9.31577339313604 0.00000000000000
0.00000000000000 0.00000000000000 13.63457601366022
PRIMCOORD
 96 1
Ni 3.5729623227534373 3.400648466577219 7.500080530649331 -0.13513358261276082 1.5688177292312981 2.5258414612346174
Ni 5.90791428692536 7.060629426436243 9.165461298807541 -0.5522163947746618 0.4758224920949547 -0.0560024835075487
Ni 5.696287868005798 8.755121985725486 2.6979960284881774 1.5550484433613478 -1.5798709017216663 1.520980040922729
Ni 7.952763759061623 0.6746482923869643 3.2429156585540544 -0.6042161848807207 -0.6836324193265194 -0.9967007388779673
Ni 6.970257110992362 1.9584549918325256 13.519608958982406 -0.5578617659858973 1.6523960654745864 -0.1385194683658582
Ni 1.7850511901963624 6.674853944027564 13.117170353118983 1.019871777677792 -0.8193103044785245 -0.37431045419138115
Ni 7.742022338592445 0.25198234825704224 9.735223301164336 -1.1478890609607457 0.24517319837137128 1.6514907800514975
Ni 5.491499226587093 4.930335682858758 10.90748293276895 0.4197608732146964 0.6811747018146462 -2.399557872813319
Ni 2.52198474194399 8.121994094321243 5.898726139855748 0.5530183218506669 1.2841205046233755 -0.7791923534117162
Ni 1.3926521930695503 3.307677050421159 1.3116049665607603 -0.8951190240787229 -1.1513711059720753 0.03437744903860531
Ni 4.859424017550149 6.673596314650704 4.884995814879646 -1.2507054194980394 0.2965456393060764 -1.7534221648806771
Ni 2.722385654203426 1.4655760653811376 8.635731036882191 -1.5203133538730076 0.35044701731022226 -0.08784199661564873
Ni 1.5425802463376506 5.950934527387152 4.797148073962647 2.3307006448302894 1.564442225871422 -0.12337464230461977
Ni 6.611245844877906 5.642694225005215 0.2568367976517239 1.0979014161887093 -1.2147624257445273 0.15969301711967981
Ni 4.022439062043393 2.9412876919624553 10.086818280264579 0.030991820395824047 0.4303509900257169 0.05495527318995697
Ni 2.9375800142440074 4.640885294944434 11.37326786455618 -0.5538017369839108 1.1584025588975597 0.5734637341892124
Ni 6.024426661861618 3.7208781690185604 1.7353543351094147 -0.31642823716261637 -0.3672221798860321 -0.6927634350935101
Ni 3.728470524145533 3.3605813262077584 2.780690283691997 -0.873939047566998 0.7946590815887474 -0.6534684941486294
Ni 0.13114093353243597 3.59648464998731 12.150670066496549 0.6360436138039626 1.76598123249261 0.3686748531721586
Ni 8.700969396335186 6.6288899192466015 4.372908695745675 -0.8977248371326861 0.35791735754533843 -1.4577255038384571
Ni 7.711047392829028 0.0427994566378546 0.7458058941070498 0.6450293622423406 -0.7085932030369151 0.8065260082296626
Ni 0.5240606823789996 0.6850502846995752 1.8708680925640606 2.6456918924360626 -0.33021834896817326 -0.2651018189744983
Ni 3.2711592196263934 8.46440465266114 8.555109541206901 -1.2538503928849245 -1.922837294384127 -0.4574614730892637
Ni 6.403923313159157 9.255528056891713 12.103454001802621 -1.3984497488962755 -2.3493303441163347 0.13748717044660194
P 5.012910696166105 0.5021332155104491 1.0216673637100668 0.316099650178604 0.6041593635008563 -1.6186102272733929
P 1.0910819842715553 8.743048743707625 13.594463059493144 -0.5906500161605118 1.2037133670192173 -0.9220734411803796
P 7.062175844781124 6.7837367007442015 7.042558689656732 -0.10683730677122891 -0.4475323869010099 -0.4504534172025468
P 2.0714460045135734 1.8916515824883262 6.505888176725744 1.1520830444374353 -0.9856514230423413 0.1569059412928459
P 5.288713476398202 4.201534801081496 8.713366827259083 0.4027753944002934 0.4092977688998435 0.17630542886538025
P 2.4733005113997444 1.5984842010823919 11.050755797690165 -0.8156040592715308 0.100621150658188 0.09565377935058365
P 3.7436924974921264 4.698093457931846 0.2172261301671979 -0.7451344924960586 -0.10040080711726579 1.1199763937108775
P 7.171366022012104 7.378027133836357 10.940533432792844 -0.42353576687609634 -0.6226234837433148 -0.7219099747504792
Ni 5.009612912466783 7.881442199733888 6.855601369647276 0.447398689536623 0.5080055045854025 -0.05128656608911813
Ni 0.48097150519580906 0.7254593139440786 7.439664946962266 0.14890878201998223 1.5815876273024567 0.5409675613337199
Ni 8.491401763284411 2.8794589054867266 6.183062168304174 0.5738200890873666 -0.39853795928017816 -1.302432672669002
Ni 2.34015016559628 8.711859535161484 11.692221306074337 0.07542845344264429 0.5730634134270001 -0.379016858528115
Ni 4.225439075015008 0.4807740108047761 10.138274884901817 1.2077381719078943 -0.7917591343331333 0.9145395946971797
Ni 6.889796778192773 8.037248505867167 4.811137570519917 -0.45240128495753706 -0.44630828468592165 0.6471158124577242
Ni 5.491741436689303 1.7444809980761575 3.113019312316052 0.16977739793887534 -0.020312486305106955 0.23225186232401293
Ni 3.769655557294425 3.695865318078778 5.363610429465487 -0.5567127399831187 0.5035947771122166 -2.667236194265742
Ni 9.024916092268137 6.059053390704511 12.234277267470235 -0.8087633822006136 -2.028458726470384 -2.2556750832530184
Ni 1.58356033247698 3.5484338920180756 3.8674339124020416 0.13603166894699797 -1.0033516685355817 -0.8970784617979389
Ni 8.489184609271872 7.960589008517644 8.37610137043652 0.688796480025962 -0.42259551445001414 -1.0516799233273242
Ni 2.7337881605536283 1.5039384192619651 4.347180393427057 -0.14549384280116232 0.34387990561566584 1.5244556581761552
Ni 2.7336670555025235 2.9202619919359796 12.918160285792622 0.39791960896988887 -0.7388437743913405 0.07889018673899961
Ni 7.285614664070013 4.41336616701062 7.586714426323331 0.06538932403908738 1.0556813311772335 0.06563075062593213
Ni 3.4650856695382886 9.361234134960132 2.7915291857659024 -0.4034413101190665 -2.7371231490648666 0.13358526428903444
Ni 8.648093067868073 7.197757607379852 0.4213906147840539 -0.7544570554485652 0.15634981167905976 2.221901072126367
Ni 5.944059486793647 1.8767183981097526 8.611407553156393 -0.232785880450612 5.641806119592 1.6512709507312078
Ni 4.338942455219962 0.8128468556668783 12.36237473791067 -0.5350226566041947 1.4296215465133895 2.1479445752435584
Ni 0.8347379910200975 8.465652966264837 3.924903848615303 0.5766408463656134 0.6448414146012508 -0.4718979602295679
Ni 0.7087626537059516 1.6504848468722846 13.177380989796484 -0.8838876741392778 -1.6120770541405656 -0.2614446818378852
Ni 4.170326960989031 6.592502509276104 2.513397462243323 1.2516613556534055 -0.6495899850298297 -2.3556182340075753
Ni 1.924750524532663 5.326964041001087 2.4075795948969607 1.2898332387374367 0.9536604719580414 0.5184925201596554
Ni -0.009765725005651128 2.317233363617932 10.271948777156979 0.3503755406423385 -0.22233357476903645 0.055959031864122974
Ni 1.597822781187895 3.8636703400446217 6.150175625887928 -0.6064111356495104 0.7550162703861448 0.9893818366190509
P 7.408005291871448 4.381273328467771 12.129250309265323 -0.6256213900293742 -0.27622749657401463 -0.11386310326975874
P 0.817580200010455 5.199440422187428 10.434826686697479 0.38804785838213174 -0.45776692014482445 0.35592089594059995
P 5.072652749453562 0.5088703826611568 4.976743138442229 -0.7734994167919969 -1.262243502044626 -1.2852340494025285
P 2.9157438419524433 1.6181684297735497 1.6459527232290057 -1.4841307333048632 2.170416016873198 -1.0381453791759991
P 0.5723704188421358 5.316269533411192 0.8183785617704323 -1.1887271780230302 0.4029815968738286 -0.8894021761996038
P 1.302727034737441 7.474575806886599 7.611433830408512 0.4947488966858125 0.24583525743540244 1.245617720562487
P 8.665345879763967 2.7360984722977872 8.275805893420552 0.0029701383719174653 -0.3484302439905096 0.29016544681134543
P 0.0011123033155344317 0.9721661398595199 4.88510480942564 0.21852422832527524 0.2048683281047375 0.8079277736731957
Ni 5.967218498874205 7.776295068055185 0.5548791231532962 -0.6491989202389981 0.21841058556554643 -0.19755096850771783
Ni 8.156332034196115 4.343814604583652 2.574058050764546 2.230466445197875 -0.4529098491628394 -0.1271557066136068
Ni 8.09904934502341 5.905110239203619 9.236456806074608 1.0747139223286524 0.20187093603931042 1.4845703919454434
Ni 4.382428484339851 1.3032021391686992 6.87044884891276 -0.4848216102697715 -1.1311226401356842 -1.3022403541525378
Ni 1.055365309968716 7.359591218748898 10.113596470218546 0.3871338312082946 -1.3916895473543065 -0.48597860669235016
Ni 7.418159484617952 3.7542379527114313 9.836800628567389 -0.06477508749385619 0.22547700549402458 0.3077546206480184
Ni 5.34667621701173 3.740254977195374 12.802089478504241 -0.1877121280404251 -0.6261448666330119 1.0454372848517222
Ni 9.266725616232353 8.345069598456817 6.119115906588737 -1.4230058409690847 -1.0785474371421295 -1.1028412766924878
Ni 1.2065882557063243 4.102536079689667 8.620746615751226 -0.604656871962565 -0.8948922527798975 -0.1634080040774218
Ni 5.066234181744993 5.328063302234194 6.6256946090520605 0.7285578190843001 0.6109907846003928 2.2379360141020426
Ni 2.8771020148767583 6.050147511561706 6.77297511958754 -0.24996059245768565 -1.1143361647059649 0.6327130067688329
Ni 5.870753667782421 3.247711418577816 6.247662397295576 0.27790976937244394 -2.566553594241999 -0.8944225122323306
Ni 8.693106883786518 8.398933398879095 11.959241175369366 1.9112819854463596 0.6040158959444565 -0.050722723165848124
Ni 0.8118072153820071 0.2453774650852339 9.729278906309709 1.2938760413482426 0.11649899823070903 0.17203302674227144
Ni 3.276413315689722 8.485281300317023 0.2570417446612864 1.1383309849586654 -0.1392864284388698 0.6875836906647835
Ni 4.665208778670233 6.215185748898456 12.705924615308271 -1.1625386925531205 1.4595818403209055 -0.3168398707787382
Ni 1.3329287713284177 7.632580635486092 1.6772984367642674 0.8212319469812694 -0.8054407455852838 1.9776943514333227
Ni 6.205674344500126 2.3289898693482876 11.055704336393784 -0.402286627689333 -1.5638225900095517 0.9462562090741704
Ni 2.9339468627108545 5.684186678668452 9.18579111057882 0.5413668536546676 0.5424431174379819 0.27352115338644506
Ni 9.508050719992147 5.6999303353121125 6.829845120009173 -1.1919354005476828 0.61775509990742 0.6305039149326561
Ni 7.1606715144222095 4.971669768378242 5.167150089253547 0.2619229070258844 -0.0666512214706465 0.5195644130675955
Ni 6.312675315038053 5.646727954784331 3.125045043890788 -0.06694124190723956 1.4917921065048632 -0.8045218333154402
Ni 7.055067909858572 1.015344748465065 5.33645029281188 0.13004999744226636 1.2514548960695542 -0.07717166138599613
Ni 7.287850449628876 0.6292525297688798 7.493194311128032 2.026072999847027 -0.8553653983298688 -1.1831707669811753
P 8.004429037017687 1.073037331656897 11.747427509409249 2.1205142469467484 3.3287075041141896 -0.1491671778876915
P 8.495249177600288 2.2403130246198772 1.5273452309086304 -1.0164061877266948 1.1741225407359779 0.06260996152173734
P 5.486617761450242 3.730119415995195 4.047723933559504 1.0121029323656505 0.6038446604739149 -0.12957305780584782
P 9.341112064930362 4.580062611970194 4.742282827925461 -2.840882074021088 -1.0711534586709037 -0.18359090678319995
P 7.688363485179729 7.610260042990109 2.447733371956828 -0.45747818525981215 0.09118520205626877 0.3920276689654861
P 2.7574129612922826 7.382843388561076 3.6327146233913714 -1.3687288247930751 0.4035621519676469 1.2418274002821195
P 3.670684783222082 7.245528892154228 10.633428723159348 -0.10139222449625764 -0.40831406483033555 -0.09330147706832319
P 5.424202081265311 9.35080046901877 8.415914190198661 -0.8810720590673536 -4.191418287065536 -0.18622423064098895
