# total energy = -340872.1855606173 ev
CRYSTAL
PRIMVEC
9.26081673125457 0.00000000000000 0.00000000000000
0.00000000000000 9.26081673125457 0.00000000000000
0.00000000000000 0.00000000000000 13.55414138389360
PRIMCOORD
 96 1
Ni 2.8923289551192592 1.366146392407244 2.0541704211231586 -0.46912476835980493 0.7881655034446039 -0.11760328703848133
Ni 8.941077570095997 4.392229320543795 3.7431525817899045 -0.3211732080467694 0.4036076604936017 0.03409848434560579
Ni 0.19783048860989283 6.078475836010145 1.2638977171954515 1.3976334236425672 0.5584739456485994 0.25375014140710495
Ni 2.6128838165887065 8.255601192005095 1.7187871725589325 0.5980985020187571 -1.0489728088088064 -0.11594338283755515
Ni 4.42187319422851 1.734199023413698 9.160498726343674 -0.13100953314205824 0.372102905017101 -0.07530658315279934
Ni 2.8908472244758494 7.537128524648762 6.550892312721859 0.553214497021873 -1.002464380834622 -1.991078743160029
Ni 7.104268699626176 8.734941055148141 1.731636555482251 -0.8149453426416094 -1.1016076613957027 1.0771698400683127
Ni 3.9663706728113186 6.722769363030778 8.389362573675603 0.9396042509752915 0.8311975428344136 -0.1006733440523621
Ni 1.3197219191859129 8.461969227365984 3.833450173280945 -0.8213000812150435 -1.1332450857953256 -0.45716990999077395
Ni 6.751450111797277 0.5778286468471856 9.376822139464974 -0.24292631131872353 0.8006970602527114 0.177632632317236
Ni 1.6082982228064777 7.366053461050589 12.960008933155667 -1.2069971799768118 0.2979790293184933 0.14532594976473034
Ni 2.6151156733703425 0.8696888360062074 4.4269045958445385 0.6352565991262931 0.23883234375500803 -0.1478281473612938
Ni 6.370812031138362 7.722474506506277 3.8244227293359714 -0.21828151618684988 -0.734159995762426 1.1182743234181065
Ni 7.055260458595399 0.456091509347947 13.333235582352577 -0.7684757383251604 1.4623344633653783 -1.5873052465125244
Ni 0.0848744573361611 2.2048522406597537 4.974627254262595 0.02774888797849415 -0.04379025771207297 0.35754146226315847
Ni 3.4401525564373983 9.108966912810839 12.930325237959911 -1.0820076277765882 0.26811438054857695 0.2203473975769431
Ni 7.6755869924588795 2.397356833688241 3.2081292810675213 0.6611779469777451 -0.9799898538811898 -0.758147616926275
Ni 7.757128481929021 7.698322297018698 8.584976022810295 -1.0601092850416 0.26288064295346336 -0.12282596889000137
Ni 0.24213793917445212 8.746850465194546 1.3675725581515257 0.5585557067291284 0.009618239816054404 -0.7792275775250258
Ni 8.431038100184805 5.862782158412296 12.678814426384239 -0.7721894397313217 0.03259413188593742 -0.8280525694475287
Ni 0.4816309891504179 6.95628085161563 5.593835081490302 -1.4998584284527652 -0.39713645094696126 0.13588203074301114
Ni 7.5879796681672795 4.761735899744094 5.958698287286816 2.4320679296258825 0.24478727578686232 -0.28732797736255034
Ni 5.592032926595254 4.01265623378483 6.228534402594856 -2.1461689714003747 -0.7820797022618402 1.5785164445763007
Ni 0.9126423551953511 7.700776413396844 8.349404928631104 0.6572001932769197 -0.6995804580153435 1.4656830681226372
P 4.410167522145573 9.081777155504271 4.84181047587726 0.8786163984380094 -1.1264599445526922 2.7430307727985532
P 8.700953858514929 5.898547431817597 9.219039125819835 0.4510879654627521 -0.589942705680842 -1.355240817608969
P 2.769067487220613 3.366445717744285 10.231777016385774 0.5664777897896826 -0.8253110021466497 -0.2562510534520877
P 4.893804404154507 8.350135607054636 0.7902773343359676 -0.48907755733264796 0.5070449404443461 0.20986243888521922
P 0.7585747811385644 2.8325966885568046 6.975923043457329 -2.955650976934568 1.9388997471636285 1.1746591299657383
P 0.5955677408937565 4.308326322860719 13.183476140141504 0.0908869540895596 -0.9217250567020254 0.26403352561098403
P 7.055742021054507 2.4033578427940503 1.1534245108310832 -2.6864058252156573 -3.213239518251157 -0.9935691352275211
P 7.3806670295212164 6.839409347116687 5.888067891842083 2.1180130777914488 0.9004563771312363 -0.9285773037371686
Ni 8.523609222131828 9.142435503718858 5.485320537820191 0.8266340918334473 -0.19071183409869738 -0.08131293724787932
Ni 3.022767555821922 9.238831342889181 8.194549259088353 0.7154253954674001 -0.4106931065854733 -0.10832160462623926
Ni 6.630161197817671 5.175027619457151 8.624228919717522 0.2853495134799408 0.5929136153837078 -0.2212801938038576
Ni 9.354721200836863 7.335733547759817 10.734649540391123 0.33847081878495255 0.17962446593628417 -0.12171062433863554
Ni 4.3034643941870305 4.18950078607578 11.911311292037478 -0.46561366988275293 0.6359515683107886 0.3391285069736095
Ni 1.6485549922246159 4.967585329379791 11.379542242240685 -0.14939009253177496 0.43746189003888536 1.0513047993760927
Ni 8.383483807347874 4.406815106564859 10.654191566453974 -0.0685461245005142 0.506530719812089 1.3282858862866802
Ni 1.4407885735690087 1.7612128252063612 8.996534117670562 1.0161094824218824 1.7957456082392365 0.4744132704522539
Ni 1.5049289887956072 2.2462110472439276 11.753392144389478 -1.433545564158144 0.47116365316670467 -1.2349944365206862
Ni 8.27534525282853 2.0755064163066064 10.96986779746085 -0.2844537411385488 -0.5951579313331944 -0.23677520411566316
Ni 4.550404066727783 6.416106684744093 1.8411271892137084 0.3015268945707517 0.15135210135415225 0.15034654290777333
Ni 5.3372030383783455 6.538673591403641 6.165561776331595 -1.2023614809770131 -0.46365526060480144 0.28523329961705074
Ni 6.5097705830406305 8.687108937815571 6.572850634775539 -0.5984489433796403 0.18384904554059303 1.2444797503033018
Ni 6.948603634719462 8.160020304688645 11.260333307651763 0.2516829744654311 0.3016351380138418 -0.41183544772003267
Ni 4.521176929786526 8.54283467723007 10.843624346642343 0.1785461452704409 0.1503030912643476 -0.9173739788221813
Ni 1.9509299124619337 5.3845998973344145 4.673793333894423 0.18389018319117365 -1.1850672126729396 0.17671320582676017
Ni 5.254994770118669 3.8501844687349536 1.050200671639597 1.8424646095623303 0.17742488718180413 -0.1119031513299105
Ni 4.76283793691013 -0.01968756984265457 2.8494597093604597 -0.11013654634779096 -0.2453583177989839 -1.8495297439392278
Ni 6.187336734218154 7.015475990819848 13.2813370404855 1.3114359046088768 -0.02558119090321401 0.6595722930535222
Ni 2.4303994270362774 5.191141440204232 9.123441569033648 -2.1937210101477254 1.9929150250378191 2.337994864498857
Ni 8.811907701256754 0.8394263397778681 7.873762909525017 0.6929747797733679 -1.414971914921015 -0.33413876706850193
Ni 8.592593044399072 6.897752491200945 3.4637333735456117 0.39514641710012594 0.015780659873024436 0.5866072135497059
Ni 6.177122053595148 3.303157297637648 10.365855117981312 0.12135144122700389 -0.25475518563285154 -0.8338907733958606
Ni 1.4176550538987742 5.54212638636191 7.188926453855737 -0.26500128884089197 -0.9432709011936014 -0.6908729029390166
P 8.497984542817361 -0.15954719919244625 3.320520402533453 0.02038627696583586 1.3431283506161513 0.20318656952694042
P 1.8661934412919403 2.79017288807268 3.9412729339569146 -0.32498178315958226 1.3550456708790277 -2.090992069117915
P 6.338306565148561 5.337527166956591 11.869008808249783 0.11829774200234466 -1.533690803621178 -0.44656642344331476
P 8.258425741044094 7.934436075046037 13.2525479401657 0.333598835404632 -1.260451700251526 0.6531365647305074
P 1.1729194556900944 8.705593527592107 6.576090068394693 -0.41773870057834506 2.1371765380937777 -1.0283366206156934
P 6.373247625883467 3.021461780692417 4.608218418188673 -0.16278862532586802 0.7249248503174031 1.37420553163693
P 1.5994634038451474 1.0127073298714182 0.11477578172016932 0.9758280091940164 -1.366427687463724 1.0751265843860387
P 2.3647680203497488 7.166464343383298 10.948533654440707 1.4095227188809853 -0.6446830346465156 -0.13807646729116865
Ni 3.3336346448092815 3.2083728405420318 5.355647806643841 1.1982556863387557 -0.5964295989567664 -0.8305426828592342
Ni 2.2615099161371335 0.014927510150700835 10.397869760695484 -0.9168379038130533 -0.5908006828057631 1.0205862872463132
Ni 5.278461679183671 2.3264375007680433 2.9827923152260314 -0.309187496439803 -0.6880747713685891 -0.6311590320181517
Ni 4.973753033182983 6.15113620243635 10.394534940666157 0.4687193053912702 0.24962454927450556 0.9296851920893665
Ni 1.4524386807528176 4.004312238099129 2.1447393545382734 1.056122275369394 0.7773401306943257 -0.8339925890810475
Ni 2.1732913779551266 1.5155233628959865 6.575113978333348 0.6667153318562066 -3.04858324358893 0.029610623777581262
Ni 0.4479318039110201 1.801664071771447 2.3906520025268123 0.891208119060091 -0.8514154125431853 -0.10867050332522574
Ni 8.52877675775072 3.7123279539987215 8.31659015136949 0.41405379552759014 -0.07532123844081867 -0.10955264881986293
Ni 3.825346958824798 6.867590011791036 4.203192903302538 0.3319787833027057 1.1401634101817137 0.10715226690848642
Ni 3.911898550032969 4.103227019363249 2.837003911139296 -2.316058469437082 1.1419981493976075 1.1151319211343826
Ni 7.507827301175335 2.1805981621904413 6.685512172083893 -0.7342335293128387 0.21612847439958907 -2.492808699149365
Ni 4.431013620135044 4.358529209222745 8.882665895969481 2.0559178511226013 -1.1166133907759155 0.018649753890703367
Ni 3.746639279210178 1.7748447471257307 11.505839405795015 1.8134368548714124 -0.11478612930466038 -1.1642240506753432
Ni 4.9698542294275105 1.4048195622002375 0.7242745689069335 0.20464207102654436 -0.8586674661199083 0.284074246311943
Ni 2.7328854770718514 3.5056450508761077 7.666927202929802 -0.13740078138038272 -0.8221986817699128 -0.42476064042213296
Ni 3.9174643007622763 6.660499632741485 12.741082304510227 -0.7043187440312773 -0.6305728204973785 -0.344428064809652
Ni 9.197870751415422 0.14844903667330742 12.11046237308331 1.4777965635567196 -0.418966145227543 -0.7403766660960992
Ni 5.865995661745191 5.266913440981597 3.7892223657384694 0.7818513883011181 -0.5276034813219881 -0.06231299910660882
Ni 4.700244078042591 1.2020910277322234 6.725524455945869 0.28090330478312914 0.17090405534415085 -0.39556653535668007
Ni 3.0313523327371765 2.6802377351481996 -0.07063132152638513 0.35977240847620623 1.4641787156629689 1.697107035228716
Ni 9.043909676748632 2.0024107915039004 -0.14029303556298903 -1.27695561144382 1.5817274953144307 0.502623928558515
Ni 6.124613223919316 2.7724939893334977 12.703307433919802 0.9352390320280602 0.2380535566074545 -0.7186148489389753
Ni 6.4147453447154605 0.7833863607624603 4.661093050117097 0.1928859589318807 0.6709106008844767 -0.2426830849596659
Ni 8.383900544091334 3.827615858872519 1.201070485751575 1.6027328939215042 2.982970490685127 0.6777178536142973
P 5.85652184644389 1.0318494376209677 11.449453998323364 0.4282663395825463 -0.2746933193176753 -0.7908366225188638
P 7.506549308495394 5.703662808943134 2.084382908942283 -1.608109070631753 -0.7016404258681659 0.7487165534203621
P 0.055062962872409596 0.3951886755771989 9.905379538092177 -0.8775671312378887 -0.9015717216826021 0.6408333218831221
P 6.160637800187214 2.832133647730739 8.081155191193163 -1.2691978218752722 0.8139940344719336 2.1163961110133163
P 5.450268347287029 8.32036208193862 8.481612345289335 -0.5739108490289601 -0.15315727288369108 0.08322789488240505
P 3.656901967118676 5.053979486707098 6.269332003697839 -1.0144565201994915 2.3375328372607744 0.6755527276421786
P 2.358109493270926 6.159517241388136 2.722715248368148 -0.6873813448459903 0.5670904836730168 -0.850545351233406
P 3.537428173177246 4.87192109471465 0.6181057900616705 -1.256734913521571 0.0819467141771363 -1.0414934697126257
