# total energy = -381163.37512609694 ev
CRYSTAL
PRIMVEC
9.31339910187371 0.00000000000000 0.00000000000000

0.00000000000000 9.31339910187371 0.00000000000000

0.00000000000000 0.00000000000000 13.63110099840030

PRIMCOORD
 96 1
Ni 7.0970710211852515 7.0449346120551475 2.8699053591681576 -0.15398748209447027 -1.046488608934372 -0.6472448818364207
Ni 8.646550571629081 1.0259081835150943 10.561772899562136 1.2549415690665742 -1.9391098062919057 1.1416171119091048
Ni 1.9546217322174397 0.9443414326823946 5.053103987062325 1.1758068704169364 0.7199135131457408 0.8257177506667651
Ni 8.316297433409451 0.25680767155296413 13.229896944101837 -0.4500289280706185 0.1795712441008456 -0.4197487890298384
Ni 8.915251454053633 6.694508651010256 11.819827804695288 -0.5075817867844227 0.29503305931629187 -0.8069882925780618
Ni 5.199121323543854 2.235346213103399 8.040564003193877 0.4984155469041223 -0.20739340851943638 -1.1958984989604888
Ni 4.489635880328025 5.243127135108653 5.9866157990701065 -4.643204049926261 0.30076070582868847 -3.225059907924852
Ni 5.811076849573106 2.694049754095877 5.327716084005432 2.795860772115391 -1.9097053849878594 -0.5853504583244693
Ni 0.4653793855913452 1.138758642505711 3.305092566996378 -0.25588621391350125 -0.2842591086292395 -0.3122270545970752
Ni 1.8447143073970824 5.748490806458727 5.213405284008813 -2.556255297639785 1.489020457296997 0.9074389790966566
Ni 6.56888020821712 6.459028663792401 11.034021848457225 0.18546421254651285 -0.7889237217668671 1.172911551147012
Ni 2.5992393494970094 2.3830380987742084 8.684783938324491 2.1288412787552047 1.1093173713351347 -2.271490967239352
Ni 2.9813494948685557 0.353119396114635 2.7445404855744466 -0.35418514419641584 -0.28630133587024886 0.6146965155867543
Ni 1.8056818510440515 8.145936733908224 9.55856426409506 0.6254876926649873 0.031152257233088284 -0.4442542303703704
Ni 5.892559779812349 7.428246185932907 5.791868894912527 0.846380421222439 0.2435994261263482 -0.12528985704946163
Ni 8.834420461763498 7.730540499535072 9.731474972317224 0.512627062517814 0.2892650464842631 -0.20609191609919347
Ni 2.4253116180742342 4.662697465618414 1.7484752273497408 1.3929370466081625 0.05947604387844597 -1.0194645149370445
Ni 0.4190834091453225 2.854426489576476 8.76368053758563 -1.801787186447626 0.8435635205989344 -0.27829363507442395
Ni 5.5795084900499 5.407219916899169 12.81241730231132 -0.8749263511809319 -0.29819243088088 0.8140390287772562
Ni 0.3736535788316864 7.717147831380537 13.696802795834023 1.9505409309469828 -1.0509972954380027 -1.6648893128455906
Ni 8.692735718623757 1.015179147552629 6.076308490768475 1.8107659929074684 -2.024267571207172 -1.4039279984020272
Ni 9.320570590413428 7.907299504336831 2.1135977324473836 -2.1919328078990508 1.5719555035293313 2.5785030532943916
Ni 0.42305091723560917 6.210146695020737 7.704761941687409 1.4711422914649952 0.7506304826136233 1.3342235919273537
Ni 3.838070467190818 0.0842881261002624 8.979242889118304 -0.20174623753598803 0.2216067239053409 0.17264623484623814
P 4.66237149664386 1.4008283846479048 12.668255194964969 -0.280069238917608 0.05087210425951884 -0.03419721470699917
Ni 7.986714859937473 8.931503335784972 3.8834053008318694 0.6630823630893097 1.653632508984849 0.6197124807441069
P 2.1181091430552117 6.3254838316172375 12.53641471485676 -0.8164023868031103 3.5535823572478415 -0.0395942173528544
Ni 3.8409110539690747 0.4774234735311542 6.573135500344942 -0.34401386009036883 -0.29740850152700393 2.2794475030822676
P 8.347637021963006 4.275688472229285 0.7177212821929186 -0.959969702005521 -3.0005138988855293 1.8674073955505968
P 3.2270649078874083 2.8377368780793084 2.698658024056144 -0.31377974379617574 0.08933246511824615 0.0113979574242965
P 5.026646482407663 6.275489504319917 4.029571651701766 -0.5021076510437288 0.5053672956316071 -0.4878971638713016
Ni 3.0667161126046283 4.580106240865687 12.446190228059905 1.6639009807903924 -0.8679560905106859 0.8226547954707252
Ni 6.704129392459237 7.334655836638799 9.14901777580526 -0.6416460475924046 1.3986155850501785 -2.6454574078277537
Ni 2.9243980583143236 9.147816347299049 12.882004227659195 -0.7157892065647221 0.12935322848555786 -0.22374896705932434
Ni 4.838543757291422 3.6001596827627163 0.7033004147586468 -0.7645573771073607 -0.5364578463888244 0.042397748239920534
Ni 8.0724074466481 2.914246453106783 4.777142378564563 0.8815441136077657 -0.07077887048577489 -0.9301269076124756
Ni 1.0730432972356116 2.3930500029926547 6.674251076251612 1.053131053951554 0.7994302777251459 -0.476924724020198
Ni 0.35706455204666643 3.1146428652633484 10.945733617369221 1.1632300621931901 -0.0972370646773035 2.297327468686482
Ni 6.687486347958434 2.1656074793473756 0.36055242007439486 0.08092135823641548 0.4329781432359188 1.891441296571349
Ni 3.1963306902865964 6.859672473717164 8.008640464505907 -0.6230060638937142 -0.12285707923825291 -0.17509289661451782
Ni 0.41846872479330627 4.952893673564987 13.006251493340148 2.7378553992452006 -0.2755628664068222 -0.06659517142173046
Ni 3.2572496349311146 4.8394099034238085 3.9546546679499692 1.970100341136149 -1.2676446184555394 -1.556670295235487
Ni 5.324768393135536 5.9831977815369255 7.699990687239865 0.5725728469438268 2.8781535567780367 3.1882311691322767
Ni 3.7574071160875966 6.664156282779636 10.892953652349355 -0.5259080958974361 -0.12393874233820593 0.12804273720425044
Ni 6.992109011378844 4.73460622140504 8.854326921369552 -1.3914108397716232 -0.6068711060050646 0.4926187377166871
Ni 5.285717309983959 3.377196904167737 3.1661366498436174 -0.18373848810465776 -0.5890389629196501 -0.40583243605906233
Ni 1.6308227796939792 8.280133504032495 6.711708636787583 0.5641483703255574 -0.8964745096653529 1.324404548954403
Ni 8.627886519486044 8.1870553916984 7.288822736136643 -0.9321171985696269 0.2746835491256624 -0.3040730580313731
Ni 7.258239395604054 9.40383237991381 1.6686789537188333 -0.3700982158822465 -0.05491619242190542 0.5156581360346539
Ni 2.3873967696339604 2.3524342687632185 12.300228771974012 0.4864066953687043 -0.2418896425240931 -0.054233821642900144
Ni 0.8491231011953707 2.989303137847674 1.0891470959185097 0.4463658773967345 -0.03033567486906388 0.12096423309091424
Ni 2.0858382145743595 4.487810454070523 7.10676533848849 1.0805251296937906 0.13433602641212994 0.9542407699415437
Ni 6.722681683811 1.8959286899991623 11.861034939778559 0.06103644638703037 1.2304479548005842 -0.4425953546107087
Ni 4.936297196060549 0.19671016872432237 0.916689950240937 0.002833098573420927 -0.07748482175104075 0.029388737574762288
Ni 1.7464206914701228 5.672502781790538 9.854440714258219 0.27638536230811755 0.6739403888497362 -0.6509166742610532
Ni 4.498399789043893 0.7720128119147888 4.556331926541569 -1.154993790326327 1.2620570970654328 -0.6526634817488308
P 2.589031863893831 3.8533723821963126 10.453827807968594 0.3370788235334324 -1.6770444601508858 -0.638017706811198
Ni 8.262335598021844 7.122040244636093 5.05141360509428 1.2013343252640794 -1.9589119286194971 0.8600476342968866
P 5.510393754045166 8.662569618378596 7.845871116752082 0.11808176933679664 -0.026655140693683126 -0.31129322992889613
Ni 6.496952825631948 0.4899164673159205 6.200828639048128 -0.8616931403201096 -0.3699274946323371 0.22925832691332773
P 6.0535046326485995 4.261895327906011 10.873379681097347 -1.287482479117073 -0.7655310538745396 -0.8473276156270569
P -0.22325801335193257 4.817216072956313 4.171771425821303 -0.17943883228803936 0.700842869667535 0.36037147551278575
P 5.9714628984529785 4.15883325155129 6.755191966653168 2.0137533019394094 -1.7281932151105592 3.482944383215305
Ni 8.85732211057574 5.10353790680533 10.044036377277918 -0.40401183791055584 0.3983451265430817 -0.23669112904228912
Ni 5.051606392459231 5.7156610740214955 1.8260223150562251 0.599018185619549 -0.152239389055112 0.7507081299290942
Ni 0.9497152640629001 0.6420378056809561 7.962362183518504 -0.4057481038753722 -0.7857826050347241 1.9126539260932223
Ni 3.42600842975739 7.016864026646406 0.8263909562498977 -1.0637144858943552 0.6599327617167344 -0.827538863035904
Ni 7.503386691267255 2.671557894851647 9.750136230440484 -1.4202269926723672 1.1453956051149305 -0.5047939396266403
Ni 7.491921896762225 5.981838025243071 7.101463220282386 0.7269225974737222 1.1906699035716977 -1.1888955852800942
Ni 8.16330622355232 2.6008691943697797 2.3002484986169676 -0.59355767672561 -1.3340790959296893 -0.25302097655056427
Ni 1.3592626836926254 3.1851918647561206 4.603917808786899 0.3435091525398084 1.172279573989968 -1.5172899936656514
Ni 0.41149950811734043 5.679143235472168 2.081114458463108 -0.8957186053359348 -0.9365811478782515 0.5381198074722796
Ni 7.758573831346721 4.099283376599899 12.097779686617683 -0.23775376597884862 0.24150243438800345 0.6805113571990346
Ni 0.7875419738625444 8.76084460750701 11.560305277254251 0.6287938742200848 0.27354609308710953 0.5892829606096561
Ni 7.169668968518078 4.623394920686467 2.5910817430738122 0.9732193679265754 0.9773228485719878 -0.6118891280449461
Ni 5.868130733519341 0.3756522343156664 10.604574488600939 -0.8594927902346811 -2.0420812023498254 -1.3051444151732103
Ni 7.619515466801958 2.5310838936173914 7.189369602000198 -0.8577539531667033 1.4571135812860712 1.468847839003864
Ni 3.1034481593372347 1.6933343156141756 0.825452165603182 0.7411143155930721 1.4489716689052272 0.031217049032752686
Ni 9.080201068577262 4.414029705030028 6.569208971211456 -0.06593259813706709 -0.8026117607769209 -1.401335812194819
Ni 2.0817030652971593 1.1771298475103606 10.357128645997168 -0.8999431849402436 -1.601848434434022 0.9684391729291127
Ni 4.3067300320061035 4.378703981587641 8.972822231659517 -0.8470339956460381 0.3852610396656139 0.3797483373775008
Ni 4.578280814608185 2.438247929664394 10.235594373524432 -0.19421804747974294 -0.08901750498098863 2.2820183491332378
Ni 5.27024775379155 8.512689083878637 3.211405358349831 0.03246146296281507 -1.4498903240647545 -0.7986805440433149
Ni 1.1810973556006474 0.4941130850283222 1.0122240059633145 -0.944500145615012 -0.36499226211424884 -0.2025052271891996
Ni 7.461746483117792 0.45829468276439445 8.714226387446143 -0.5858163422172944 -0.2785219490351461 -1.6219254076895553
Ni 1.3853588284554963 8.198725080987437 4.595534818101295 -1.0147000036688656 -1.5318812612162649 -2.89759032534641
Ni 7.743160155549951 6.149758614134779 0.3161014280243482 -1.2592967607114762 2.157770303084729 0.022604367663077198
Ni 3.830070257215334 2.892043309240015 5.743001488927236 -4.502453892457671 0.07658904940964874 0.9772462296977815
P 2.000750998816476 7.713264143883706 2.463971538456346 1.1141291909014812 -0.2601964112530809 -0.14685112816000515
Ni 3.5962294282695217 7.594676630940938 5.438837044751058 -0.2715511741442678 0.1223135480299571 -0.49676746977773806
P 7.201055124067998 8.4200393879111 11.769951757568736 0.5722116069496661 -0.02877295836763432 -0.7906800423363415
Ni 4.959310605664066 8.089180878738725 12.456291540911371 0.9795831053610742 -0.40592962375855896 -0.39125196714172616
P 5.861164310863157 7.516108794674136 0.7424995809586639 0.15399725228648317 -0.5605141160070798 0.9170356216461562
P 6.423218643587819 1.0463417815199976 3.767009230738032 0.9364114550696065 1.0784967864098525 -0.3800990358487002
P 0.3500785712520092 1.8449843959759986 12.962114362845602 0.7224673899158461 0.16313161048758357 -0.9352811981199054
Ni 6.55672622216589 4.924636820170787 4.851622563890459 1.6158290649838303 1.3230768312819148 -0.540473652416437
