# total energy = -340888.9649478155 ev
CRYSTAL
PRIMVEC
9.10006499794845 0.00000000000000 0.00000000000000
0.00000000000000 9.10006499794845 0.00000000000000
0.00000000000000 0.00000000000000 13.31886497316507
PRIMCOORD
 96 1
Ni 5.4439683962816945 3.166786284351014 9.319796269645577 0.5310374467042016 -1.3796511281325337 0.3505128375511512
Ni 4.32186665843278 0.6908587487653889 6.271693945452537 0.08836187367486072 0.8434521918320506 -0.8262463694767254
Ni 2.5795044775288747 2.1028339630385062 4.940659260973325 0.9369027928837285 -2.1078407652441373 -1.6629712698872716
Ni 3.8304995386675613 3.1471665438107177 2.9078275493755545 -0.7295232683213629 -1.95621869805805 -0.718106541843989
Ni 5.311908250307309 2.9148418796206657 0.6061999323366198 -0.3877174716259065 0.6926541632091555 -0.670057251745246
Ni 5.2052463862661185 4.955040093986233 2.8904464248709325 0.6177694980851232 1.0557476656387947 -0.6206810153049632
Ni 5.221908605621073 4.766659644577762 11.856107287770687 -0.8529804430374601 -0.5570264145687955 0.26180232228762007
Ni 5.480377757089543 8.17578066482306 12.432628267510776 0.47938141309080673 -0.5608578724997438 1.0309120946523536
Ni 2.2173036830089985 5.25855456812375 11.826059782534138 -0.06632880513422125 -0.15815266921575344 -0.2801296598418982
Ni 0.8631521029386398 7.499372819572509 11.572309014864434 -0.10960998442035963 -0.3264946202596829 0.6150346156524634
Ni 7.796626448862288 -0.037560519053836276 7.446790822916694 0.3565006797034699 -0.24265017483920143 -0.48423925540374024
Ni 8.581652672168948 2.385964291160131 1.4265971990134452 0.23880149051707258 0.08922165057199473 0.4270764330395032
Ni 1.7244168523577723 1.542006045711098 2.6143204169227143 -0.4810983957819134 -0.4947612379809866 0.5641859084317122
Ni 1.821359846780672 6.748180638626155 0.7671118349821582 -0.04174623069885068 -0.80332575612481 -0.4556493595811894
Ni 7.714744062321665 4.624898829115457 4.044193639403 0.1943867118471233 -0.3126528292805842 -1.5295526130830883
Ni 7.471945223102912 4.244443303833134 12.947095902749808 0.7489898616864068 -0.21368746905826425 0.48276369929947827
Ni 6.859783838063162 1.090369810546496 9.411749698327174 -0.3104205975159557 -0.2442601996387987 -0.5345655144621181
Ni 6.811098489319849 1.0246127395148739 0.5922085821136583 -0.21366510046076104 -2.1449276427941064 -1.4747019837917958
Ni 1.8896194357383524 6.541481757998938 9.525106480325459 -0.04768882143553077 0.9679779170219779 1.0103049599249634
Ni 0.1691083313582678 4.678598313776073 1.5657790560021319 -0.6585333102660464 1.3726101621253524 1.4096355903097657
Ni 6.015334189094103 2.513192302520927 6.992643879767367 1.2884337872867488 0.034033178325309124 0.07692457837219654
Ni 3.61622940380587 4.566904113687208 0.8020569953016341 0.4888150476998807 0.6900941157914631 -0.9250960300567874
Ni 6.111376277063622 6.230013826889149 5.012395074831931 -0.6690624919321445 -0.15574611665678983 -0.9290573286973806
Ni 6.352455203962284 2.296064747190937 11.585535049605282 0.21368926883047712 -1.3105671288506786 0.8178131511077077
P 9.138649462053191 5.809800116810651 13.02732844747227 0.9008816375941131 -0.6072400593087091 -1.5074951190624166
P 3.849191072558919 6.319367366947203 12.766891861910658 0.7117908840386064 0.9181969889441091 0.6481977326679933
P 2.3332112132788256 8.594702165645193 1.6973032081370807 1.854353904800748 1.4202619596753605 -1.0113087185991292
P 6.479155411542312 8.242711644263633 5.910246636330032 0.20215658560052926 -0.8760003009714011 1.0822246288834008
P 4.707636621783532 1.03528711597766 12.896537760591285 0.7856694764956276 1.5033615565100173 -0.5512859125405924
P 4.1161596849108015 6.500777166423454 8.440830983433804 -0.3134071909481054 -1.5091308548936269 -0.2238086166526662
P 4.649077702313772 1.2597311237169255 3.8569971084751833 0.43006585468513026 1.0301405065936518 1.3925868623575952
P 0.7373646318967348 5.978215023201772 3.6767393772514376 -2.5499874623532017 -0.7041457087885228 0.12151573471901007
Ni 0.26590117470560387 0.3809077985220503 5.06027597781283 0.48103154709972 1.0170556483852355 0.3121614914664624
Ni 1.9649679754756666 6.679575247191419 5.344181631488274 0.985833200035844 -0.3369492399341036 -0.6495876710369844
Ni 8.462705720127108 7.255691274030745 9.588477514265401 -0.38565004757391647 -0.5119608896887248 -1.1227925230034341
Ni 8.696195192660925 2.5670282881593267 10.29910524464013 -0.26820051250448007 -1.030169302949058 1.1039365666391954
Ni 3.54414778747021 4.226989378807027 5.116069387472666 -0.6448630118678056 1.8418226051029571 0.2744863455131918
Ni 1.6876161887469392 1.4886978638534667 7.012316400685739 -1.2961566098523034 -2.8030680884971075 1.3551410588063113
Ni 1.4776958850439967 1.0113175442786158 11.549840043914507 -0.774807336970143 2.282556995245527 1.2003459932088814
Ni 4.250840649658658 7.042403946209107 1.6332924396145878 -0.6631600104047805 0.3219450532157875 0.3358732332611054
Ni 5.491498036746427 8.178246782488376 8.27169444187346 1.0206701052093712 0.27852169192483 0.2675600507070037
Ni 6.810334083844253 1.1408933724573136 5.139164442907369 -0.16107832750298065 -0.2615814645260656 -0.6366174840295616
Ni 0.7812633463523874 7.698627846877851 7.340759593392869 -0.7451121238985555 -0.34123886844839296 -0.18338521853029705
Ni 4.8859614991618425 4.979146166663061 7.029523713945315 0.27786657483933436 0.05999643515829023 -0.12567835073713193
Ni 0.4888791619434585 9.439588617743164 9.511681154157047 -0.3914476280923 -0.48360933512922516 -1.610658576526484
Ni 4.569579532851794 0.7367139772359597 10.636326360225356 0.012746501032390951 -1.6979002205539726 -0.21615675653436323
Ni 8.496521562357042 7.336818355160958 5.020172900546119 -0.7089143338217597 -0.32653884323405696 0.25639837766322937
Ni 7.169213354571362 6.157186005208264 7.143267248713991 1.2176472034914902 1.9202096269532931 1.3801028709579717
Ni 2.605385062916909 5.360047595139482 2.8902607835411454 -0.3639393953697022 0.17742154474769445 -0.2273670234278858
Ni 3.463339208621496 4.295003266004694 9.4712577545958 -0.5739134201321213 0.9045714277408745 0.49111875613239286
Ni 0.9541509347822623 3.6971562835019975 3.948430923434681 0.11696693900606307 -0.2569444799746865 -0.37478148029052877
Ni 0.5770760837164145 9.040396058243555 0.5349546119915224 0.076679552240926 0.9977003837870753 -0.18333096825359393
Ni 2.4659447640769496 5.340719056685128 7.673970310250771 -0.7735994327049709 -0.645833603311191 -2.9412024056094057
Ni 5.604466245961285 3.3249454172778883 4.571367695660777 0.5254884918615145 -0.7810512609973258 0.7173730061120742
Ni 4.335498556080908 7.511130103792389 6.171110014948852 0.18392617863543162 -1.8885948282614893 -1.2838142862368662
Ni 0.9264594364222807 8.057670918778301 3.0896841620524214 -0.5559699482798232 -1.0090895994606233 0.8092925152312063
P 0.30251619698664944 5.556326901129112 8.081647770529495 -0.7421738672058379 1.2377552870952748 1.1357498544950504
P 8.750495281623795 1.8437915074633384 8.034525812985079 -1.03888251445234 -0.2447278833038366 0.45762396680905704
P 1.7021580929136333 3.3191941760805475 10.701281715514119 0.8074168954750481 0.11698108007345015 1.2035668141390239
P 4.08601116895069 6.317656554692299 4.119737830541805 0.1534300669291035 1.0329018713888727 1.0039718186180837
P 7.062369489226458 4.060057783041171 10.758207173283054 -0.7867336560940837 1.3616320658472938 -1.5699058200891545
P 6.308156086638463 8.213191032801333 10.368430451231053 -0.62224193203418 -0.6039912133541081 -1.170130131747133
P 2.2522934336478837 8.752906798897996 5.7917082772150295 -0.14542236613327858 0.8439245034827788 0.7078018174838713
P 6.8817240952258025 4.175674111225057 1.8482059490849052 0.9705148245112187 -0.18266685230703378 -0.5556943260209334
Ni 2.8414862541590127 1.5941403191597785 0.37833157006798834 -0.9342571277307652 1.6925386991317433 0.808858255907265
Ni 1.1174971048649665 3.3431910479751488 8.637777324201542 0.14491817280335043 1.3582024713404544 -1.3239083260442748
Ni 7.935584444247407 -0.16718548758453658 11.363841991571643 1.272042747523235 1.089865690368426 0.8273306036798396
Ni 2.7168517613761316 1.697180357257074 9.27295368410236 -0.012790981117081195 -1.0550256998711056 0.6472986178924917
Ni 6.342709034148436 2.061128364292599 2.5649207130623264 0.3003521575363602 0.5015114122206266 1.8998734864991023
Ni 4.411029097121936 6.851257076984193 10.586007549781213 -0.7252819765465057 0.7273915666903408 0.36878695326999067
Ni 6.914557130415686 6.400303346708516 11.375123342382313 0.6899295651891407 -0.5694258166744128 0.16491492764025145
Ni 7.702195072430632 4.062533000771672 8.384798242059585 0.6040359505491145 -0.698507536666139 -0.23360734791064283
Ni 3.044708909885305 8.65280608185567 12.639522799539485 0.15379027848199966 -2.0908789405788184 -0.24216372212108617
Ni -0.06741055287585777 4.925009878873535 10.774468989769838 0.5345007226624536 1.0337989292818452 0.21344758513331627
Ni 8.398077057178508 2.7324219729088055 5.962869583279183 0.6458341175318233 0.23457948201592504 0.25609164505608795
Ni 3.8135916175525937 2.846564090532614 11.260540781603519 -0.6390240365885252 0.04875788612999345 1.75528415779008
Ni 0.9340124905263835 3.384650944961043 12.970603191137421 0.16406337827323356 -0.521662947467837 -1.0283119380253452
Ni 2.991664629918058 8.242611543546591 7.92814787097768 -0.49375542242429155 1.5564754056158614 1.224807211575039
Ni 5.906169807126854 8.360584788613565 3.80060491452613 -0.8464760662600391 0.1842100284244376 -0.7511053653675128
Ni 3.2542925111763776 8.548992538217593 3.7716894573986766 0.22958871366955297 -0.3256641539385875 1.1798278186508713
Ni 3.768873897230231 2.8432789670005887 7.333353960344775 -0.5041179966055382 0.7634296912608207 0.17465400930488628
Ni 5.856174048996805 5.419361820019653 9.259834120124186 0.6742571487592065 1.186644841572705 0.463326416510473
Ni 8.129497733288762 9.327020811396476 2.7222963303767154 -0.6875150422103772 -0.49984328048958426 -0.5389973249812265
Ni 4.428392021496187 0.3925586119792585 1.8850985233541135 0.5886903213309796 0.19871979200483839 -1.1008684692368331
Ni 6.173775424041733 6.072619099437871 0.6468417334623227 -0.28160033085015373 -0.5141159883585146 -0.16344837039705398
Ni 7.988747025062068 7.51763665040014 -0.007775095694633001 -0.7452033980607811 0.8442931996761072 0.8096247017596443
Ni 0.10510029285533051 5.1266218230619645 5.876337063428686 0.6916712304705959 -0.42618580290443375 0.9638014170467852
Ni 7.7492606095708965 6.792761857970732 2.714637715516459 0.30397201367713456 -0.6273998220860356 -0.13169601768612157
P 8.582344277123058 2.0157827394724253 3.7152171828759886 -0.017042043083951297 0.5796688345586597 0.7367406120054086
P 1.9945522873942667 3.494925534880943 1.7087838503753168 -0.390987657736746 -1.1197560501699555 -0.469736690912191
P 4.679517420359825 1.134641627674761 8.425553794000109 0.6778667204873358 0.8170212513340316 -0.26852704260596333
P 8.552386862531845 1.562490292444032 12.608743649062006 0.17042094506014518 0.4721224175355482 0.09459011397275968
P 6.415045452309295 8.153139702641123 1.6355428857350027 -0.1678999784105044 -0.3974277569351349 -0.7651430744075016
P 1.8898924376939223 3.4098490254601517 6.419812976460065 -0.9888614453392066 3.315414129439393 -1.072299656460205
P 6.850155969096727 4.443379828856978 6.044394337258009 0.3108409728828259 -1.7133160408884107 0.20882345609774358
P 2.423811462267316 8.66517307044299 10.368563312182763 0.4538678422007344 -0.986931061085713 -0.7562092622529816
