# total energy = -340872.22074017464 ev
CRYSTAL
PRIMVEC
9.21616817933107 0.00000000000000 0.00000000000000
0.00000000000000 9.21616817933107 0.00000000000000
0.00000000000000 0.00000000000000 13.48879371500753
PRIMCOORD
 96 1
Ni 0.08275473959156214 7.913914462434133 1.278493586903914 1.2329645505748508 0.9909648648354547 -0.29628390100425744
Ni 0.38163784087743485 0.330173835737475 5.938077661455239 -0.6506459370981698 -0.7428755212585528 1.6847729391433952
Ni 2.62432234229578 9.019043629953137 5.299166797336094 -0.38495816371321445 0.13054570613176228 -1.2374323565382173
Ni 2.4879414844921723 6.6621560580145065 4.783477024372511 0.03335132176693611 -0.4929151859111834 -0.17944577426657482
Ni 7.756225823630259 7.80444481592844 5.9373763110512074 0.4994571007947592 0.47370570286226804 -1.3368088361560266
Ni 4.6899421327757524 2.6768821498409876 6.509516957796292 -0.9518398738095349 -0.6657694230031695 1.4589236379116164
Ni 4.516521494764502 8.68816475734433 6.4780879808208995 1.1253294304926749 0.7215446209912606 1.0651553321059397
Ni 6.643557830480537 0.7359285456986023 10.018923234409366 -0.19474435229685813 0.8201068322378909 -0.22068421209107159
Ni 6.051446668748654 6.80328324246826 2.6089617546689876 -0.2643585130505705 -0.8843679562098059 1.303250026363975
Ni 0.7868487969116522 3.3016185471874646 0.46305254960505293 1.5995154154254712 -0.3670542868496001 -1.0621291436851064
Ni 4.528465648820014 5.893629003589242 13.11495210829949 -0.7504170810512367 -0.7366665642343636 1.4852607331442484
Ni 2.184176578882839 4.155017295051938 4.453365858579153 -0.7574904429582503 -1.2158404893000545 0.6125740699271127
Ni 7.148880335776646 5.656450913605741 5.2561512536333925 0.029353513461452676 -1.5977732359233838 0.013563597617047608
Ni 4.441750721730263 0.36004620189498504 0.8302477332136654 -1.055250414287402 0.44830783161445376 -1.532275154220574
Ni 8.211154320920548 6.4821919405438315 7.979363081280755 -1.5578607159991622 -1.5896434077273978 0.47077130282429247
Ni 7.648617843111612 5.08967499840056 9.771363130889185 0.10169304356612809 -0.2768124225432071 1.3932710329088134
Ni 4.773661805183374 1.7205203702572334 4.207964181663759 -2.065692928231494 0.4200971735081926 0.0311532856743528
Ni 0.47325300462715275 1.4775729589475355 2.177078286094601 -0.1474918470677976 1.7711419507579431 -0.44291931360903075
Ni 8.048949759672844 3.2509941349753264 1.7546496845306705 -0.3922287292326987 0.5760083549879369 0.9919778794810012
Ni 3.8404418240821756 7.380279888265697 8.73004210426782 -0.26404638112679035 -0.4740725992833835 -0.423792877192225
Ni 8.268681643153965 6.6141398214178855 3.374383882009914 1.474057151118945 -0.06724051831521323 -0.570319789243592
Ni 6.3209089961214 7.674810193285815 9.272871649501985 -0.31271710685961623 -1.045276590904142 -0.47499922486271096
Ni 4.821364692059403 6.528724374051766 5.610070546873976 -0.7480706923062472 -0.9965115056852968 -1.1603745950222661
Ni 2.126483365620872 2.686983070245958 8.454425219735915 -0.9288907212125294 0.38929304364314243 -1.429377034602751
P 7.0730128387203335 3.2925406214585444 11.331639218886068 1.0875851218643655 -0.1935621590632989 -1.1361406621755659
P 5.074127322558237 6.471593347053214 10.70814608263688 1.933812305338392 2.180727940322167 1.4386597454562577
P 7.289620441163786 8.557507140025656 2.371883199302616 1.1810485784318498 0.35133816166592396 -0.40547762382280494
P 5.0557687153988375 1.9194144973189757 2.0748193696298283 0.9224598779855209 0.8354961702097675 -0.5271558522616082
P 6.7192870850130575 5.275095087476839 1.1018509764715156 -0.07562102906942461 -0.7448354731984012 0.2750887549838811
P 2.806470691642348 6.807743867902572 6.90887933345734 -0.028773472588266576 0.2566246347414225 -0.08866937761295052
P 4.679675321342233 4.2099917386793555 4.869454658002046 -0.07893929480938018 -0.03299985196478832 1.0027608290291181
P 4.003429759631358 3.6965221406478506 8.614793920267678 -0.1688615709928253 0.5802457901080523 -0.36521800497180973
Ni 6.946382686928094 1.47568364445573 3.076523775400092 0.9916986576776855 0.17704282125203702 -0.4315020729110246
Ni 1.4577213325311975 1.2536385027431793 10.169120971657435 -1.3509447613367767 -0.8607945397652402 -0.45567661327469905
Ni 1.802276998827027 6.550916907204292 2.430074085650229 0.4973904480737176 0.03379020907656761 -0.6724447781408162
Ni 6.195891673773384 4.446109969313794 3.2856810274280526 0.9898775453085469 -0.4159193879814192 0.006440356308705038
Ni 3.161892220308123 7.20227881463285 11.643566884716828 -0.7201652241452307 0.7967599299818343 0.04796084414999482
Ni 6.817761842793268 4.417346308197086 7.416948256892756 0.5790080610462094 0.16877672458850287 -0.42791204156692103
Ni 6.923968965737502 2.0836926964235376 7.4079514334444605 0.5812721744900375 -1.5066592534246825 0.5046625562550986
Ni 5.849603367846045 8.852424524112386 4.079442872146063 -0.2458817944026217 -1.6168269101207253 0.8926484510510433
Ni 1.0694902448857735 6.023199113054097 11.094910877913298 -1.1048238543401552 1.0697447512488352 -1.1198385825814328
Ni 4.241593979617899 7.545092625128916 1.6285697379831168 -2.0633287988746916 -1.3914306372659648 -1.6346711373909977
Ni 9.23810273315181 9.055622601748144 3.5194288595878946 -1.0979271272203222 -1.620553724153009 0.8499817654204523
Ni 8.993044819312242 2.017889255099186 4.582898181754173 -0.042210829040095044 1.5416661085171706 -1.2364897901192897
Ni 3.216645475897475 4.459381251597698 6.718983873077544 -0.5987014257100786 1.207194383589282 -0.32928529563094255
Ni 1.8247183685223767 1.013824588639403 0.32876744846211137 -0.8199060290809944 -0.19190071220047594 -0.7614635686733853
Ni 2.957680364164567 0.45535889234769034 11.728277295211615 1.1718206320756785 0.7619423080820168 1.4819800055104477
Ni 2.203042075296137 2.011391856481025 6.235613358942564 -0.08478006986087334 0.09506088296159111 -1.2298344895863014
Ni 2.2030236429596317 8.939803015316334 2.4735071217747775 0.742451803457573 0.43404386549627183 0.28826283047199386
Ni 1.9116821321549515 5.853538671689952 8.672444739155681 -0.784216803209501 -0.6024346675002658 0.14504955617489212
Ni 0.5659759518008464 7.853069319629738 7.732450874388741 2.263541630485289 1.6232744655182818 -0.1128608872574895
Ni 1.4366531719055016 3.7030564039390224 10.406078795219697 0.2074638567460556 0.6390934563738799 -0.9218297006006898
Ni 5.348465002936667 5.484845860740275 8.761835119889195 -0.13579332768394675 -0.040721388978762124 -0.2623497101506579
Ni 6.582039907393695 5.520512431878263 12.212403535143313 2.134019994742667 0.32952620799715504 -0.21057334890931476
Ni 3.904024168857624 1.8173546500884612 9.73049218953889 -0.38293213442212115 0.42552400095071874 0.9064493614898775
Ni 6.522466595808176 2.81018480744819 5.270733075042831 2.1546132455129863 1.1999685552648043 -1.5559365023932559
P 7.134254276759594 0.6881132215698904 5.458389006537218 1.1006293566428336 1.3209068202137895 0.47089728687919546
P 8.650535142368513 1.5919548231319238 0.12891023181796088 1.2149655428942687 0.5534407541000662 0.5459421317301759
P 0.4783965481289904 7.431300595712702 4.885276975658298 -0.01555928789083772 -0.02982968176692282 0.46932942817144335
P 2.238800808116653 1.593512355566632 3.984454590815853 -1.0849366284979252 0.33540195005164175 1.0691243440560168
P 1.421778276345627 7.897758519487131 9.77558505756575 0.6689830448444607 0.4540390776712761 0.08672253829922484
P 5.019042284911787 0.637218775627948 8.384809971222243 0.823096253883518 -0.4938729218387623 -0.964852226908803
P 9.298929443619699 4.473122558462489 8.39828493082453 0.11854071125108619 0.5127980408780394 -0.41049564586268655
P 2.248182867397912 8.12333345364047 0.3952270809660563 0.3982471675126367 -0.6017993479091119 -0.7422887955171474
Ni 3.621898826305655 5.141562025663318 10.326831729265116 -2.1384957711258337 -0.9226874206152949 -1.863345309666081
Ni 9.412564798175616 5.635797480551417 0.3129552685909362 -0.2214781687472766 0.3345542573393658 -0.1731799958625211
Ni 6.580814157016085 3.1937801624625006 13.525888148052294 -0.6041861029737335 0.5362035642861733 -1.0906853580562441
Ni 4.749229743145438 4.081896216134934 1.4629137217247745 0.38988414025992213 -0.8461567352474071 -1.1667537590757326
Ni 7.181302815689681 7.38688788090289 0.5063519512899367 -0.10423894991643337 -0.7626861282265768 -0.5847781307607671
Ni 8.428738837198786 7.966041110071462 10.353081219682487 -0.5163248230843753 0.12588506743129932 -1.551280234568167
Ni 5.939193739430642 3.087268905965927 9.323049999170692 0.8207246683275479 -0.06269352237447913 -0.23461830567366046
Ni 2.927267008930622 2.276826718327336 2.092058212346523 -0.10558492242136655 0.9829142266168363 0.6321116257394082
Ni 8.421153930726806 2.7045675192721297 9.47112986095429 -0.3350322254170488 1.1307732272160653 1.236556124580851
Ni 3.7446028904222404 2.5173502773865715 -0.22079358606383262 0.7357851900706748 0.27932541877304795 -0.8098787267519795
Ni 0.66818602257388 5.573339508302799 6.356931311353944 1.143102952426012 1.4059344873090946 -0.6267871282027011
Ni 4.532115251448088 8.860525536006518 10.304102815120283 0.3859953467284772 -0.34164793096135354 0.9033684085717086
Ni 3.8196317161675557 5.257012965365021 3.1982472392145893 0.07534977768590893 1.4405762457526803 -0.11539573786420125
Ni 2.5537080611435132 4.82397286767492 12.205590943570911 -0.1662848114045846 -1.9370966325166188 2.8541530800983814
Ni 2.5831076378696594 0.06944843586829891 8.033453694372739 -0.28120515229426407 0.679804818050313 0.29220998804519993
Ni -0.48783390441976576 3.647611935730717 6.314698220335898 -0.15857355880325594 -1.7908882801469348 0.7322604647468679
Ni 6.729065439529184 0.8163755567596858 0.35202260581417544 -0.3178433723425881 -1.2177762728701866 0.7042220705524129
Ni 0.7545276948493971 4.493499506469232 2.450846407275013 0.6357469084991503 -0.30801327362604375 0.37133568783377335
Ni 7.580187793835238 9.016177401626544 7.83464251282527 0.2969673002245273 0.45968290622061475 0.589448539653243
Ni 8.994049381651786 4.008360409646558 11.927357588872061 -0.9790280041885527 0.2780228979115405 0.27133931524377786
Ni 5.572639079515593 7.949765356937176 12.450979717850752 -0.6642355028571463 0.8457893246056594 -0.6923957673414463
Ni 8.421605522971188 1.1894847555360626 11.45837996469734 0.136249698495075 0.6030535320311872 0.7924826427627191
Ni 5.097213824031277 3.8257143872143446 11.41379951562533 -1.5161684784666984 -0.3639213976475732 1.470567392798132
Ni 0.8104670712928731 8.62593718930203 11.871784094308218 1.1581223086529797 -0.19798188539754935 0.9833649410010097
P 3.9186594440429285 7.979469067215661 3.6430397946605475 -0.48798226738594025 -0.8729219191563933 1.0773174213897703
P 6.271279930080555 6.704218649919876 7.116835718761972 -0.27548830441514494 -0.11469074137737668 0.7076490939560909
P 5.422885561577302 1.022579948479478 12.073198843387077 -1.0990512135224362 -0.5790404569460414 -0.28061379856716834
P 9.018112796959613 4.49012638888874 4.338886303011287 -0.47274642427279223 0.1481107115987191 0.4084984129269997
P 1.8884573881581215 2.477094054458732 12.10172749221334 0.17664815691677965 -0.1440285711095455 -0.2515744739120248
P 2.788803297101902 4.806996685753427 0.8933342481371183 -0.9127303094025829 0.18243211058840839 0.729221420810228
P 8.649502931524209 6.939756261954394 12.179287999377676 -1.5168084260435424 -0.5927894311010178 1.7422021277951414
P -0.06466800939561805 1.2823837315233828 8.232358880836383 1.3716699096992702 -1.5072251532304815 -1.6798464483760553
