# total energy = -340870.670663557 ev
CRYSTAL
PRIMVEC
9.24303445901943 0.00000000000000 0.00000000000000
0.00000000000000 9.24303445901943 0.00000000000000
0.00000000000000 0.00000000000000 13.52811523101586
PRIMCOORD
 96 1
Ni 7.73726105925392 8.93116534982891 3.850453177822761 -0.7605459419551225 -0.4207286364446045 0.7323039163902937
Ni 1.0477534278026968 4.0299445906270535 9.462821925935891 0.024061668934894045 -1.2126811177354664 -3.310609251851582
Ni 8.637930077791784 4.920501729334859 6.41415300980829 -0.17707470293123698 -1.1085450119454843 0.3124648816394941
Ni 1.891577783676154 5.548196207634033 12.70403711690798 0.8620821482284121 0.3115994483154053 1.845597241654041
Ni 2.9722918727896275 5.40684247980854 9.365866190409944 0.7183286851571242 0.6838969858418157 2.0844527253375005
Ni 6.453449771323369 4.414131322927232 1.821939836850152 0.2085439771841118 0.9607713719712099 2.1281699637197926
Ni 5.76795859779809 2.86237370556928 11.505513157650116 0.09285796177300137 0.4112327811390273 0.9362067952579682
Ni 4.397040951989592 9.239688601060662 6.790410142742648 0.27982369856570516 -0.23270000560502507 0.08391926452247482
Ni 3.3836346406846083 1.7067078490500052 11.781053564288097 1.626939830185011 0.920424335612731 0.8396770410603345
Ni 2.003732765264759 0.9953361787019074 10.25611091454896 -0.5048808429134918 -1.120980923715992 -0.9856599076827735
Ni 9.182853181430833 6.517402327579473 12.706783222481574 -1.7529200284332778 1.164083411332421 0.5909240957575049
Ni 2.9150682457074573 0.6239381090460331 3.3966931999386367 0.73325651011155 0.24703981926646484 0.005073814978481584
Ni 5.517287499999923 1.878794666852597 4.955767603469783 -0.8688613759337747 -0.0911306946692495 0.001430304688623343
Ni 3.297905494959018 7.792774724938868 5.07611376230281 1.5269144041292928 -0.5669205337540558 0.4066042812280804
Ni 2.8934303017566645 7.181773167090413 7.750933356004032 -0.20743891704539114 0.9659755418799686 -0.3127782991148549
Ni 3.903296530817669 6.79089447775462 0.5849898099346053 -0.33033276305885045 -0.30527710564180327 -0.7499671379980116
Ni 5.357383001773215 5.104373416226413 10.247506573658832 0.32428218598939634 0.031468245811610326 0.17668235258882473
Ni 3.114791736902989 2.8276476246538045 2.169395674034544 1.2265175093979264 0.43284367454058353 0.12382124292373513
Ni 6.829641278712212 8.827347585431086 9.3077626264358 -0.469760602171591 -1.5349866396144662 -0.8448863531754158
Ni 7.956284006651611 1.4999966237123123 9.729921593395803 0.22800799944599442 0.811551486468712 0.048814964620174
Ni 4.8654594584134685 7.3023947683539125 2.6885371813207746 0.8130021028723096 -0.18801577532377298 0.5599903822931259
Ni 0.9828118668465785 8.071137954337454 0.9136480876945088 -1.3723808197233656 -1.3353559057595838 -0.8649437860469232
Ni 3.1316140598378217 2.7301336098392515 8.92164317560503 0.23472114980011188 0.3942696709221274 0.798378953642496
Ni -0.05853428938555453 6.577112330963549 3.4052975408287667 0.2052560504614594 1.3283067122222867 0.09415791153134752
P 3.185288361641434 1.398323243336949 5.474287054528808 0.3007887308531465 0.1739479843767972 0.7242355375598624
P 7.160070521897563 6.8637295902416975 10.408004474705548 -0.7438908498969448 -1.6258584241953742 -0.6330829885137419
P 5.977960343446114 4.582058775169013 13.20475263475982 -0.048886955508689996 0.507294594561307 -0.7889221791049703
P 5.636430215730688 0.6670661083943462 12.677900588027306 0.044867292826335635 0.8583185674209218 -1.0896458610481363
P 1.2362743610877793 1.3094699519234612 12.606959373325584 -0.024068610913429517 2.2347244491432803 -1.03985876232268
P 3.8027692867301734 8.894452016478827 8.952230225635772 0.21751944120984473 0.24375086410254798 0.0855539719124204
P 8.08412441792176 8.434222838692454 0.1401105396745402 2.248298074062657 -0.8009384868395562 -0.35777903219526125
P 3.5542887881273657 4.311422722678956 11.141025180645933 -0.5222771840130683 -2.138341762046472 0.8333215311559519
Ni 2.2299652796345217 7.149043581644126 2.9650786086037244 0.8451928286722412 -1.159094442758262 -0.5688203218799299
Ni 9.075144099475006 5.2815623891169325 1.4519725889471962 0.32536230642745256 0.41864347178080163 0.6884807485577562
Ni 1.835398619501476 0.09601202169537133 6.827301866660121 0.3391485615782675 -0.32506482979169177 -0.3194153448153983
Ni 5.26978676306255 1.4784973252802125 9.635386608626249 -1.1365142434649007 -0.5477354761851728 0.7919895051763843
Ni 5.1511154420953424 6.975357718859267 8.860874844761591 0.015788630292824422 2.261165416943628 0.5811582746199927
Ni 7.448388499538354 6.308833252291284 8.155099831851429 1.7927955244719769 -1.3473357038292797 3.000425710047097
Ni 3.9241210877254593 5.185906224252875 3.1395510536313056 -0.6669719279517029 0.052417337259451656 -0.9214532910978775
Ni 8.318684906447723 4.405766376632714 3.9220035085032783 0.23667647375426978 -0.7358666940408874 -0.4341487665052523
Ni 8.591807335239688 0.25185975204510186 7.393088347952195 -0.3352831650855903 -0.4356875717472819 -0.1620013535378823
Ni 1.6537545039436 1.1209028034654809 1.1270300110882834 1.2670928597171276 0.05329639743029531 -0.23359243551230735
Ni 0.3333075241534314 1.343881769663232 5.324193113204865 -0.03875603772227519 -1.3488927639037545 -0.42269424481140755
Ni 4.867335794433124 8.685984614571014 10.983301114276548 -0.9556957572205154 0.49456274881693535 -0.3161101917015653
Ni 2.4391998534124397 8.82593340114041 12.477170530366058 1.912293971650642 -1.7233369154595222 0.49750511927471097
Ni 4.6801458581275 5.149507154078496 7.693398238656529 0.2837153203106275 1.644163136041833 -0.5097106602019673
Ni 3.0871920356483677 3.5639385162284456 4.656336725353965 -0.8956155040991672 -1.090167023658929 0.1464852601801542
Ni 2.4002959208669936 4.85887841779281 7.318926860002946 -1.5919530296971809 -0.0808290556329253 -1.6867591163354885
Ni 7.404142093005912 6.611561120841638 5.000844034507471 -0.24715551890872273 0.6185405719231928 1.2729408338574721
Ni 1.4731456082586367 4.490293927862958 3.0200977719386657 -0.30408179978212146 0.6077275404680887 0.24154665736237757
Ni 6.776124108496453 3.274067708778285 6.581238421599873 -2.189748655763539 1.5419712984624152 -1.0686548606187658
Ni 1.6074099285615937 2.7077192509837738 7.074338603261599 0.5321026547439224 -0.45724112954834156 -1.131940250940973
Ni 0.8019247558207699 2.1142609727673585 3.0465041974290634 0.23683151127489538 1.3646153168453337 1.2508756265273167
Ni 6.4027886987926985 2.583492866234239 0.5083068221520485 0.17724285307798507 -2.1944915697651624 -0.979896522836435
Ni 6.262765967946665 8.734778594116607 0.9984307466791502 -0.9756084369840424 -0.40679968506833813 0.2238150444105694
Ni 6.8388750702572105 7.906584209717217 6.945713458355642 -1.5512509239921284 2.4963213402883135 -1.944874476689825
P 6.421635246300459 5.4790120938058875 6.515762613245055 0.345233848540399 -0.5859757506132941 -1.0402254016334793
P 7.507423761398122 1.37330234873003 5.761718625153417 -0.49462522662375463 -0.5325752235049667 -0.5374397506861196
P 7.047536575891194 6.455437023757978 2.9972212613542086 -1.1831265440068013 -0.8174699088356759 -2.79965829148461
P 1.2592525450526113 7.877542595068182 4.8608009689853615 -2.302333663651822 0.8188331077317897 0.4656707483729335
P 8.64659080119285 2.9470583883873784 1.664891436308534 -0.5948756242060853 1.41967291994111 -0.7196422617622252
P 0.7641253659075838 3.370186025371322 5.09817873445118 -0.2203646239681237 1.979934039397119 -0.2763072007720145
P 5.321852776849315 3.3534561327822847 8.546373198763769 1.3898938889064643 -1.310228257454021 1.3359727134079766
P 2.954415843912723 8.570197120392633 1.4968050038719836 1.1799340052114324 0.30716352403123875 0.08384753074427495
Ni 4.371169698201351 0.9750754469034714 0.8873479571017762 -1.082581498002187 0.7187315770224977 0.19781527791269804
Ni 0.11013722713988315 7.189944009658761 6.713273321962236 0.612616493129274 0.9280659113183888 0.824416001136206
Ni 8.987011764758725 5.374325484157582 10.649860490425171 -2.006498420149209 1.6668328097252065 0.3760318077578621
Ni 7.359572180263184 2.0744881949714324 3.382190878683278 0.39225983958095023 0.5016317398485747 0.4180508325021252
Ni 1.3768609170431678 3.5090811059986473 0.38265331286342696 0.353357763199114 -1.1286299556208175 1.8489072798638804
Ni 7.409068630436827 4.15193416100833 9.3747404279098 -1.2013430670148277 -0.6961927724900333 -0.6226484234439792
Ni 0.21391247357864246 8.883499020502025 11.833191673744583 1.2785190992761981 -0.6544480844530793 2.0523494170450522
Ni 8.541247936089393 0.7493984389119415 1.7185980887331749 -1.8283538811925608 0.08588770110275531 -1.826814561729899
Ni 3.833567077949329 3.531116500436362 13.311070640011422 0.39077914127036567 0.7521677451937563 0.06650929657614352
Ni 5.840350044625349 4.618383901066758 4.30721621764179 0.2826560258081777 -0.2616835373215687 1.0495831886992957
Ni 0.04696478300229615 8.717503362487376 9.726890802357158 -0.44978775859408987 -0.23513638296065956 -2.9741374657745294
Ni 7.969335171477977 1.438364069135683 12.173166198740265 -0.33162397106644825 1.9051380773321513 1.4066220002944227
Ni 8.467673380835949 4.022577892067129 13.212274616300682 -1.97602030616501 -0.5835972230787886 -1.815933138930705
Ni 6.3290200398130825 1.2036372059872877 7.682941593636653 0.38326663494340446 0.23742749298768143 -1.3613600431328294
Ni 1.334010208732242 7.0228761596328795 10.664470030881654 2.1508717761926825 0.8686225204500913 1.9939830612910177
Ni 0.704349736977992 9.042183438164228 3.070341059306338 0.7131286290134236 -1.3003086843474638 2.1309228438745818
Ni 8.516300985759113 2.8385174333193883 7.793127808859808 1.9825496226430952 -0.8389105952079552 0.4771530379809201
Ni 4.207152049586732 3.21257379972035 6.7321716304636405 -0.5799825091443367 -2.367844343760122 -1.3204198532750422
Ni 1.2887008532231483 5.702416239594299 5.281065113856552 1.1712117948470862 -0.671017044555354 -1.2057399105309428
Ni 1.220625903544553 3.7682835247137665 11.636208742301896 1.2755749290462097 -2.4073213188088216 0.21650616945398196
Ni 7.319910318882213 8.598305188549132 11.59623261774522 -2.3296529202920655 -0.28604088312001064 0.28016771216868525
Ni 5.655221305030972 6.830195860786986 12.207798000703031 -0.44008467237371307 -1.045290989081845 -0.25589392722298515
Ni 7.1092245886753025 6.355131612500393 0.44429880768846763 0.02687805533776661 0.22956325974825625 0.9288909783228453
Ni 5.443195334810022 0.22345128526476746 3.107665357242134 0.10563557315364387 0.6970988292440704 0.6899269940859796
P 0.8938273243420608 6.306762812545458 8.803029161452216 -0.1697671135262302 -0.4493105618473552 -2.1127402594282843
P 2.634477444975194 5.099243532034747 1.263516356904171 0.4187164911105822 -0.649960738105687 0.5926593332810567
P 3.5560449646974854 5.534997154254394 5.434000364010257 0.5622254422712317 0.20854551984600855 0.35654413134689567
P 5.507009245547431 8.072478194351492 4.890481277323847 0.8352282612603616 0.7289349999180608 0.08854262222709912
P 0.8024035450119922 1.3356184967490885 8.512674943293543 0.2115385410360615 -0.023601955689656128 0.7405260471897698
P 3.406169158989621 6.575744361845771 11.800791140329329 1.7743612290261892 2.22879317126051 -1.1541134446039027
P 8.483719288866098 3.2379459296412927 10.974683833138009 -0.5529671568977573 -0.14144769775624672 0.5540657892785747
P 5.395815539555103 2.328107820800486 2.4778227977066662 -1.3008064499194887 1.0040268402257353 0.4186100474397048
