# total energy = -381163.76631205337 ev
CRYSTAL
PRIMVEC
9.24859476071016 0.00000000000000 0.00000000000000

0.00000000000000 9.24859476071016 0.00000000000000

0.00000000000000 0.00000000000000 13.53625329458394

PRIMCOORD
 96 1
Ni 6.657610103442749 3.4781189879596117 9.641182689414515 3.0493658873912257 2.6346371772837984 0.5572243895122145
Ni 1.698337931760043 6.684828717481532 7.060441891778879 0.7506579934174491 1.0613637262739917 -1.9464857870410026
Ni 9.09390265048262 7.193103733359683 9.806948025806399 -0.45229509839697585 -0.31615492889657165 0.15537562069124852
Ni -0.05684371240406671 3.105705827409263 3.570254412667651 1.9428985839103763 1.3643029278112375 -0.08411723946589385
Ni 2.7576812109364783 3.3753578528644983 2.534108458578568 -0.8351102476252587 0.2875874016715241 -1.5801236411624207
Ni 4.447898876598645 4.415861744750074 1.1475600743335972 -0.4994702134208817 -0.899418165674709 0.6829001691461851
Ni 5.15818169670211 4.438742767900583 8.302501331611653 0.4397452867564233 -1.1686828577776451 -0.6643267770193719
Ni 2.7366684039041593 8.556956991206498 4.320921221286355 -0.4748256753993242 -1.646950726089299 0.41368047134857144
Ni 1.7478734046760205 7.810373437123346 13.204695801445784 0.6829094251175658 1.5935921079625006 -0.5979033552888154
Ni 0.23556448017397746 3.3938642907481564 9.36907701180009 -1.10841182880173 -3.4658666017974116 -2.963615226086967
Ni 7.698983363224907 8.386634872233264 6.477056264214297 -1.2596903966054693 -0.21024296215308952 1.3362084835678665
Ni 6.238380556801907 4.399001556713138 6.109452372879091 -0.23790288996220316 -0.1952989392487475 -0.3585071686105374
Ni 7.451925654486201 7.474399739472353 2.256154894570423 0.7205285210219203 0.4428887174814114 -1.560547518802706
Ni 8.386181691095684 1.326081997318651 2.620888946987438 -0.2296043973988368 -1.853977495297936 -0.84415487432603
Ni 8.01178933129141 5.998693977994873 3.8759981538636095 -0.5255969924149206 -0.6526208014363535 -0.6258245071791158
Ni 2.8818620912282684 4.786952356266258 12.301286602554125 0.5197209932501178 -1.0246748554933902 0.06227854632424758
Ni 0.45900312790954223 4.501078295804557 11.059416758911565 0.2687299026453888 2.584130683893814 1.7079393499575295
Ni 0.5811113981414989 6.8432663923365755 2.7705330580544847 1.1418999332568462 0.33014712941060564 -0.29346494349822366
Ni 5.103013829647627 2.350456340144206 13.328836912780604 0.8999449847124565 0.04783331743319504 -0.10136188547895446
Ni 5.677490285991158 6.086574124306975 4.147155850526971 1.0800353345415656 -0.652309955064154 0.07281132753477138
Ni 8.69866395834963 6.415805596462123 7.4384957702029135 -0.8490384276705764 -0.21584488172089922 0.1778799724413517
Ni 0.13202368855033228 7.848218686408667 4.95777482420976 1.1594471981119905 -1.3099876021981245 -0.44935195660825195
Ni 3.7016297747334037 7.8941657046025755 6.784884638643127 1.2682346866310543 -0.09713679165401336 -0.29175875944039426
Ni 0.7977819243162138 3.6358537696216726 13.465255533506006 -0.5459907255799242 -0.6397336610610401 0.07606634413695933
P 3.2952187802698485 3.5908963510547256 7.171358437631518 -0.0618118911004742 -0.13044491888783985 -0.3645677729823205
Ni 6.424813727645872 2.2078522593205583 11.260010453015735 0.8190511372798668 -2.687796792025913 2.927282967314836
P 0.6921971932761326 4.870309939797195 1.9227708034198923 1.2736563718672582 -0.9273945962829769 0.588920949284547
Ni 7.7147152227152125 4.009284275582917 7.779041048186685 1.3454742251405087 0.4691203974844308 -0.2569208258256027
P 0.5438284634105638 8.702067441178809 8.37459597658451 -1.0214985146479376 0.06320542901389115 1.0080336473922833
P 8.839723523867644 2.7699171016511603 11.775497522997671 -1.3705298825575558 -1.7499180083821604 0.14960400831479395
P 8.6083051886728 5.177122818534059 5.599271221644707 -0.347647343077898 0.12905549473948097 1.9059281773336143
Ni 8.823954669998761 3.1216319073871035 5.771817627629945 -2.0672718426828394 -0.8570569270996788 0.27081558152982393
Ni 4.784214772251484 8.375046383143697 3.3861750091607137 0.23521145917296912 -0.24397583562916045 -1.4831097482395166
Ni 9.103761652373665 9.061181122630357 0.48346196130640445 -1.0782260492469689 -0.3982890764941657 1.8160776349283692
Ni 6.594386710452901 1.4033262597895704 4.294024458341201 -1.0160485472769598 -1.3941683479121023 0.6753915194739659
Ni 5.46345006013334 1.934482298818231 8.682233829963664 -0.08155899182041437 1.2913759006342083 0.4152367600920978
Ni 7.743811301466831 1.6665320147775846 0.26424622188552144 -0.348633104029935 0.8986643182278201 -1.1662894178448044
Ni 7.909906812687526 0.8853235720643269 9.825763366751184 -0.09380644172919973 -0.06191396389597724 0.9037779853053016
Ni 1.3652682928274256 1.5031740875716642 1.0229685564395903 -0.934236816015791 -0.5489541790836223 4.2453726297948045
Ni 4.6742489819283 3.573176043715851 10.815682995088094 -1.2942161982964808 0.3900705452391153 0.5280475108379421
Ni 6.150324687191559 2.6807883950620495 1.9938629007332862 0.025679664154291255 -0.12456506306829514 -0.3867666776768629
Ni 6.491597829573855 7.238801039498191 0.11104695103712675 -1.0716951901069867 -0.8019926391356832 0.21663343906046562
Ni 3.6943511307481773 1.1073434853814244 7.486657826814181 -0.5496985134488146 1.054734650993248 -1.0016717097299974
Ni 5.17345112646019 5.245173977928339 12.754670284357665 0.029037781993246768 1.0702412312692793 -0.9912106622976737
Ni 8.676957506718972 0.7440716357777059 5.302678039990024 1.0132193053582808 1.9900482450129853 -0.7559087002934272
Ni 1.9693495006280213 6.601720846005995 10.756407827151987 -0.21260863417178869 -0.8687312781138137 1.1462309565320326
Ni 3.41704126892729 0.7409511599446494 12.43105825830852 0.6413161750568117 -2.0416173753395293 -0.8011619157042719
Ni 3.7150772313465166 6.014472080458401 8.346155623193187 -1.5089359652740013 1.4644332548759358 -0.051375526258498616
Ni 2.444755011139596 5.929838190866521 1.0492058945865912 0.5765426302248522 -0.12117454932950743 0.23248891803548344
Ni 4.397114843405658 2.6353130551950104 5.472341659024568 0.20313771856687593 1.941870142645862 0.21220214276198937
Ni 3.809440642504417 1.1683564642512347 10.25548544401622 0.9607160932532423 0.29053285745309315 0.3075481610641671
Ni 3.636380939516409 5.957620969178619 3.2220475988803696 -1.0190328267162643 -0.0579799189488937 -0.2707325348977144
Ni 4.0214646747297325 5.514474556787083 6.043503419047508 -0.5920947190268383 -0.5309615991609435 -0.6408184094847867
Ni 2.704520288919854 3.7896948929383956 9.34997773899972 1.8558739409897005 0.5878405717361748 -3.240145855723697
Ni 7.13982257961268 6.216433641710493 11.344720181083698 1.391608814715042 -0.20342619634157225 0.5628134535642177
Ni 4.246880672000293 1.7170015957526576 3.0991790941686346 0.2622414667075677 -0.9988923472126473 1.1541283570022383
P 1.9386164206243255 6.455472818892412 4.6611002549222045 0.3862113193940252 -0.2767622860315621 0.5492963929143895
Ni 1.1259979007793943 1.0249570042881593 12.489467757785903 -1.4973935118520405 0.7629612362648345 -1.6825497062398314
P 7.112150784436316 5.751118347956075 9.17561675874523 0.3698503615374985 -0.3254093576153041 -0.011319538777877279
Ni 7.067489320897994 8.473053740591535 4.050926997829273 0.5907734291122535 0.18840401190112716 1.6952111037575839
P 5.656163026740924 0.20122629797785319 10.365819328406253 1.6318002436011059 -0.20287675159600546 -0.6743836470347417
P 4.187624926112939 7.665475704827859 1.0957559211513221 0.3258284474305937 -0.7277630910971467 0.09832566975579195
P 6.711843862438135 1.7173160479705707 6.669474200652722 0.06968872274538966 0.4437963168973454 -0.7525217860990653
Ni 1.6360301496400018 9.133431143993242 6.636161687602673 -0.04933227057622472 -0.03654514611388545 -0.5829583039432089
Ni 8.234292021248951 3.7139026598266636 1.5293531595724046 -0.7941698006571548 -0.4648667644143994 -0.1604013560406141
Ni 6.469919123727131 9.038855015158518 12.337455081630397 0.0019473535343579366 1.0271803955240633 -0.41957703933866447
Ni 8.427347185858382 6.028104508964404 0.80300738029036 0.24646594904086586 -0.5037068772100486 -0.5854023946083273
Ni 3.892243310356686 0.5311144203527605 1.1494689842682233 0.7921897941126486 0.9692040761195952 -0.29996932027564466
Ni 6.37356726472066 0.10647814528274048 1.571775538347292 -0.6367622371375421 1.029449394063898 -0.2787224950817265
Ni 1.399978268528259 8.701799231934118 10.843851439796868 -0.1235715888067743 1.9644333726583587 0.16850855852878077
Ni 2.2994595892743965 1.531816985185701 4.722555316616023 0.40271934435137735 1.4405849875034287 -0.0899670133784515
Ni 7.043359737470476 4.043272860901479 12.822689998530153 1.1728143634475157 -0.7311515479534053 0.2445633327015143
Ni 2.1158009968237836 4.212031967379792 4.499734475002711 0.08048684180215816 0.408205050056297 0.9303817039357589
Ni 1.3458369954793172 2.2137251169198198 6.706427885414313 2.0843655649403328 -0.7478806877826282 1.1737191346499722
Ni 2.162663625887499 8.498700093540752 1.8781148890383565 -0.804851448740717 -0.12743107176218055 0.8020867415113863
Ni 8.661373624742978 1.4352431599077626 7.7496675115957325 -0.2624044746479932 -0.441326258090298 -0.5450437882856226
Ni 0.9322213457876911 5.786512719660601 12.811102434300052 -1.1661276954559594 1.1397047253777404 0.11476787447221524
Ni 6.858184375498165 3.450909622515473 4.20250591489595 1.1244148890982055 2.867181374037249 -1.2080593026927389
Ni 2.1038980555163036 1.081835861351875 8.96082369728335 -3.6954236908980804 0.5456150874080604 -0.2687070198272533
Ni 2.7992351466742464 2.538027088129445 13.433391350377287 2.0535804612386763 2.7301590590422076 -0.2042846876871256
Ni 6.45025661151291 5.485979636687358 1.8785477232677195 -1.0476913709932214 -1.3629595264094656 0.15405921587267016
Ni 4.574336413983694 0.40922071751655636 5.473018656152546 0.6411516244544894 -0.9407548196399669 -0.8766883281773612
Ni 5.264161342733511 7.289122642958951 10.63134648065004 -0.06484759260300443 -0.2874804437800146 -1.5984826032855823
Ni 1.2008282800480976 5.3768462198821805 8.810571028688695 -0.4584904285744104 0.8603749357293183 1.0200530404506627
Ni 2.0181173401885046 2.602175340583744 10.858037859122078 -1.2778416135931994 -1.9772577781165364 3.4579794857398514
Ni 5.731354101200765 0.022667380614221324 7.761728603871633 -0.08590775570741334 -1.7513395713200357 -1.8227969559300736
Ni 3.9542181430695242 7.3884433008463075 12.312927808633164 -0.9708027880652829 0.01935037950215377 2.2051534203543826
Ni 1.2141185105522536 4.423260620465679 6.690143884823729 0.5539590884973815 1.0962024312197316 0.4028214171468804
P 8.811524558796544 7.509544399121477 12.737789749412512 -1.2215835624314189 -0.9177455032289872 -1.8615442519016003
Ni 6.220586260705876 6.526307805274688 7.137084070738442 -0.8177455310945658 -0.6674228994461925 1.4028442784195452
P 5.69262098682957 7.708093228949746 5.515576064409244 -0.8781194041969329 1.258808251110832 -0.016345788347875076
Ni 6.968381380687461 7.959007601655212 9.020708347606531 0.6071143323641222 -0.3100297898354402 0.7095951619388683
P 0.938371661226288 0.3363195950906972 3.6915118121923136 -1.369036842951797 -0.14507115344144692 -1.4478257282262421
P 4.877052165293041 3.827540142223717 3.5397432989354236 -1.1331332428078096 0.8033612373484358 -0.967541857925824
P 3.625365863294802 5.471551829041928 10.371855886130723 2.1627677562993206 0.1667776918806031 0.8271362282808465
Ni 2.592732525451702 8.00739624883527 8.945486752784365 0.1877103282682122 0.3345059205999336 -0.3380872101932887
