# total energy = -340884.91222403303 ev
CRYSTAL
PRIMVEC
9.12216828234835 0.00000000000000 0.00000000000000
0.00000000000000 9.12216828234835 0.00000000000000
0.00000000000000 0.00000000000000 13.35121536412206
PRIMCOORD
 96 1
Ni 6.755631609963048 2.1773612504783055 11.477906344062038 -0.24325721229558103 -0.49262670813648707 0.30639964928202074
Ni 4.623142305787684 0.6949733108933162 6.044175453008584 0.9370717143614249 -0.9330916466677545 -1.2174782820137935
Ni 2.8331265694210885 1.7260510916265621 4.7924451899937095 -0.45593680891462124 0.8812162979547018 -0.9385799234758353
Ni 4.081586535068692 4.983312880270107 4.778280286920076 -2.1178531551748168 -1.5527228805519646 1.210854863160005
Ni 3.704330139194643 2.7294166370124398 2.3202408617302552 1.3013702928427586 0.3738656533444787 1.2703435054439411
Ni 5.203531147336443 4.9191293034887495 2.641110398144582 -0.1451590851695629 -0.7743093142878019 -1.2463486851912406
Ni 5.3892584957259295 3.095626086968037 13.27012052301026 1.2002194949333458 0.38629076648170896 1.5957268949173162
Ni 6.053644263795828 8.068941070684367 12.187897480773312 -0.4546723403799008 0.4014386778667409 0.8228396577880216
Ni 1.5940168263716783 6.727745141199459 0.5583314383854101 0.5358058146271223 0.41962948984315473 -2.4110003103223057
Ni 1.1250552716882234 9.25197684464978 13.241548979400697 -1.6264739462921862 -0.9446269010008633 0.6775327341866848
Ni 8.42755175437236 9.07023588384606 7.046384307442802 -1.7741105464679638 0.8518617560519844 -0.7268205246782192
Ni 8.87142734598749 2.5635026383627353 1.1938227380847926 0.1319991507488372 0.4181871009696733 0.0032187640476138116
Ni 7.029132462586506 1.1874417812970497 4.841831697432111 -0.6542339115597442 -1.4053256500805025 0.07538731579206372
Ni 0.5754893249073053 7.55727864577443 2.516289943651309 0.500614354327654 -0.09802073692086345 0.36380132712994123
Ni 7.42071978499886 4.091602675959244 3.377844083703528 1.7162249870050896 1.4353944444414246 1.9213208577396006
Ni 8.003088137087918 3.926564405474834 12.588353375292948 -0.17361785473088806 1.2359568004339554 0.044624066467277984
Ni 8.747229023378312 7.370274193810555 9.346104851383167 -0.6148826634556314 -0.23433574143623512 -1.0314263152846108
Ni 7.333037502448773 0.665612699718149 0.40822433311926626 -0.8730383901295996 0.8374661494519446 -0.8591593181546623
Ni 2.148918329443019 6.965578315423954 8.82090786523524 1.9919727157292078 0.2627616008770958 1.4225975497870726
Ni -0.006616308732165767 5.092094738302751 1.3181004235589504 -0.6979053843057659 -0.2192253681573579 0.058444260179821926
Ni 6.810930194734024 2.4814669780451193 7.041738387082549 -0.2441447571068569 -1.4453500129922399 0.5136022819468896
Ni 3.584446602233217 4.539546754675638 0.3408981693280772 -0.23676003460701162 0.3652704554763 0.03234242088644752
Ni 6.233296248038586 6.024498935794629 4.608012277298549 0.11834067942513814 0.10957321764515322 1.7913222823605603
Ni 5.436602549662149 2.725950213024817 9.552700984394985 0.5828726862079381 1.199331693011754 -0.8181702773368102
P 0.07517487747263873 5.889509087981877 12.361636475466657 0.02031120075352631 -0.605062592041416 0.22734799726449234
P 4.00583604877074 6.2009216724278655 12.326883750557059 0.9140693399289808 0.31863732899879316 1.6935013201553286
P 2.447961253554226 8.55335557861791 1.470168795028618 -0.4459401027132256 0.5454376812899316 -0.8564339488036993
P 6.552499164288338 8.029834334802947 5.621809934453494 -0.6587006890818463 0.6167006905009766 1.0131753394942227
P 5.202892595549249 0.9918077580376714 12.818888814806659 -0.5423222755894015 0.25669302608551275 -0.395368560413261
P 4.413916251629468 6.626288384382766 8.219808964794112 -1.0921814829857963 -0.2196837958510152 -0.33647847094527217
P 4.875461483413088 1.3381582474115439 3.9051902527237825 0.8661041249036117 0.15972232769571848 -1.5879230826021813
P 9.131290556870168 5.649842357911298 3.706617979026474 1.1766465927094123 0.8098990384669537 -0.4073064495014276
Ni 0.7495348244585027 0.21316318203468465 4.222121749044802 -0.01851194276125844 -0.13308801293764175 1.144584422067545
Ni 1.9512591848013983 6.734723600016648 4.7048349725738925 0.5601924710016031 -0.1133995333697789 -0.6852285601690457
Ni 6.16591991232126 5.800905466424554 8.98349865794102 0.7448043628501495 -0.16927191905736652 0.1985200172892065
Ni 8.982471501780477 2.54700975791636 10.513908428573494 0.9491870095677201 1.084192551243049 -1.3113893676416575
Ni 2.8893921040412436 5.459480947980462 6.962578946457821 -1.8996315456916253 -0.1684298827720454 -0.9265574450936623
Ni 0.8951100364692489 0.28923385644307226 8.738917815759565 1.0498588109581855 -0.08821146413992549 1.1729642587618188
Ni 1.8138245958605332 1.2050931771287616 11.391737429247604 1.5204614494150976 0.774709377939698 -1.6721611639166558
Ni 4.106380588748585 6.928551433935107 1.4265903722031632 0.02248044049070322 0.7347742323076571 -0.9302747460442495
Ni 5.970295011230271 8.275612917693808 7.923679661266186 -0.010748239655439553 0.2949641537515694 0.09416176818608944
Ni 5.566985702438719 3.1871944132516163 4.901231609110548 -0.645261789968121 -0.6361076342726787 -0.8081540307513888
Ni 1.0575329812766818 7.643446648372028 6.913125847190185 0.047273588274983104 -0.34872720640563815 -0.9787917198080305
Ni 5.342689826102731 4.753698779763634 6.785448329557639 0.7279273845891527 1.4090972013077925 0.9747149786354955
Ni 1.149210773580923 7.209778763183609 11.002749924825967 -0.9739109946769614 2.345741598323812 1.8950467545344203
Ni 5.055706408601097 0.5189857016922109 10.584696455268112 -0.12442288106347604 0.09829507362817265 -0.4310089353246899
Ni 8.525277544318165 7.560562626394283 5.09952383223833 0.347859201978388 -0.9070065195449282 -1.2470724507311426
Ni 7.655132146077673 6.609348517685356 7.30003076056873 0.2795449909830218 -0.10248494333980414 -1.6426469565076225
Ni 2.216714284906215 5.428483819796401 2.364873807221418 0.5273240024083563 -0.2991185422395752 1.506744356939321
Ni 2.6100713079859337 5.7309749235584535 10.864338351650696 1.3654828070519518 -2.9944854333032622 0.2611600607179309
Ni 0.9983483527722127 3.426769921638311 3.6248550715436743 0.811981374917279 2.043848835773209 -0.053059084608508625
Ni 1.5737200017073065 1.4364404896290457 2.4200410327676 0.21652648116895615 -0.9979891186720877 -0.386306964431625
Ni 1.3631712331327608 3.58298705529106 8.21097049584251 0.11037308783862927 0.7898079241440332 0.5919036860619548
Ni 4.109445637327115 2.8777157285039867 7.164502704821057 -0.6470191389788599 0.35892651553614313 -0.9234309836495388
Ni 4.2524812376585075 7.178608313800167 6.183014855881275 1.0150669000899808 0.8458847125329432 -1.6509125389505244
Ni 8.222576630683175 7.663588396173796 13.101267361705787 1.162563889364101 -0.5454117131480025 0.008923013521242697
P 0.6657422345092654 5.726185785154501 7.986683741674912 -0.5536711249433174 0.46207068972650095 -0.12068783950107602
P 8.879865351746837 1.9519980804408652 7.933278919061385 0.400193235495414 0.7643470608687675 -0.8167823958503483
P 2.095134024624531 3.545157422984026 10.425216321982804 0.5121935745248211 -0.17599921047887107 -0.42030517575394066
P 4.019099681607592 6.534291316184928 3.529033078140546 -0.25014262656150466 1.8472548318621218 -0.4007894743185162
P 7.231982121041174 4.156963012462716 10.070955088182439 -0.2530443735893319 -0.8844749141013155 0.9501401175096088
P 6.908437052638504 8.264118985524322 10.08222370279273 -0.4196644568461482 -0.855705812388423 0.6918146980269957
P 2.477562689974849 8.717518120937028 5.510607052930546 -0.03454945584009534 0.6240303913931705 0.3266943949753148
P 6.872705519060823 4.167134230215873 1.3491139716461105 0.24843747094493984 -0.4725983287307022 -1.5255396352689534
Ni 2.847685550169105 1.672677284385556 0.39121696237578096 1.4686426649715933 -0.3118231342904371 -1.060584939126438
Ni 1.903057647036661 1.760496399461469 7.024902513104767 -0.39753548615759277 -0.7222442181614465 -1.2221260651984502
Ni 7.4164688545298265 1.1164986777398276 9.29227219907222 -1.0790292618745547 -0.36993880748624675 -0.8928852496521977
Ni 3.162911201001478 2.053901823508594 9.146863922742982 -0.9625217790034133 -1.1756487475725172 1.03412803048649
Ni 6.716242086861584 2.164809146775754 2.466357018326438 -2.264000315289262 -0.5964452826860502 -1.0842378026586874
Ni 4.649943236513043 7.139930319833004 10.405029875555933 -0.24298133292637508 0.7001247605545878 -0.6595712646122576
Ni 7.176318649534657 6.120810789640219 11.176703290476441 1.9814479049384845 0.7804069425451077 0.27790514138675365
Ni 8.082733789287753 4.339150959517473 8.021129961726658 -0.19338989515149274 -0.6310878124605841 -0.0667977743508398
Ni 3.462574432563102 8.317921534679586 12.543734113054368 -0.19925355302112135 0.5713186628217516 -0.05975475146112935
Ni 0.37218538246689165 4.993091844782559 10.052637774058367 -0.6179703012420196 0.03579669798363512 1.0719247896192892
Ni 9.047913937799445 2.421634675585068 5.50072774456582 -0.15771661011959937 0.3491465533312439 1.3508686566832024
Ni 3.92394634314734 2.7586440645291352 11.56056413626375 -0.952199828252115 -0.32846048573680203 -0.5458747688273503
Ni 1.5049570963949317 3.4798791859960514 12.574214926507642 -0.8871979694594333 0.15796189336118602 -0.21216948975184105
Ni 3.0992658321550417 8.878980501413153 7.6645325406020035 0.6665638938800069 0.14154154302163366 0.331357604778939
Ni 5.857672720306076 8.121001285677432 3.3693659404032736 -1.8402184938406307 0.7708246981733112 1.783509728294677
Ni 3.492787054265753 8.796616443033551 3.3075103409946567 -1.0493949839478895 -0.368963588057171 1.5066168302225214
Ni 3.699267335739036 4.6535282486897165 8.915661652720077 0.5860551977009777 -1.0558047441289753 1.4846351837451077
Ni 5.306301496401078 4.822917793495433 11.144913445859421 -1.002050690335971 -1.4973649726069505 0.4298645373076016
Ni 7.856896266494111 -0.000405936493287435 2.596517590194328 0.7160954249512312 0.05949584137278785 0.3174031994813759
Ni 5.111798622021871 0.39984470923760695 1.6528274459722196 -0.33061352752406287 0.21532680443390012 -1.3364982468941433
Ni 6.0378264238102 5.84936242490417 0.13774291823239576 -0.24823383957456602 -0.8419280418780403 -0.5208813321068061
Ni 8.940901780434167 9.18000293606466 10.946715181066041 -1.3476640337029757 0.07727527684339594 1.027427735648179
Ni 0.39926545154493837 5.078712517276848 5.910315841859164 -0.7472337982272487 -0.2932582268040562 -0.5337805566669774
Ni 7.416660420065985 6.721861342588889 2.7867193621783652 2.20703906741287 -2.437953441872382 -0.4920119573706236
P 8.60322647319774 1.9573801597900693 3.383398572035275 0.2459692119101054 -1.2760855501340411 0.627078691301191
P 1.8704002842058964 3.5113141782627593 1.4267372391142177 -0.09897667307622955 -0.28016051307983364 -0.05786524774790035
P 5.037206651109256 1.159610045543792 8.07004850192673 0.6831901895827782 0.6115541133030307 1.1105466157565453
P 8.737103416467097 1.808369539164221 12.479648143474767 0.7090562587162627 -1.0912250326097979 0.35460192001886026
P 6.541342752349225 7.649056781930944 1.1375626767656706 -0.6439422998257491 1.8439368232324822 -0.10331026745457692
P 2.241727270627432 3.8769854202834364 5.614025988167602 0.2960342468872966 -1.7972949550042272 -0.08518527571909201
P 7.202964503397412 4.21653989420789 5.85258528699582 1.3316213784178161 1.0467565178837779 -0.15045555768181185
P 3.041549872761118 8.939451355660399 9.888951408929131 -1.36117672347743 0.16783287261799482 1.277961169890199
