# total energy = -381173.61645885615 ev
CRYSTAL
PRIMVEC
9.19580913817094 0.00000000000000 0.00000000000000

0.00000000000000 9.19580913817094 0.00000000000000

0.00000000000000 0.00000000000000 13.45899620034517

PRIMCOORD
 96 1
Ni 2.7348244656160636 4.737018810836188 7.510793045975899 1.3578229765138488 1.3371921876373745 0.8587078324395404
Ni 1.3756286883442908 7.371700914068521 0.5475331941328834 1.5442765495568243 1.5654842939826912 0.21622411943718892
Ni 4.2273594765484495 3.7021224414454643 5.616250360946901 -1.1164969198027095 -0.5899753586909904 0.6940307318417079
Ni 8.845136229255177 3.480917250707115 0.9468750031372042 -0.2168445266300072 0.15890754510390698 1.4572989578239999
Ni 4.230844688242062 8.420786417082578 5.672010989301926 -1.1863648484384408 -1.134430621462995 0.04344110190277034
Ni 1.9966400764524688 2.968324453278843 6.470210907745702 -0.5021151072428965 -2.6822609498093484 -0.5697747153733994
Ni 0.5465060222432357 1.6469878225574672 7.831184234939309 -0.1600696837328082 -0.09757105097795453 1.6105996982640904
Ni 2.6680353032659228 3.635655132417953 10.998637499766915 -1.0499919941019402 0.3016392517788999 0.05708774615192749
Ni 7.006829595917774 5.550774360153088 1.8803967717089891 -0.14569953105406522 0.08163432514304005 -0.741072406611543
Ni 0.8364609218569978 4.014283381158788 9.224526810580182 -0.22013810977961443 -1.2037699312887655 0.9828975144462879
Ni 5.632681432857577 -0.01958799321520508 1.8913793266580148 -0.06781027477575419 0.3229328710503535 -0.8476888556212175
Ni 1.6710440594716853 8.057478386498886 3.1297688386523492 -0.6822206265806574 -1.732572060904545 -0.8291352609887462
Ni 6.368962289513051 7.537574920742325 5.937826889718508 2.1569717184428336 -1.1391545093012252 -1.23509445243366
Ni 7.9062808913369675 8.002386293474007 2.1700077480579987 -0.8456201460176468 1.2315810399637628 -0.47028870676091905
Ni 3.475004345379958 4.043590425136469 2.951154038307043 0.3745842766780581 0.3604871751550437 0.6755920655205461
Ni -0.22478695842875013 5.874678348237764 0.5914735293191256 -0.502631898978315 -2.054634099314171 -1.3054007541583905
Ni 1.5675268351049592 8.491713693580806 9.946346337659472 1.79515759694625 0.27776347360256676 -0.28514896743336055
Ni 6.762294637193426 3.4213192111654296 6.031393328930466 -0.14446900108107377 -0.9797851940695513 -0.9100447921506198
Ni 2.3768040253327056 2.0135235821766675 3.3038197588827747 -1.4887895722331135 0.917929079994703 2.061095795779115
Ni 7.525914634653934 8.97530290873559 7.876984882330348 -0.10068722800943306 -0.0923501688986474 -0.5685485562757822
Ni 4.915601425849231 2.2589505343951592 3.90444127921194 0.8571253184437689 -0.24246685518380176 0.8231649023379242
Ni 6.994369274427419 6.646951602172385 8.183810413535404 2.508838241808402 -0.8743064582087458 0.12846825477744325
Ni 7.403867854712992 1.4591818108987968 4.023136186692931 1.5569294624341443 1.2754669427134357 -0.19624099144704266
Ni 4.197693796011268 3.0846422440769885 12.878145956305447 0.5850578667847149 0.9460196675833319 0.6131816216041246
P 6.047697498673933 1.4308771101258748 11.101088010264354 1.2225006749290492 -0.4331630055532153 1.4725085756849028
Ni 0.23804363699738051 0.16723406685714198 12.266044387748563 0.8427353682706841 -0.1324336671830945 -0.9739397910323678
P 0.5187916924221075 2.6615522577672515 12.54109288061999 0.28607225057857827 -0.7953926173206625 -0.4274410154677736
Ni 2.558347690913936 2.4616169737500746 8.822870416395698 -0.6054467148537122 0.7913025064116888 0.3063672533821885
P 3.792875882617644 6.000605759668692 5.881971544528539 -0.28637332675876487 -0.5636081815513713 0.9110583210167986
P 7.323818335470533 2.14746054343645 7.978950773682001 2.6147769480247613 0.3637583897071477 -2.0261141374976077
P 3.906582063597884 8.186090974221461 9.751594731298464 -0.09472946776410138 0.1944625593903812 0.28943191107943056
Ni 3.1550453594497925 7.322751621601248 7.750807344888692 -1.5246844863575097 -0.37543454049349534 -0.0509518084575187
Ni 3.3785311108741993 6.752951695027964 4.021884637058365 0.03113760194506895 -0.3376184980869863 -1.073153776930384
Ni 4.367457629984274 2.6605407187532744 7.77274578694001 1.787279222639438 1.662296355307434 -1.369220162607197
Ni 5.555730901321575 3.6937634508663266 1.9215406613120456 0.538284358074602 -1.0253937359372858 -0.6600916558921018
Ni 7.365024756576273 3.7926367915779764 3.5484236861762573 1.2196014990043833 0.1064837800865521 0.243091119031362
Ni 2.0528540582019397 5.635302238484699 2.1851891094959512 0.2130287524283428 0.5141090463799791 -0.5565276205555061
Ni 9.021438283582162 5.322874620304054 5.369009075569704 -2.2979959555084166 0.4712829523533884 0.026872913131444045
Ni 3.364608655718188 0.5004543292605469 7.729030749079609 -0.6483681968075866 0.1315677196383734 0.12340035333623264
Ni 5.776770567494001 1.00151558192948 6.326427993556237 0.16359646593914406 0.8162905438155943 0.4475670967936872
Ni 6.237627742261955 8.378145449738835 10.07950993136402 -0.12044949823802482 0.017041014642686782 0.22938508229917914
Ni 6.411658431712101 2.487392826988054 13.278268489512373 0.5695538576118448 -0.5070516253125654 0.5399231792296056
Ni 4.628324345879743 5.658448090286338 1.3036926315748505 -1.8405887326958557 0.552016877169346 -0.7140863649410024
Ni 5.626327128687957 5.28527295641176 6.768556063689943 -0.5207026404370968 0.7125930682249276 -0.2952642014904915
Ni 8.298914357516777 1.1145596646460267 6.109913585099974 0.2310388158525182 -0.35855730512218253 -0.18789133393076674
Ni 3.579763003991111 0.10452416547609435 3.590820044994802 1.3960061724517892 -0.3026162709801885 -0.5323487093164574
Ni 5.251579511437106 8.136672695484073 7.722664490358005 0.40037526959923303 2.3334409265795872 1.5262461744176747
Ni 6.086172764441934 7.419326010008405 0.39420962787976976 -0.05740913404708822 -0.8165090875843034 0.39125273847267455
Ni 7.913288097961063 4.946830393953468 10.241219156043005 0.6954990888571183 1.5112023927106748 -0.9788210303840691
Ni 1.2462988275027134 1.7745336964107579 10.403629101384398 -0.7427567362925014 -1.1735959788085464 1.7867158939368002
Ni 0.9251627779926472 5.537927814675578 11.536890283237017 -1.6337236858760638 -0.16116111702477406 0.31939914686548215
Ni 4.829124035963409 6.288167909723936 8.854498482619995 -0.007444629203503308 -2.3400584318961055 2.343618381333222
Ni 2.49267122147917 1.6443302336934729 12.949371177022336 -1.4848033338918558 -0.4189445479609881 -2.069666568167261
Ni 2.2052286169437587 2.9945141179316312 1.1705317966130653 -1.0052601984122043 0.695236579224351 1.432647734934223
Ni 9.075831495106474 6.1661855004475195 2.827668114223488 0.6812574913364398 -0.9949097084158155 1.982952771618785
Ni 0.3453228669151797 0.6024027485746869 3.3416669508811876 -0.9213342490215098 2.0012348577574244 -0.4756288880269099
P 7.1373733035761235 6.175206589290352 4.061992158962556 0.8951925576291357 0.1932482273673059 0.1862093182426535
Ni 8.666332914820902 0.0432405341047544 9.81800134798514 -1.2166383026110015 0.9138135151644327 0.4187668847325433
P 4.140845303425756 4.309376898963554 9.53174224409608 -0.3025465940845177 -0.4962054266266808 -1.2069948659839664
Ni 4.14350289228975 1.7665425382003388 1.7914999644179186 0.07405985522989181 -0.09925435221764842 -1.8788030389820483
P 0.8664751235635412 3.838183634634598 2.743521861974423 0.09985367636454416 -0.012606633020416999 1.4273142385364515
P 8.624308066694764 7.222655238263609 6.55820560615249 -0.16297040231937093 0.2305207385655191 0.6929824930828516
P 8.532018925383182 7.860375411720844 0.13578807765536022 -1.5435520126859739 1.7838480854707022 -0.8992775263317867
Ni 8.85143535856949 1.1398113567585817 0.8159285190351068 -0.5507279831545934 -0.3773525834518146 1.1067298131136165
Ni 6.90802062587065 9.32868866117309 12.759047352799787 0.40316260253638314 -0.08196959699527173 -0.8115157481347701
Ni 2.4542787179941317 4.716217890385132 13.285994808417314 -0.8832150735522855 0.15205298407591875 -0.8426654342646971
Ni 6.517428629337231 4.050781547944925 8.614255208057676 -0.6319326769593826 -0.016945369605086948 0.19351587920639576
Ni 6.012275241566299 9.113709033275306 4.25146812957521 -0.9489499538562497 -1.6688251575648871 -0.5603120272986027
Ni 4.547520770281411 0.4348523458804467 12.974633904105955 0.9410219572584245 0.6692473542494409 0.7054988803823075
Ni 2.636447698602184 8.72582980046119 12.064658005036788 -0.13960370256897248 -1.3588709581623888 -0.1800551257157996
Ni 2.6272886726210825 6.299267251450031 10.282713405977267 0.5371659281994426 0.5293382046249078 -1.2334756858833145
Ni 1.8619306672183766 4.5735908894143655 4.892560406272677 1.3172391415542153 0.5037480148606293 -1.4808536052154884
Ni 5.791860890420695 1.3135661719321885 8.933933721806692 -0.9932536608696314 -1.3894966534680457 1.285491416828973
Ni 8.010377451684427 4.0393695487054195 12.360486267998072 -0.21278655451054965 0.9995801173082913 -0.5799421428247044
Ni 8.240925584588236 2.5642605962410934 10.383965702533608 -1.216397647355105 -0.3702033740015431 -0.24503281613876512
Ni 1.841138942576539 0.03006661781908574 5.198012083580567 -0.5539143513023751 0.5666171435810242 1.3267223984543022
Ni 0.9113690641656871 8.524561124107407 7.562973745802367 -0.49307665118971217 0.33456119931790124 0.058250141891144844
Ni 0.14429328160106378 2.7494182148449866 4.76200842238603 0.4818406732645766 0.6595522384488641 -0.524506073343587
Ni 8.546842569842557 8.061248668278255 4.407726998130701 -0.16256802467462972 -0.6674005308486893 1.8807136257411996
Ni 1.6130276991154915 6.82339159363764 6.112834174107603 -0.09882934886508785 -0.7049450647613666 -1.4630127203793255
Ni 3.5397980171297982 7.961520117309333 1.579143900890025 0.378417020160587 -0.926558730645243 -0.8650386597535746
Ni 5.380136924304374 4.89777075177558 4.11866777033477 -0.04058923427627203 1.0054111221677717 -0.19057890806525887
Ni 2.0385545748679914 0.6236257566688477 1.4915795663546387 -0.42736799613799303 -1.3065050429661629 -0.32185557882577476
Ni 8.712155632154063 3.7256085381881685 7.268194724672856 0.7336691721689365 0.4323194266059974 -0.07348238545986699
Ni 1.0908160852452196 6.068571985598732 8.53059449453532 -1.6373659106143414 2.1592548580500557 -0.5091745851928392
Ni 4.232058535058834 5.352898937400736 11.529164883912998 0.8214823724291788 -0.7281685540656814 1.6150662186758764
Ni 3.9485241494410612 1.6415530993096448 10.805043645786451 -0.3952194364299064 -0.8742810042874491 -0.23907248479027213
Ni 5.517025740323125 7.154100480543618 2.9310198140242907 -0.003836600137270812 -0.04959015222330169 0.7901339400248844
P 6.611529345064753 1.8103145900778923 2.117113453436216 0.6145908432468254 0.8255845675230105 -0.9797545979419319
Ni 4.797324927687657 7.491338391994355 11.86018826749423 0.23573982087261336 1.2709376873845144 -0.24986134787566003
P 3.653568568774565 1.3533380467999234 5.634554619195277 -0.5260857591258811 1.1591402083945326 -0.198241052596207
Ni 5.691810486129145 3.720697976065771 10.97139675412051 1.852926171215286 -1.3345732619572885 -0.046494544017113476
P 3.199746188058361 6.598590841495064 13.123033114522842 0.8024927187005534 2.126410814936841 0.24437795616358562
P 6.068185761611577 4.8294458892860375 13.23489093785027 0.005194913937378151 -0.13737404190750532 -0.1476671963033973
P 9.088953914860523 7.169981643063057 10.174772077795774 -0.554897798261567 -1.8357224057424901 0.41078566629927965
Ni 7.520369561695496 6.724803323011748 12.01761868214409 0.09478937446775934 -0.1699692022347073 -0.8595352134368422
