# total energy = -340876.2087490277 ev
CRYSTAL
PRIMVEC
9.20170383401250 0.00000000000000 0.00000000000000

0.00000000000000 9.20170383401250 0.00000000000000

0.00000000000000 0.00000000000000 13.46762368355104

PRIMCOORD
 96 1
Ni 4.610964533840075 6.182339478599235 1.233990797077643 -1.8856596568925652 2.160936873738169 -0.6292744134009293
Ni 3.285771970483309 4.388090067967783 1.8113949451783269 -0.3788757049645604 -1.1178778593106362 -0.26556873130858777
Ni 8.190528500788046 4.616531564592429 1.0823108330797773 -0.17939820885809105 -0.5463977312103558 -0.7171601187703197
Ni 6.1923417305460235 9.241639117054596 6.201867334239967 2.4370923794236674 -0.5977164360889899 0.4916933976889403
Ni 7.177200080007713 6.426911561850119 6.169222449942244 -0.00912304534719074 -0.8151764848158091 1.7483396081514468
Ni 4.471071032140869 5.080978358301943 8.726373154024266 -0.6863253927776503 1.8368133248138236 -0.7744779786551823
Ni 7.130694669392191 2.476252085461426 5.708656014692676 2.4600160780993763 -1.6203153828899581 0.1625759950944297
Ni 0.684805513783968 4.328959919844444 10.100151633208302 0.9435372674811106 -1.206091894553723 0.8763245170800391
Ni 4.289171752946637 7.3242985157219485 10.104205903868612 0.3692806050769576 0.07012606739312438 -1.1843689010543343
Ni 1.951764174960007 5.703418404933602 0.24315226036644225 0.4675666798440657 -0.42135084340963563 1.109857817219637
Ni 0.724439092059231 0.20048119969225095 8.206374754769248 -1.0991193477562102 -0.5376870908102352 1.078288269943472
Ni 0.9096003752232303 6.2926863096442185 11.836182784555357 -1.508643116623931 -1.2054899993036658 -0.9614946232904797
Ni 2.6228628308783475 4.0855840580775356 12.124793301653655 -0.45367140991921223 1.8970948953127005 -2.803112568581798
Ni 8.624057569988626 8.455086684525066 5.983045298687237 0.5966738537570885 0.1865510178527884 1.5004143009562352
Ni 7.79921684826812 0.46515624506654984 10.949582067787508 -0.10004548066037608 -1.5097412347841161 0.8443999004573006
Ni 2.5386028298877776 1.3483716550347447 7.406142149314886 0.8859052187899388 2.3296236097160268 0.820398909557013
Ni 1.4113665187216988 3.7540466729415485 6.054289489761769 -0.6596345137500252 -0.0585959552663378 1.804670164422376
Ni 6.304758944928659 5.661983133069396 4.141253445430691 0.6974315299931408 0.31354165964344066 0.138335120269194
Ni 2.1737552772749025 4.821628338872085 4.210585522471606 -1.082728822213329 -0.5807844362203416 -0.8533995328527496
Ni -0.0043652882461424425 3.3545731092194115 4.0590877522074535 0.9840866496583826 0.10731784595207323 1.439159825021128
Ni 3.043969600053016 3.243250897579801 9.720190282230568 0.20078335940208647 -0.8662200816561856 -0.0731774526249385
Ni 2.8933561135166346 9.008578365161057 3.1570935052815696 -0.8490358565674152 0.15348251743359373 2.3095168116638223
Ni 5.503934669924914 8.17078164459871 2.530431716981845 -0.36349588007438044 0.21585439480259602 0.22038030769740755
Ni 6.446557199298505 9.005311760339428 8.832067603666951 0.5461192807379885 0.08957234904319412 0.3235388800654686
P 2.1078066666928983 0.9673935157956309 9.846732111827851 0.6219082028438451 0.6149816509273408 -0.4964993037180159
P 8.02687620007632 5.379343601516886 11.971168097488768 0.7809098503234551 -0.03294585879840133 0.6771509253672338
P 7.08162198343798 2.729114903766642 0.9659948568297505 -0.7424240355434311 -0.20713244154856586 0.110728414295519
P 4.185192500877898 0.3633495152467872 6.449213731163305 -1.258111996374756 -0.06770023156045114 0.2560026848867075
P 3.199883267933786 2.6776221697333087 -0.14931972699294238 0.7140624536816025 -3.7173009505871457 2.2647708749066995
P 7.030653746516852 6.843619916645244 8.715343991942001 -0.36615260097093716 -0.6906733853337008 0.22893282525310896
P 1.1329413674742748 1.008561938251873 4.167973352701241 -0.1455684047928396 0.043713124617234395 -1.0592009142947179
P 7.011523404476949 7.922584090081003 4.611961078353265 -0.3025031424410919 0.5336478877438551 -1.3565885898861152
Ni 0.46262301603163625 6.157402861510183 5.718878187358442 -0.6112154990166893 -0.3383075537342109 0.3918847156297186
Ni 5.014045165421589 3.924407015667268 13.39615129737961 -0.8426217255109553 -1.3622905253668989 0.7264788250680844
Ni 7.199412992794787 2.219294508999521 9.54684858749863 -0.5326855238305858 -0.5932967097547395 -0.8189441793883574
Ni 5.2554978711104114 3.4987177980385966 5.471168323138049 -0.7705511327969503 1.3324749846673631 -1.9011510676599452
Ni 5.213528900430277 7.2966473960346425 7.61501162212093 -0.5297683501837908 -0.44880688273805924 -0.3809958366313568
Ni 2.1703046383788163 6.663229716861567 2.4127244431289157 0.2679557434835256 0.1975208866007308 0.3085604043787654
Ni 8.53672419995461 5.5966694400442725 3.246680372557325 -0.49021064249582674 -0.41928444779891016 0.7279674937984688
Ni 8.86509619900992 5.587955426618688 8.338559989259785 0.28945427967693377 0.44331500638555266 -1.4465975122460957
Ni 4.635487074261596 7.89198842520237 4.901419992534816 -0.2434572441215291 -0.07858036880806467 0.6612100857672613
Ni 3.8481709003230646 0.7609413305575918 12.083717816405015 -1.3745418319304263 -1.1605694846418917 -0.28630364986309403
Ni 7.059685121762593 2.966408439372715 3.302436255925476 -0.977271426508762 -0.06998979892557623 -0.03007547922914175
Ni 7.612035791136945 4.5490646728961455 10.02997207925451 -1.4144458672142155 0.7132173320724878 0.5100009377488766
Ni 9.046121316350476 2.195747349172627 2.0622701954793965 0.08187240929577513 -0.5410423804357134 -1.2606648447035966
Ni 1.9759002438251665 8.059763089181954 10.581700713457193 -0.6141329297738004 1.4747976288293956 -1.5845708783004968
Ni 4.1332488833621435 5.795499854088635 3.6106022337756762 0.36494932469145536 0.43639642488884844 0.13707630816142843
Ni 5.2927463677807 4.8798751234380235 11.216362462973606 -0.8241367793328903 1.1826717158575697 -0.39351685191650293
Ni 3.018720125037386 2.049615092349296 4.9267394004987395 -0.3949067902854941 -0.9378731272167977 1.9906786795081326
Ni 7.18649380076784 3.9436201730406775 7.636505881847245 -1.2108080690824694 0.03157263259995853 1.148341832227448
Ni 2.1065184281716927 6.131178005899926 9.2023055143207 0.038092178886031176 -0.10815911090644598 -0.007979418661050773
Ni 6.961686977113738 0.7976487670489735 1.8931171162821216 0.32656249738314086 -0.4319340182421207 1.1644323100314076
Ni 0.25341584069896184 7.644738646168121 3.8235259772420287 0.47825501279584726 1.815916940980789 -0.6773471005384399
Ni 5.5500076004654595 1.9691645967000058 7.355881523410048 -0.4435417776843781 0.11240220245351609 1.6824638313942444
Ni 1.7174611930638752 0.6780983919403482 1.019995055127573 0.04486472172317434 0.28453087423338735 -0.16341751715911856
Ni 6.313693799243592 5.807765725151257 13.214850128927367 1.156159528499654 -0.5605650238496732 0.1377234548271241
P 5.663547422702289 -0.07016851190932506 10.943777633079103 -1.281364024924161 0.31249496354648115 0.6400285665936396
P 9.035944232032953 8.89126584439784 1.6975266221185905 -0.6176633115245621 0.6041603919421208 0.4871965382598512
P 5.632767723749198 3.6144568274651983 9.492223593518023 -0.757563976508663 -1.2561705563776688 -0.13793068574192377
P 1.8843800985972308 4.242381089515704 8.15987118449447 -0.21183550345118998 -0.6528879390548111 -0.0015439474483521798
P 7.836437739827239 1.039976554761844 7.684033601746382 -0.4271191133519805 -0.2670185763812369 -1.4007925380968391
P 3.1040935321784264 6.159316815884546 11.55573233831852 0.8057973575937541 0.5153853419892414 -0.10810280374721382
P 4.830866849409874 5.523782744855202 6.331870844777804 0.546686208985052 -0.31424099970331043 -0.1619753853959533
P 0.9881801645056557 4.568866739307821 2.2143605554633035 0.5282272309489161 -0.5511632709197991 -0.41801509416818333
Ni 7.091955496718794 3.228850231253467 12.28895077589977 0.8688557195068197 0.3926740443002334 0.2369119868038436
Ni 2.1721357774196726 2.4961461689103297 2.7029655021269123 -1.2843567890038978 -0.1307673352242651 0.49725417960616947
Ni 2.6684940796401944 6.091813117373372 6.582448880048624 0.9278622799480148 -0.49129641936083773 1.1905125520582271
Ni 9.30586700904042 2.4556034623072445 8.291786809065925 0.7862410327283814 2.093810512403317 0.7286681194099193
Ni 4.1116340813170575 1.396597784246449 1.8550036594618815 0.783604880657115 0.3926074527283561 -0.7555595444841247
Ni 4.758541458147901 7.436789343734367 12.432272832406127 -0.5798824932313625 0.591248311866143 1.1637928766751957
Ni 3.747927539965822 3.4960401022552334 7.0859762296396545 -1.332426133707299 0.6998288265807238 0.6089282456444093
Ni 6.7314971567817405 7.121815025299595 11.222974807268878 -0.12694461904406526 -0.07906502175396705 -0.8750435934850865
Ni 8.67799795721225 7.442687635820744 10.044947852063524 1.4318823175231083 -0.1794673715331296 -1.7482948709564408
Ni 8.40790034783405 0.8194880906648978 -0.0708457573033303 0.7824702528320394 0.3452356483126119 -0.8805084732543997
Ni 5.700225413741757 4.418244051067716 2.1808525513563732 0.47825347013395053 -0.8516313852087332 -0.019204340842592732
Ni 2.021430273846062 8.783182632468689 5.939652824441171 -0.07498442392669022 -1.0380785304938058 -2.3252483634664665
Ni 2.439362455236331 8.137535889047882 12.768505846951909 -0.4419502648275421 -0.6551073153036331 2.1648902019589618
Ni 0.5136722279455255 1.5370801949839208 6.100254760368758 -0.8951300798223165 0.16932745488565032 -0.25395994342506584
Ni 8.066517139714561 0.9262434967468345 4.200309059753874 0.4302504598921106 -1.3828801765927925 -0.6693309151021828
Ni 2.902686641091652 8.240751399707621 7.981129009847565 0.5994398465379999 -0.8261424969090094 1.4654113025184892
Ni 7.04109768024234 7.9904834618522615 13.597989748370988 0.33506976352320356 0.7247119629756485 0.7732610755289456
Ni 0.578884702229698 3.1415352646268953 13.068739036022599 -0.47056818567455083 0.2703334996870828 -0.08177445026533015
Ni 5.649524026228593 1.1128448465434673 13.404406145789421 1.2328437087262702 0.3526445391821733 -0.36990126938009193
Ni 4.962626045018039 2.4941862060173525 11.320036218478744 0.5089064191331172 0.6384195702353069 -0.9925445506177487
Ni 1.4327052696550977 1.1505902352147919 12.022601020447905 -0.8365230688123851 -0.29597022641858056 -0.8482508987722747
Ni 4.232765309125277 0.7356366453196245 9.26948255234971 -0.06053893792532155 0.17573721506673604 0.5983424997087631
Ni 9.251853008187013 6.797510179289805 1.3045108140691826 -0.37933027600347574 0.7066427641787636 -0.48659747122327157
Ni 5.490178122859182 1.1191112067787603 4.178720942649584 -0.7112370684176654 0.42840157960882996 -0.8607372041647435
P 8.725267109236775 2.3740763673223753 11.082129849404724 2.0121695023920574 1.2848105887118646 0.5204511865479231
P 2.571342491733846 6.987083679388935 4.636148676759273 -0.9460320088785062 0.569198016934323 -1.3567148310513344
P 6.691432938772246 6.451664144864713 1.858855492640286 1.3215650226230786 -0.440420458446577 0.22103516767258705
P 3.4191046574280897 8.305246141101406 1.2869742071140853 0.7105598398449826 -0.691657346513525 -1.3277667805584166
P 4.22734550563249 2.968580041451319 3.543251283546302 1.345081103467148 1.030285002591316 -1.7653420562467144
P 8.202067437256561 4.300186192302944 5.884489530792774 1.772908812850379 1.3995977464577896 -1.6027490918714202
P 0.024602595243910307 8.218059998326956 11.95889946591503 0.19647264784187454 1.6109313705718966 1.2359742839354522
P 0.7490140821919725 7.382609712213949 7.767074376993667 0.6215760163154069 -0.9326967252221807 -0.9511811571796136
