# total energy = -381163.8630492033 ev
CRYSTAL
PRIMVEC
9.27436938144115 0.00000000000000 0.00000000000000
0.00000000000000 9.27436938144115 0.00000000000000
0.00000000000000 0.00000000000000 13.57397705737105
PRIMCOORD
 96 1
Ni 2.1772231087818232 7.632091790012925 0.7307377572823793 0.7414279901787488 -1.6717927248336433 1.094598062847089
Ni 6.593659210604929 0.9175708538406107 12.132352423688554 0.2026684922399413 1.1194632015198849 1.204616852670093
Ni 2.410575514205557 7.766644339509668 3.221850966868055 0.27431073916727594 -0.05347637465158532 -0.29364929159488784
Ni 6.456222332262481 8.89093902970074 8.309635474859855 0.5960002247288315 -0.8303431652539183 -0.09707431384719412
Ni 5.747465757607772 1.0175374254228744 9.983130490633265 -1.6096051955613053 -0.7182150423973953 0.1368968451607707
Ni 1.0510086241500416 2.5768556810050534 0.2529009209895755 1.4309826885269743 0.30390002278861855 -1.3970623816304457
Ni 2.767193561713741 6.5675796841929595 9.59805033124539 0.7187606304882201 0.16682911394382882 -0.04186912942996015
Ni 8.691975985562774 2.825445875153845 10.891691294719529 0.15123691593252664 -0.44070327979431845 0.4897550430156469
Ni 3.492940780887201 0.24345312100526817 9.636967439613066 0.764852025529644 -1.4622984679211202 -1.064447764515954
Ni 1.54769747087585 6.722869723397085 5.285190385527856 0.9786922181156887 1.245695624988274 -0.354319355781435
Ni 8.214141931580754 3.497040052108428 4.522170403659851 -0.1791830075234914 0.3898717989647479 0.330325821080315
Ni 8.445426152655315 6.002956082499987 2.2066942720390466 -1.2070288045456954 1.7317431372453467 0.025314053284756406
Ni 2.89262013184015 1.1055882873557439 11.56250364234391 -0.7305727926317999 -1.460634449955136 1.2583382534529488
Ni 5.0879189863463425 6.793002503883325 8.87279279876985 0.28284962987622253 0.17483450074680856 -1.3010964703560817
Ni 8.293530532607228 0.46910130786910775 3.854561423184366 -0.43634423149467433 2.671376955906993 0.07435733186565259
Ni 2.473854535794768 3.097333284930968 1.9788007603728113 1.6365025341727815 0.677229344013653 -0.3105041583686975
Ni 0.16127849944744257 2.908024859212226 7.926076312033702 -0.857487072658562 -3.791622544118858 0.7999372992685514
Ni 2.8732459744167493 5.834125464148823 6.857641148008807 1.2086681399213313 -2.1727747469133614 1.3522863629663355
Ni 4.425450788762093 0.09918010506742214 13.466525163221803 -0.03470140803692733 1.7313692988456957 -0.3761390227596877
Ni 1.7763384967059563 7.762591440134835 7.421993010681912 0.2872927532492407 0.6041423942199918 -0.09466441885412083
Ni 6.360918913553595 3.144335788435895 9.785412066852514 0.4296285100373956 1.6960233152462338 -0.11308868699757943
Ni 6.757778449362466 8.514010113471997 5.43616042352192 0.4772659094097006 -1.3496178149952371 -0.6442053236791486
Ni 4.148008031786973 4.461184933593286 9.015930631907972 -0.4888834390439709 -0.6906746708852814 0.5431141753630776
Ni 3.986179562241298 1.9730942409555692 4.776111908882507 -1.2942866465231 0.6364256797337298 0.22908400611899257
P 6.890995489683061 2.1762122025304347 7.964422119253804 0.8184014195110099 -0.37686073141706067 -0.41350666477486847
Ni 7.427582673046241 6.861122746236066 9.57345470391803 0.3629405217915426 0.6533913610537908 -0.4726695482882699
P 4.212205215934785 4.234658463958745 5.443816415361563 0.5526930773007642 -0.5909770604826274 0.9111400820973276
Ni 4.041640290528486 5.297093111060261 11.573688531694133 -2.4113705491775312 -1.061637034540036 0.3948556253325845
P 7.320055635627905 4.924346935376254 13.503147792629905 0.9018167478138727 -0.3020776248678991 -1.9047439272175262
P 8.999347132200562 5.937757266470066 5.718675333055612 -1.5628645969716568 -0.5363262059069667 -0.6418450509770882
P 0.02925599788995541 7.929965982509229 1.4651203416913248 1.1588213916025332 0.1658551800663337 2.9727953499243385
Ni 2.12749394070893 1.0172591943445106 3.416285336487186 0.053758681778694514 -0.5270458090463053 1.1042795518009112
Ni 7.791221418098472 4.611782141942341 6.8681202578569165 0.21177019743089337 -1.0256387620685563 -0.91729504595513
Ni 2.608666767631316 5.121594221197643 13.449164471368828 -0.5864922852383964 0.024876194416389413 1.395657530863119
Ni 4.96397631530454 3.0371704514194318 1.3001617725140566 -0.9892049447215544 0.9899423371082113 -1.1543736402438247
Ni 1.029084015174973 0.5014809133321609 10.240683435253084 1.918999922915908 1.3616444071424678 -0.8587052613363793
Ni 1.5552839049459035 4.397219608677444 9.166520420761605 0.7841021320085076 0.23483710655268586 0.7927695778755185
Ni 6.7788683651024435 7.027931552084453 0.7691290089119467 0.20666758609700536 0.46243347238255844 -0.6421129599264942
Ni 8.108785096573655 0.666916185090359 9.876045840629526 -0.8567627928980277 1.2573658622373507 -0.7116548726813744
Ni 0.9723619726658694 4.455573940179615 6.7926352388598845 0.5221784536516749 1.771081786943969 -1.847145045757135
Ni 4.260691618524319 1.2081164397328106 2.295861768033083 0.25503080789174143 -1.4110694945428148 0.8791717567208471
Ni 2.9572810344519005 9.032373161202345 5.466838182222314 -0.807502513210319 -0.14479321718971191 0.715151058760091
Ni 0.5373476816440407 6.555958899486631 8.940948283725852 -1.6921949426390792 0.20537714942035595 0.10054761710777523
Ni 8.35996283975123 8.584356204451648 13.386425218071643 -1.964951449945358 1.6749754934369991 -2.224578361848214
Ni 6.886311933197271 7.947067919459325 3.1378149793959755 -0.43512861392001834 -1.9948104422883193 0.999545150305298
Ni 2.289480074532345 0.5204182479625303 1.129278736241495 1.413521041407101 1.4233264575332971 0.7858833922786465
Ni 5.914877397459281 5.627038072522633 10.749381662758003 2.6258589168705355 -2.284992601270213 -1.2060109048041423
Ni 7.757379244600152 6.439463546975701 12.02600044885784 -1.1933585061474543 0.18680015774911699 -1.2250254982334323
Ni 5.213521769489048 0.4022553638552728 6.603536413886844 -1.4255756585787902 -1.1471089882616115 -1.8416662820307508
Ni 2.8688313746400436 2.836167046040131 6.936166305255427 -0.6757974966631329 1.1040509807298726 -0.8345543751217885
Ni 5.958819359102206 3.599948453625925 3.727713092247518 -1.953745039706577 0.8380778148940148 0.8920247014241154
Ni 8.129791542990123 0.5285017882259271 6.771826336509055 0.7883364818048294 0.9276578772466927 0.25479195240805796
Ni 0.7081704345162901 2.0226842934892804 5.3329979042861835 0.52111684515638 -0.5575084964115365 1.2657360885789168
Ni 2.2080418378952555 3.982608930068962 4.649969357447775 0.05957605979141998 -0.4358531507908687 -0.09793974717128294
Ni 2.317191889937381 2.1151033833524617 9.202287953322202 0.9139389849987034 2.75540497809319 1.4262860543822533
Ni 4.729715021691485 7.459662716381589 10.898817720073353 -0.6301712141835857 2.977795888462723 2.5518700240878958
P 8.619218558570635 1.5742314413824794 12.957962341508356 0.19363569261371166 0.1880414863553858 -1.6902216209627925
Ni 9.018517253499828 4.052667515600971 1.2203753010455205 0.5908415633460276 0.09715993158246493 0.6681962872771072
P 3.8476946801703473 8.224371560895264 7.9201036182181594 -0.28986745595495245 0.7663718046082801 -0.6502908677515961
Ni 4.6683465201737055 1.9485913573209956 7.9371248681555295 -0.226077615192501 1.228106451151601 2.6065609878728724
P 9.192235464460918 8.736901030349252 8.425856306040133 0.056411546020509296 -0.9990317010039891 -0.14118107435842137
P 2.8433546822311966 5.299439526487795 2.139435618592305 -0.04348609620809284 0.8253192296767656 0.5980370526532024
P 0.7627918323837468 -0.19993499803838347 4.946669414793383 2.546928363811904 1.7964812008536803 1.2857557262339534
Ni 5.712557031642391 5.222369517781018 7.446086894631291 -0.48353528735818013 -1.2772286625995488 -0.8961672628375792
Ni 6.97905562598521 2.3129906006540875 0.3569862399685517 0.3837566872059455 0.33286015746639447 2.5709751203484625
Ni 9.286054984085197 0.9291990580423625 1.481789165596101 -1.349053972071967 -0.6806391410261503 1.2257166107631858
Ni 6.693080449273599 0.10421516014887935 1.601716034740185 -0.20010793060161666 2.509324694526517 -1.3975442063628705
Ni 5.99224418598298 2.969384086360727 6.101054796109501 -0.17538111727889796 1.1774971136351657 1.0902343865617548
Ni 0.1576587131179293 6.557183116231433 -0.09635327731124575 1.7622811579332036 -0.6532746329702684 0.21744565054911583
Ni 4.314056339354499 2.6106978545033726 11.155596254858391 0.40922654934227587 1.4696163417387722 -1.5305730839278027
Ni 5.193145980183538 5.376787766272937 0.24609167906508503 -1.223689810141144 -0.8544318307720059 -0.33610360410435663
Ni 5.619674223315271 6.022868153341557 2.6109269314245585 -1.3058987768407315 -0.2795007680086477 0.667123880148535
Ni 6.103369678681488 1.4297089449110336 4.507252580674911 1.6404620330411617 -1.9842676337754666 -0.5669961241869976
Ni 7.658087847101385 7.03772528604286 7.078625254562341 0.1287868144591266 -0.00513654989561696 0.39839629149599126
Ni 1.5244466270939134 0.8098889344553181 7.687853007864746 -0.8738994525783141 -0.5853111204461017 -1.4973698577029566
Ni 2.072784436333325 3.3850984149133856 11.711641064968482 0.49439279889797444 0.21255926899109198 -0.8289396000381724
Ni 4.753902576770579 7.969994160316504 1.7989456992599444 -1.110129839934101 0.4067924859794865 0.14484129681882799
Ni 0.2341323798800803 4.49321860508224 12.553498750327803 -0.3468562146351704 0.21959766389511212 -1.3606103094509987
Ni 8.410202098134457 4.526151890391238 9.040255447652394 -0.8919897344211218 0.9478101838248516 1.6294641392687617
Ni 9.204115931507053 8.100419615484181 10.939173283116169 -0.6336776846749475 -2.4240962242743156 1.2752208881409006
Ni 6.840218317881664 4.380989462439555 1.8454362575806826 0.45313250669660665 -1.4623164656432492 0.5544177733013548
Ni 4.002418982848466 6.024806496520824 4.306711038885694 -0.9461669917944737 0.14087177064811868 -0.5421960344241823
Ni 7.032707852263033 5.856949686943934 4.469340813937057 0.9045233481117583 -0.05615726391785812 0.9404318890829095
Ni 9.069442815209685 7.681505629530339 3.8825514696677663 -0.13908279706849594 -2.9123199182471007 -1.119799501813381
Ni 2.2683345125766947 7.852738309524711 12.087151002697569 0.9713452908323142 -1.126768991152679 -1.9937470340208114
Ni 4.7206632372753825 7.048288792651406 6.332681241410452 1.6493799043560822 1.4601554534361887 -0.6816274730813487
Ni 0.8871991493264163 5.508845510433683 3.4321667664401927 1.1188829035363828 -1.4990652431275087 -0.2801440580196014
Ni 0.6110019401454383 2.7002047924130124 3.124159398069879 -1.385675994170375 0.4868388978101164 -0.4374197239470402
P 4.4896850703870195 7.324071437525623 13.259970120392216 -0.8157542116961499 -1.0168751569433132 -0.8062956373864113
Ni 6.050292463298951 3.3985647991061945 12.19272949513043 0.8688948002748713 1.9626693387794005 0.6024498370089173
P 7.096951408257238 2.00307827683391 2.730296410974987 0.612952536312454 0.8099442898825923 -1.0955272595295777
Ni 1.1252221271189506 0.44545815826667845 12.773872603382792 -0.9987522220903574 -0.7903126316945938 -1.0485231228658975
P 3.3831971692112326 2.4007539571393144 13.334790167111958 -0.14243345870828375 0.15565021450887387 0.6307013756554428
P 1.1671700993669354 6.027375496811051 11.032643159018638 -0.28914034798094074 -0.34924194125852753 0.6112003295080377
P 6.819555023128512 8.560391234235246 10.955923721470597 0.004124306581018703 -2.827323104389731 -0.5224193660178874
Ni 4.870806001529777 8.80304583204561 4.076767891608846 -1.1467572613491475 -0.5353144768130006 -0.19265610230926175
