# total energy = -340874.60211259633 ev
CRYSTAL
PRIMVEC
9.20751422965420 0.00000000000000 0.00000000000000

0.00000000000000 9.20751422965420 0.00000000000000

0.00000000000000 0.00000000000000 13.47612778490163

PRIMCOORD
 96 1
Ni 8.282720581095536 1.8536014912414684 8.610894798243018 -0.9495361653770227 -0.3063469416672144 0.3970554611973807
Ni 2.2008352625524465 6.181188357989125 2.173456719409861 0.8050183133358846 0.7434072253923067 -0.4850059583664357
Ni 0.5939647640901702 1.847699474710647 4.931387097387317 0.179888004010316 -0.18135404703288122 -0.6398467896001367
Ni 1.0934107130547646 4.249249336881465 4.476648233080138 1.4707062323688413 0.2418143092014674 -0.11171931745387856
Ni 8.009367902831844 4.344998275889284 1.2357975524243878 -1.233512195548205 -0.06982627676451846 -0.6080946939995205
Ni 2.3732920014327665 2.335863456662425 13.279524303828449 -1.8758907504312596 -0.23897015488445295 -0.18382307739866408
Ni 6.79181227731988 3.432036423943783 2.919980784434789 -0.40678580111126716 0.12038213533519912 -1.1086033759872456
Ni 2.0633394546667114 7.025517399917867 6.9366483154370835 -0.022654247064406146 -0.49410972043991674 0.29505774190664025
Ni 2.2663283102649783 8.87799557444052 3.2296478982640964 2.293086176911625 -0.23454708611609285 2.107479782360293
Ni 5.843659306527578 2.078964606075142 7.86728214917292 -0.1775657836350426 1.6130507309077444 -1.170013917884243
Ni 5.520696542354268 1.0575842757358471 12.086442250764103 -0.5337846704320355 0.5743052562539012 -0.6837362918942353
Ni 4.871161668484899 6.618075693981239 6.223140554431217 -3.244703393187393 0.09820122836278572 -0.8623284599112632
Ni 3.9741932685113746 3.9184878082750725 7.66621858477059 -0.7485144647118851 -0.4385186134381738 -0.32021110124381624
Ni 4.840832117076903 8.411496873139324 10.038650604387476 0.7283521308313973 -0.7475284466495319 0.7052484549343983
Ni 4.915412981194927 2.764344332291606 3.895530713397854 -0.13633685889224262 0.9898644326824243 0.038331291480030755
Ni 6.656296084963204 5.980492173398931 2.319133403563357 -2.673277258253499 0.20383551596484895 0.848073749764462
Ni 8.60558206261387 6.579781642886564 1.4404630963381966 1.9958561099440144 0.8265489883188087 1.140405608099507
Ni 8.726366232428715 1.984578379152443 11.026922555566822 -1.8602108778021575 0.11978255407798727 1.2754607720658484
Ni 8.700622023036864 7.9634960676422155 7.798459664365934 0.9820963587012312 0.2322958281880709 0.7395294876044554
Ni 0.7895185520618558 4.381349541511254 1.7156996319844242 3.138428643787853 -0.8257879417830681 0.9682067452033326
Ni 2.0564430266143168 0.19811900139678215 6.026402680147732 0.4055493576010048 -0.6969216802362578 0.30897512331868077
Ni 6.498543746082451 7.505173638851736 4.456636621959877 0.4337533308390466 -0.22687594272408024 -0.9994451343923239
Ni 7.5327777660894935 5.157920487261657 11.826352996545104 -0.8680527639895502 -0.4768645602062239 0.029681329114516625
Ni 1.0098617302144004 0.675186087368925 8.781138971487836 1.6551751708816203 -0.17731792929029463 -0.041061288816684124
P 9.11792497656243 4.395013492418803 10.395349700181582 0.008916328653023354 -1.222134292728566 0.5633610985375717
P 6.466777822476625 1.9207242689476902 9.99334411056289 0.38834327813536346 -0.22334247564952503 0.6855535476086322
P 3.315073372475726 4.421798150902672 9.636320910272865 0.4374163815129305 0.08165592240959485 0.9004381222987912
P 3.3671786947033677 8.155702924242679 1.0952181480703655 -1.0635008272216524 -1.2593983192863472 1.89871674718684
P 4.690777259974256 5.042476675618227 3.296961271511953 0.39346003053663847 1.1449078668452346 -1.3889826899461049
P 6.025249899383834 1.6480621542406475 1.6191026809290412 0.7798353863123537 1.4472762834806752 -0.06706105531455547
P 6.050331167761303 1.7441241487274801 5.745075373931866 -0.34854491519150294 0.45147157405441607 -1.2607165238771385
P 8.2094471839781 3.760671016795698 7.723249927035655 -0.5564638571971061 0.8183492261168358 -0.994242764255778
Ni 2.9913187620907924 2.379304508132652 5.593846558782917 -0.3879714966182415 0.2419786026934736 0.11818358502198356
Ni 2.383447889472542 5.076332704922174 11.532290777593234 -0.030416150398012133 0.5087236136983496 -0.639707435808795
Ni 2.529175214953525 6.43195500419337 4.499597961946086 -0.1988213505797092 -1.0449953122182971 0.6255324298599937
Ni 4.007404771829117 4.450148086781609 5.2023918595584036 -1.0236099045639855 1.2716120877437198 1.3349931231035266
Ni 8.11886366037401 0.5373624919816342 1.2641023714842912 -0.27314885764869085 1.2657427734471363 -0.01845872092581982
Ni 3.6593239092219836 2.9930037371690146 11.330687652865308 -0.2751682020715648 -0.01698830702788042 -0.14044239642018397
Ni 6.103670296876823 4.89487101726316 6.952913389074674 1.1453760647309046 -1.9201450922639447 1.5393896537781682
Ni 0.30797753499404046 4.529093312577651 12.70073812671341 1.3413098093501736 -0.9173734646015491 0.46495083948777344
Ni 8.679030402498991 8.922458659974588 10.277137189051695 -0.12178364366841608 -0.6813595641319428 -0.18693796887856193
Ni 4.334400427173254 1.538999149860648 9.567875012792104 -0.9713823147178366 -0.42981182969279524 0.5117336041692672
Ni 4.571051954279606 5.8742466683300565 1.0014948621620487 -1.0031326105462401 -0.5194242879453055 0.09870619302366226
Ni 7.581255327766209 9.148217697914072 12.484675521860675 -0.16997820109577177 0.12474709717211419 -0.08978317950241957
Ni 0.8984922435551954 2.7020647069960115 7.178422903382357 0.6778479514342585 0.9921028350946398 0.21915903369579678
Ni 3.252204466278459 -0.06724799989782723 12.752621547851515 0.836224820845676 0.5779474809921789 -0.8603319983065247
Ni 7.985465196257722 5.598407961262431 8.917382557457517 -1.1177140800392622 0.13507727545352866 -0.5214361761690116
Ni 6.946249911128723 7.317054918506631 10.991156887840889 -0.18737865596040632 -0.24066785430185006 -1.946125061267474
Ni 7.2560827602116245 1.3516722757271664 3.851948786962071 -1.0040715774207416 0.5708841463874942 -0.48354531466050926
Ni 3.8553426766551455 1.3657597722827932 1.5815314196903256 -0.47544042616518767 -1.0973280601837423 0.03745968750835484
Ni 7.98541915868728 3.324639979613828 5.463504989344059 -0.7917619625466106 0.07560251712666334 0.38529574955829127
Ni 1.4155171784178309 2.8812889687314853 10.222787995640651 1.4797847976313419 0.5602091831721514 -1.3395321486244607
Ni 8.38407689618334 5.490072350495435 3.825967023706733 1.303280365381278 0.5437523231677087 -0.3169332018234928
Ni 6.53680096712077 6.8964648824514185 13.346285226230986 1.0617396215561714 -0.9345291504452292 2.257388723510015
Ni 7.30585858137484 2.6540935585941714 13.162389992598342 0.5633731827224298 -1.9684417224868034 0.316411524992068
Ni 4.591050674880143 7.537004015056182 3.018747025809457 -0.8965164186468818 -0.857452876986517 -0.06490775641697855
P 8.680687755034947 7.143097354829862 12.950397108972789 0.9254534133962061 0.26172621763404597 -2.366327135784647
P 2.8291099863911344 1.836291364754816 3.411428165910578 -0.5826939945382287 1.1112017328420412 1.1212519179891913
P 6.255106281092766 4.4431411685601505 0.2089838680213832 -1.7417424145499034 2.1197148909739045 -1.1176042939342752
P 0.1992874349346312 1.8231338271221422 13.18617484299213 -0.4725589908523345 -0.07918817759539265 0.6475590706427299
P 3.7078659234973195 8.051188431822471 5.0536822202641085 0.27644629745304006 0.20273816913561213 0.9068098301530899
P 8.812115811136266 3.212879173605856 3.3212994935024676 0.9401608948097099 -0.7090320903465467 -0.5277631468283039
P 7.21983277724463 8.188150203891064 2.4132102580126777 -0.09050591660105703 -1.2318764597169944 1.2294639936207599
P 2.1752475809001024 1.023378360896531 11.116066944718856 0.33314092193160694 0.01937249098934083 -0.2546294586882647
Ni 1.0111231596445447 5.193562774298802 8.403066473239761 1.5140830566925794 -0.4259065811011181 0.09325005500509746
Ni 4.451050423162296 0.6655743634117885 4.266568670882206 0.47813648494011207 -1.9773446814033884 0.5984060059568468
Ni 5.504021734339732 8.80672020788032 1.2203114344786958 0.7451645744030457 -0.07958464170286295 -1.4840713408218376
Ni 2.516791108504298 7.611879519625042 11.022272760952056 -0.34946665567482393 0.008293093246727654 -1.16919193620358
Ni -0.0211947766806518 6.432056286848345 10.757238150916047 2.4323011286826106 2.5015913304380013 0.9400989312235227
Ni 4.859827218641778 9.042193173183325 6.847665057781601 0.5652863405847426 0.018492659487548798 -1.7170310278461527
Ni 1.243990398460464 1.571308316797703 1.9669220501360571 -1.0476798010289958 1.4990660144584569 -0.09703163353471676
Ni 5.730867258941678 5.015498659338498 9.614543297950402 -1.0533989629009601 -0.8766955272662128 -0.01861041601233569
Ni 8.577462314587148 5.56912806646054 6.405526676504732 0.42418239932115975 -0.9152098812913271 -0.1957008026728565
Ni -0.11505157154325406 9.286882860089065 3.6520039355215106 -0.005965473554815532 -1.782705744336143 -1.133959338253531
Ni 3.9065917000725436 6.388596820349941 8.646026988999653 -0.17060940692186746 -0.34559663119645645 0.07149003762018655
Ni 6.611013530675248 9.173041155897058 8.345401654005395 0.8348374535798461 -1.2932582052585857 1.4418710533047039
Ni -0.0016490657732763096 7.612873931146615 5.474932435079476 0.27375923753918013 0.22105856471135474 -0.6110959427196895
Ni 4.518458633805266 3.139384796150292 13.656707356215563 1.6980619429428174 0.6288812917275686 -0.45326620406099355
Ni 5.9343072827302885 3.5512369013353804 11.376170010208988 -0.10853037820293567 -1.9040528146877724 0.2502737528227303
Ni 1.079369254069581 8.491915301189549 1.451392415561418 -0.7765271478747271 -1.1383356129443556 -1.0541420117145714
Ni 3.1920149466809864 3.9117202854199187 2.197120951369087 0.0563171865344901 -1.0584046436456676 0.735569731625759
Ni 1.7472823260598853 6.710362607691727 13.358480578641396 0.23330061530350144 -0.6775389048342717 -0.6805126427506151
Ni 7.364280258267291 0.023553741790162633 5.734375321809452 0.3359110284775763 0.1904038159399753 1.0032935616041365
Ni 3.216322783875009 8.703117259354887 8.430705589031055 -1.666561558341691 -0.04023905002570489 0.45779777338275995
Ni 5.0287758946543235 5.664204856939889 11.947975050142016 -1.0111788778894844 0.14178194116721388 -0.2177544400387863
Ni 6.360891410457208 4.906582975183916 4.662578327326372 -1.0023772204374544 1.2592895616226247 0.6631929205252449
Ni 6.852342474938632 7.140970419075385 6.782508084333305 1.3981954667936245 0.4151516565774592 -0.06096856926357241
Ni 0.7792337588248395 8.906962413763397 12.647911856132627 0.3955907037263961 0.6651497871412997 -1.2613883531331824
P 6.117407907897081 6.828071467800964 8.704351986994173 -0.7281140466786622 1.794219144292381 0.7386905366429278
P 0.7461281419191166 7.121947694968244 3.4443229307436707 -1.1045438612058913 0.38391146761625494 -0.022902358519470235
P 1.9963179596154652 4.734485329353054 6.3657318006136085 0.5881421621369936 0.4739322170507773 0.44221097468809645
P 3.5436130796699823 1.4259584993943542 7.50821119774958 -0.4643386598250713 1.0962026883300475 0.03191381798946117
P 1.214296165524584 7.688421584243947 9.055405035149121 1.012727710433843 -1.0693464873691518 0.8558798760724422
P -0.05410703579051316 0.6737911489844953 6.78337082840341 0.5839859738767749 0.05615623547659361 -0.40744091819676276
P 2.7611401173887575 4.519001877136496 0.1228300794453413 -0.6320188089152857 0.949130702408488 0.2402767895110184
P 5.3517662813698985 8.06498128792726 12.19417016560125 -1.9135597257369432 1.4596831417854603 -0.8956540706465866
