# total energy = -340892.6247517322 ev
CRYSTAL
PRIMVEC
9.08503850990392 0.00000000000000 0.00000000000000
0.00000000000000 9.08503850990392 0.00000000000000
0.00000000000000 0.00000000000000 13.29687218901204
PRIMCOORD
 96 1
Ni 6.4649861976376775 2.096717904492929 11.626240274055752 0.26237773517511587 -1.1663105008907269 -1.9585247204834075
Ni 4.6792128266524475 0.14427677360123084 5.976824357320302 -0.8294713041719263 0.12165997360635823 0.2854032495360117
Ni 2.5313461544493467 1.7249853772465509 4.883116526050375 0.7807252451164748 -0.29065292797072523 -0.3643543714199338
Ni 3.2482828960267036 4.216112065505324 4.7569962022304555 0.15605310637424738 -0.27082560883215295 0.8591130382977592
Ni 4.831378139330543 4.280879306181312 2.6683230994795077 1.2504940748181819 2.0466965896346494 -0.12785993176948304
Ni 7.15972818974506 5.95659651872231 2.6982283212684197 0.3798419255325716 0.5801586297108847 -0.2565837542011581
Ni 5.303854660384753 4.592741428594647 11.886765568458454 -0.9611387826129577 -0.3457084741839724 0.22230554974457845
Ni 5.733876795735655 7.951380289341682 12.292612415909394 0.30572293492997027 -0.8194578857999821 0.12988930349468597
Ni 2.178546847790535 6.766146144498156 0.300933729397604 -0.6999352702516011 -0.8223328933549321 0.338843628743339
Ni 3.143705015900275 1.39071954947384 0.3149646631190231 -1.7247908742972295 0.9515331412023934 0.545042759844358
Ni 0.5387664142112344 0.16320454316559538 4.8067658610705735 -0.5756987941673182 -0.18956049410307352 -0.23163402623435594
Ni 8.44409827655189 2.502846388142631 1.2676708772281309 -0.10107495036615496 -0.4252769179369192 1.4878166667968828
Ni 6.955205799213729 0.39806642033424783 4.663651972419059 -0.6474670251495559 1.0920166752731582 0.059063381821059566
Ni 0.7346298543865148 7.495229582776845 2.4768086673153924 -0.3650264577862939 0.490617133905626 -0.20612636888155467
Ni 7.723000587263829 3.930814596162067 3.8426633744542467 -0.5715582896363833 -1.2229961265082292 0.060769822989205025
Ni 7.7260168201021555 3.7866622875906106 12.475830390760379 0.5082615864602666 0.7530874287945483 1.234232618653997
Ni 7.904256193762167 8.976499712671162 6.851266597305779 -0.10032804489780141 0.28919845491238577 0.2686836227884857
Ni 6.915431499917969 0.6681855155721073 0.2823657273645579 -0.2862072334945458 -0.7116391889520904 0.9607505460356035
Ni 1.695240960642092 6.538329714817823 9.414372229936513 0.757540065249263 -0.3295586038969873 -0.5641964499546736
Ni 0.3253534048377765 4.69214083667937 1.6487855239086648 -1.9135435277870274 0.28957435019456584 -1.2505838063185106
Ni 6.346299252457271 1.986461875197965 6.861704398233348 -0.3415116624938054 0.06992937800128601 0.30346550635436126
Ni 3.489826819136889 4.4481166980123685 0.5120137008406939 0.3514137520988658 -0.8309466031658722 0.88570390141241
Ni 5.9282148579183 5.670463225821445 4.856456480074265 0.0879489545071582 -0.6599011371478506 0.4504274490606178
Ni 5.428828452324563 2.8122828052311677 9.243799720409825 -0.44969468465965134 -0.7073588164091817 -0.8472116588744828
P 0.2967782327101026 5.509349150053738 12.668368706782564 -0.04372546591240856 -0.7700430828122802 0.24834979632714002
P 4.198986767613019 6.32241468579474 12.707821395709422 0.012412257621423785 0.5041863879496284 -0.12188880178771268
P 2.5449646274151636 8.563330324052476 1.5218802527476862 0.35175030950267805 -0.8363338356197145 -0.6876273994185255
P 6.264134162728888 7.682063403018352 5.859134040881957 0.4050184247981992 -0.09876455706542345 -0.2543736339237167
P 4.862766947934209 0.8236586908298241 12.539110410606146 0.48515585368073866 0.9165602246716344 0.1312980109167545
P 3.901097434673617 6.0064552109413905 8.16317616183194 -0.35481635002251155 0.8056232939097352 0.011891352120947263
P 4.709656791234471 1.1628849497161677 4.06361696592352 0.3462044399837844 -0.5815897057304564 -0.7355046827157784
P 0.09221132548929031 5.693630074429072 3.7316878100966453 -0.09656934918631756 0.3066606162528912 -2.370846363811239
Ni 1.54592835010627 1.0580799436229982 2.4817681899251585 -1.0155296986590123 1.3841312753910744 0.47869467143642724
Ni 1.7125388742691199 6.69070398338532 4.748007464970696 0.4826181748605495 0.2714367600535906 -0.03648318252769846
Ni 5.967562160396587 5.6615871430411895 9.027858344774604 0.23702845777704984 -0.12792189535567 1.9028230560457293
Ni 8.675630487048112 2.5638160826547027 10.160964354739367 -0.6609018104982232 -2.173910403179701 0.7398819858478677
Ni 2.0167695641999424 5.271457412488754 7.083124052186375 1.051363677638486 0.4426421486882441 0.35861386939173073
Ni 0.5839099713607628 9.1715282377927 9.195531818461804 -0.4609759140004255 -0.3801142053573518 0.08456409719532533
Ni 1.4504718488041777 0.9806118188868281 11.418170175923919 -0.3545019041058863 1.0785934598887166 -0.18790058990214736
Ni 4.230230215597971 6.680901226660759 1.7011889354591165 -0.05528797393902736 1.0743886777787497 0.3196799113306946
Ni 5.434324900719705 7.746976004313056 7.911892168764014 -0.24965514540212486 0.8866030161879117 0.6418393945501333
Ni 5.380323430867262 3.0693893995824766 4.7527543976755915 0.2695295157285487 0.263939680345597 0.6406762274799676
Ni 0.6303554145516532 7.551420546948676 7.026187206339764 0.49394234162411704 -0.7022873154235453 0.044755706949135825
Ni 5.081262127939474 4.478133665776917 7.128187660995611 0.23580332712069715 -0.41490354512239513 -0.9963045318808131
Ni 8.258427341260097 7.172029332103778 9.068759188865402 0.29996906316532856 0.7081939107159675 1.2139144759219351
Ni 4.847576763278542 0.3432972647142172 10.387928607792487 -0.8149114040798805 -0.37857128635026416 -0.5520628999159332
Ni 8.15220506913446 7.340756670276657 4.634292761454193 -0.5860053182996489 0.2931193872333468 0.3024900298149693
Ni 7.212966516349254 6.196359774253242 7.180284906742895 0.5575750879834139 -0.7017743803428689 -1.5524685984493134
Ni 2.198970014719925 5.582138479875034 2.443021408502936 1.396633778733459 -0.56993206688687 1.1751810639074793
Ni 2.6907704130244974 5.077718962858308 11.736750684433467 -1.4726289033128508 0.22320235052723494 -1.068253254304973
Ni 1.0081485710945601 3.729771775441215 3.8856383328733277 1.1027168352994814 -0.9626289940052388 -0.18893931557930685
Ni 3.7259833143159677 2.435280955556388 2.5440906466951425 -0.6380169354802495 -1.4242780228132892 0.30990714821464693
Ni 1.1442151952500215 3.2479104094412476 8.372681696073577 -0.4067924859794865 1.1455290453690012 0.36198844229091853
Ni 3.3948881650389673 2.817915529206355 7.269227435318842 0.73834703726058 -0.24151914655855178 0.11502652745024061
Ni 3.787661641844273 6.679175069313524 5.945311083686861 0.8061130890619601 0.6590341611618651 0.6162422628073194
Ni 0.8342327673374386 7.2636701171646125 11.578730064332778 -0.028459798002589694 0.23899920835017546 -0.9458574309738549
P 0.12757302150319844 5.456483310035001 8.196550959888794 -0.010429165753123974 -0.03316491678774288 0.009927800636673223
P 8.583235643777694 1.68573801019363 8.08226480743997 -0.7264747113030262 -0.18893263071108754 0.011994453357714827
P 1.9666746609754509 3.317247424568074 10.55589461972485 -0.13970423270257876 -0.9168744134779436 0.07661527466189386
P 3.8557721767506954 5.986876952608278 3.803450530548271 0.37749733655979506 1.1170029129048504 -0.006500777232995256
P 6.751610082626703 4.00052409787435 10.34587123827904 1.5032743961128496 0.27256984521676925 0.6333154162395221
P 6.552002698015658 7.8285596515665805 10.163172019136093 -1.2192700838068937 -0.6613512393308159 0.28902773366247647
P 2.2528352089923245 8.533022635050498 5.861766885088424 0.8552952072135658 0.24955410104788636 0.0678382998002122
P 6.7718242936666915 3.9894857758907154 1.6976648489591564 0.2718010853715448 -0.09148293580234568 -0.8564038668967122
Ni 5.27075786451119 2.7319983185074035 0.26667677408592627 0.23207419909556803 0.7027675974940736 1.3959010143324926
Ni 1.4496087701305604 1.2095911335168774 7.12062164079152 -0.19484513954078056 -0.5601220227749838 -0.8134764714055668
Ni 6.859722042795628 0.6689114101618129 9.05591476119424 0.3068909870961424 0.012161575063198411 0.11713586048375955
Ni 2.6747807449659002 1.53160124412422 9.361569985188465 0.8992926958404384 0.23174535500123955 -0.1969470163751318
Ni 6.291798105477995 1.9396557559718892 2.65769905525921 0.4125792678645927 0.4721933799827997 -0.20507607324016938
Ni 4.232437879994698 6.814714761226145 10.360152010563874 -0.31746567728819514 0.6498897756584356 0.14011072411237804
Ni 8.298510531870626 7.134153805889974 0.30729870748956606 -0.3564279174840055 0.44194537973153564 0.34378348924711766
Ni 7.554854691565807 3.804532558653827 8.213331934815518 0.7706768597415372 -0.013650243793582944 -0.20915795661902686
Ni 3.0987249894468007 8.498127001520343 12.273225851892214 0.907831843659701 -0.7296849907102079 -1.0353683306514943
Ni 0.11451146140783175 4.698200557472033 10.528875714721288 0.8070787954093391 1.8945698148980017 -0.1719327537189813
Ni 8.642379245517166 2.4946516832626 5.939672908688472 -0.026640742515979924 0.12462676954416602 -0.12220967546224115
Ni 4.0803634177033 2.7752158474589645 11.290427264197598 -1.5186400799356425 -1.5691635426064912 0.813166910584948
Ni 1.0762409359236436 3.259048666850248 12.767976162252824 0.8261823490080095 0.677345300766227 -0.08249615892270308
Ni 2.9812190992934497 8.433087209684265 7.993880100238339 0.6734871033624014 -0.23061561227217056 -0.6199960734227967
Ni 5.452322362324297 7.664020516220412 3.7204250876578713 0.3607769384813206 0.7132312160295587 -0.3827220752938441
Ni 3.2095261210619443 8.564992886129023 3.639141246680445 -0.7152806423594197 -0.09128058998355248 1.126984963818227
Ni 3.724702323863546 4.379024978929623 9.604331303480384 -0.6872419910546487 0.5602402935204029 -0.9612606529028026
Ni 7.13558924199978 5.864864883274778 11.487833343938988 1.3047674914497658 2.328242413097784 -0.9332063178687476
Ni 0.8488287904641104 8.896069865328682 0.08695653912276038 -0.49914111221623714 0.6943593188257203 1.0836978709948175
Ni 4.682283569722792 0.15750186439265132 1.7828180079059897 0.6801575734040415 -0.018912520633786782 -0.2725567325906467
Ni 6.123043512189105 5.8917838528529725 0.5172812062613613 0.26739832831815885 -1.1022733200041595 -0.8455671812925244
Ni 8.076817418253643 8.984948798633942 11.326794673992238 0.3734285658070601 -0.09309244638131065 0.006538572449466158
Ni -0.02782656494129414 5.29412458396955 5.8081006531628905 -0.4386911344602961 -1.4795425997135487 0.9008165886841325
Ni 8.083176945322403 0.17221599302202872 2.4935224129559614 0.20608343145876123 -0.32187074833442636 -0.2747372851817333
P 8.833573884320108 1.8969651592631682 3.7406365731862583 -0.9190721924602108 -0.7965177320640411 -0.8078293004221184
P 1.9778492585391296 3.2082451306095225 1.6248646170914565 -0.7748970684704719 0.22732125779161494 -0.4148012152165759
P 4.623221733331348 1.0778853279228515 8.158721767372207 0.42376125262334113 -0.6679630882203786 -0.6434054534856726
P 8.651128137756045 1.6576289005497096 12.617827728159394 -0.24676573966947177 -0.932173248618543 -1.2306323028972483
P 6.461770093948619 7.77312274560433 1.5674090155368081 0.14716120320125625 0.7673403391691366 0.2847658730623289
P 1.639204442127644 3.375328076783195 6.1220132688039675 0.16617553952022993 -0.38971573300285783 -0.7429827362603786
P 7.031183977608076 4.09999618626843 5.982010097392943 -0.8853642586848042 -0.14274790462490897 0.46159760674482436
P 2.5052720934674295 8.476331993751835 10.086953995720869 -0.40365625434334995 0.16380858194995015 1.7823046522429822
