# total energy = -340897.54463048046 ev
CRYSTAL
PRIMVEC
9.02324217099974 0.00000000000000 0.00000000000000
0.00000000000000 9.02324217099974 0.00000000000000
0.00000000000000 0.00000000000000 13.20642700055993
PRIMCOORD
 96 1
Ni 6.5873094588351755 1.9473058310816962 11.271883389876862 -0.8536026500024911 -0.2989264808334271 1.148867365713615
Ni 4.597720716282979 0.3598748584014383 6.049110978044051 -0.7076861178416135 -0.08989013739392905 -0.796335440849906
Ni 2.6338843060689823 1.4668994099120534 4.823000387115119 0.9647077309111385 0.8541829479859934 -0.05058619758798385
Ni 3.261748546114197 4.308092698276119 4.460021533505433 0.13669707044513876 -0.6516728357007874 0.9784765025604568
Ni 4.88552603942918 4.584664085276189 2.493069397868738 0.17417244168277746 -0.8532601790614079 0.1613071556843351
Ni 7.129759691202251 5.961673959535419 2.439795275458797 -0.12094109316246268 0.8885935642553793 0.7101075827989125
Ni 5.028824143796023 4.384600766214314 11.561394105739225 0.20839665297297016 0.7773642990640419 -0.389056245041988
Ni 5.815659859361358 7.886187081617012 12.370618289068242 -0.7813968172622027 0.04752787037763428 -0.14822795390287377
Ni 1.726525148653139 6.646303414275666 0.5542219537295191 0.25336807547733786 -0.655947037596109 -0.9399786035955746
Ni 2.6824383706491717 1.583109742141798 0.3143841844410177 0.06051631221750224 -0.5660916100948573 0.19322354477695755
Ni 0.5493854960794575 0.13318756183532449 4.871151112783074 -0.5767267212112003 -0.29376139169271986 -0.2365731154071861
Ni 8.51365429901931 2.3221583686871217 1.3154948250362264 1.2818628189374506 0.05959508595481349 0.7625508882002932
Ni 6.778746558655524 0.7010129550298302 4.877436703079777 0.13344848160085404 0.16131024100812866 -0.6918110984825698
Ni 1.0845305118168866 7.505911575639035 2.7961835531960864 -1.0757873578984891 0.33447815268579173 -0.3273700808861007
Ni 7.5700668254374275 3.9610588154004325 3.792489317487829 0.2978766994126741 -0.6260407369549799 -0.3723165636898039
Ni 7.402839083593041 3.9892474230474333 12.561913723991003 0.9654790618595244 -0.3918104107483575 0.12444062167528891
Ni 8.007495545511468 8.777620217106813 6.740084674153249 0.11633496184901901 0.4568066131140842 1.3499723701211783
Ni 6.884507976783083 0.8145487983650257 0.6550124679029385 -0.6200595796708804 -1.3366944220653496 -1.6976634219528184
Ni 1.7029474176090889 6.521918024898615 9.327289945305631 0.7411783360617881 -0.1876249676432575 -0.02477335028993798
Ni -0.1088951900340264 4.733827296867921 1.4793975022461958 0.7717695785850838 -0.16587446334004335 -0.6065468898964264
Ni 6.314446624249612 2.0527243660176464 6.874459694620567 0.03238304431639584 -0.23294657439819236 0.6294757307784579
Ni 3.1998400835450314 4.309076231641524 0.4211769591159688 0.7021057955403586 -0.05561373270956228 -0.16653292285964869
Ni 5.953192112164042 5.599832936727361 4.683183449467294 0.16046203407522042 -0.14327060989759843 0.5593010695355852
Ni 5.3251113143136015 2.8903699566342818 9.208854481627183 -0.4845624430711139 0.472707857725373 0.32889834460516904
P 0.2087012685178531 5.390295213686819 12.532568336734416 0.2297596920297785 0.8233659626051368 -0.5308312442306664
P 3.8705917922670046 6.203325400442694 12.626069876113581 0.4518626388452476 -0.37350261357810516 0.23342557091713992
P 2.45443909471306 8.549539731993741 1.361054075634969 0.21759348898088976 0.8187765434622415 0.5793425615674925
P 6.359165811028913 7.697926162939988 5.725091775918825 -0.5134513581913223 -0.4469580024547786 0.8165797929212388
P 4.817319354024674 0.9626084674742895 12.486596723981554 0.41245739757474775 0.10854400504969049 0.234031579932255
P 4.151819172079447 6.175912791597755 8.08815701168907 -0.5907600593758148 -0.0795429898316501 0.5201310842043428
P 4.791810649217353 0.993928140055192 3.831937126358238 -0.3625497141110272 -0.24849686342796556 0.1852073593407004
P 0.20899723085166286 5.585883004774012 3.532006370767722 -0.14680407697215364 0.3339305077124378 0.3655558479272027
Ni 1.4410658683968924 1.1239530556100192 2.809007384562257 -0.9848777781011102 0.11713740314565632 -1.5339355726421324
Ni 1.9591804174016236 6.484769338060364 4.772499106936268 0.07598741126990785 0.13025697124674987 0.29073597460283473
Ni 6.075141226232294 5.626225919239357 9.144063995600126 -0.5158409414694213 0.19762064540338867 0.3408457467750323
Ni 8.642921262255845 2.3963384402191297 9.987240833491926 0.7872633033453087 -0.32057902610619626 1.1196136110548203
Ni 2.4775927333885415 5.244678136155675 6.850213341352879 -0.3105373255994781 -0.7521214653368531 0.6813009429798653
Ni 0.5338113805869085 8.853812471579051 9.270092517324333 0.2245187553458133 1.1388860861311871 -0.5444334083951333
Ni 1.3522140055607799 1.069371465451022 11.406562493595686 0.295911091045871 -0.22121617333514157 -0.15600888339987326
Ni 4.148805409290043 7.006836067010481 1.608001257204223 0.11586573552208433 -0.18505463581292 -0.38016279920710017
Ni 5.579801339743897 8.04917389977571 7.783207528962427 0.7680324801401547 -0.8731384060425736 1.1567861063400593
Ni 5.243450975259391 2.919668423033069 4.716622681566853 -0.01104443073961969 0.44392564338635804 0.3154460757550051
Ni 0.9176997926154156 7.347941679968089 7.144531640491272 -0.44942009084202605 -0.11495222256887944 -0.5592406486112949
Ni 5.090344606964158 4.388995085012038 7.180915156417725 0.7689650192567532 0.8685469300171493 -0.38198339735560666
Ni 8.089823604465126 7.106985028685916 9.085598802134063 0.444507484031757 -0.4063466566913196 -0.7294777597954081
Ni 4.647312453679879 0.37217443941412287 10.286657264295027 -0.6689516773858931 -0.9473982930984135 0.4055115623845339
Ni 8.206187331806907 7.114420179998697 4.855447964931578 0.7185796248256657 -0.43638845446904845 -0.8133481733578186
Ni 7.255020335042092 5.902932654867694 6.930468761645683 -0.30297468276087175 0.7161329630573859 0.31895511734952814
Ni 2.2719350043583106 5.307389667252555 2.497057670781662 0.26844245331195704 -0.02569586210420736 0.0392049523342357
Ni 2.26149511349801 5.192993006641585 11.51667762593249 -0.5066461623440307 -0.19338475294517016 -0.3320561735078604
Ni 1.0264118108391878 3.466061812103645 3.5722455179513966 -0.6069603232847611 -0.30816496871255955 1.1947759553202715
Ni 3.6525541753713178 2.37810246837067 2.551904544252062 0.05469687732224773 1.083085177111483 0.45689917282789055
Ni 1.3760985268289012 3.3223125456425797 8.157768615854984 -1.0949806429974884 1.0967043105568146 0.2755091303507513
Ni 3.723540019276233 2.6611344965600012 6.86113507332981 -0.7722732576943797 -0.36045889302026957 0.015947267357875765
Ni 4.14335537119184 6.847260034284102 5.99793656402062 0.25323489233358326 0.6150718966483021 -0.7256925817213631
Ni 0.8218874009896434 7.500632979136637 11.577690982906716 0.4016034855793793 -0.6636914574282183 -0.3110803425871416
P 0.25328871596564095 5.386640800723621 7.9984858384898505 0.2502279871864594 0.5736457682930315 0.06820031112532125
P 8.659794724579754 1.5102019477154967 8.015693160763483 -0.5190244814037255 -0.06385463256211583 -0.5202742946504265
P 1.824607787937037 3.1114303595612567 10.519697825471978 -0.4559488930994793 0.7926916734497315 -1.0374447535645488
P 4.107406775524217 6.21052594746648 3.697548571028094 -1.4198883783860257 0.05571734816696211 0.22639746042576492
P 6.895272704351224 3.9359110402684894 10.40469660765475 0.22315015713306086 0.723419212306154 -0.7478112679972734
P 6.272506595970721 7.746462181036408 10.009969477474648 -0.4531492188671551 0.1056294025060568 0.6720678544173716
P 2.347910701025323 8.435116001657116 5.825592644027754 0.7802655318712368 -0.1742770855814418 0.03673077976213029
P 6.800826431546756 3.7515842550530825 1.468488402807904 -0.35092704227043436 1.1748792163963444 0.707707200887536
Ni 5.103292959068333 2.748317059647492 0.476243999688349 0.22046669676362676 0.37694249249758954 -0.2446695192620754
Ni 1.649656151039567 1.1587737460420857 7.050594278529087 -1.2700108046948708 -0.4832552942239161 -0.4598579983458983
Ni 6.732971652575743 0.8884708051791386 9.15901370275427 1.174912383627125 -0.9665751231371806 -0.9390393796107569
Ni 2.714082879937914 1.6132293235520696 9.08190107760982 0.7322933748673324 -0.6284807138550402 1.3896938570805162
Ni 6.355168514874105 1.9421896529332168 2.6479542471393946 0.4346059086473289 0.39169779642989316 0.16491672741246438
Ni 4.055198297980829 6.79606215983177 10.495557044134339 0.32993038541410924 0.40099336279920617 -0.5154683886213509
Ni 8.15136211411703 7.119653660291674 0.2513622538233123 0.4748439302317693 -0.3513787850958723 -0.04440629402951707
Ni 7.672679132147316 3.735387535870507 8.199420802717762 0.08316258886210838 0.06267295354918884 -0.35138418441251096
Ni 3.242384669030182 8.375273861479489 12.425820678268888 0.01575109218666965 -0.22932311871299216 -0.1451004640174856
Ni 0.09121414756145985 4.88674417708358 10.198610274635008 0.09374293548111597 -0.9938360157356626 0.020108340714100854
Ni 8.540534536593068 2.3558872468511707 5.8090313858730465 0.7346970992128186 0.031038100252727192 0.3187147192039479
Ni 3.658130538855904 2.5065122236281816 11.399179677085835 0.27033452812834735 -0.0033383203446136055 -0.15486731359626232
Ni 1.0069937943038658 3.2392806738219333 12.636806631631883 -0.5266398318571381 0.3265851230909601 -0.06459279627972102
Ni 3.0953058263137563 8.31156977377532 8.02262661982749 0.3472884170765825 -0.3910953869592039 0.23075445184288004
Ni 5.592361692447042 7.857276614619256 3.6878152000073454 -0.030909287984346768 0.277052049357839 -0.81834562657241
Ni 3.1384639922470488 8.577827595301471 3.5028459599697666 0.7377844798888906 -1.2004128418910747 0.44183379385433585
Ni 3.540043372314195 4.519958417722847 9.411916223967259 -0.5779909326356046 -0.18608976194565371 -0.29634560748012834
Ni 7.406367171169858 6.1651661105133835 11.278882718606624 -0.6228895929205078 -0.28904084628859905 0.479530022853529
Ni 0.5445436244842653 9.034160007123418 0.5460080966421104 -0.47573918835252904 0.3868252988289403 -0.13995003016479768
Ni 4.596692066708152 0.4177923410851141 1.5317999794901 0.11563099380345891 -0.8182661794847262 -0.3080451553052437
Ni 5.753219025521011 5.513462465409471 0.4229518307946388 0.1927103525859649 0.6855021255454066 -0.556649490845351
Ni 7.879915928507324 8.734994422444704 11.232726129395132 0.0599252156007226 0.38071172973203465 -0.04370438286648602
Ni 0.09880359631046506 4.833795793705667 5.8309280869540245 0.6278654488685445 -0.4818031351584219 -0.6557518908661674
Ni 8.009850611643307 8.727469038713078 2.7495514391372837 -0.3840122548601773 0.18093418588664323 -0.38504480988974976
P 8.36390457670509 1.7347994614611735 3.6722320612729122 0.6188275070359923 -0.4389826975587859 -0.518589450748836
P 1.8081854877073502 3.1212025305221087 1.6088990697717251 -0.6694597273705633 0.21246670927728567 -0.32393482995230666
P 4.687763647047838 1.1114017261487588 8.158929907085513 0.016602384443371407 -0.2281149573375039 -0.4509864068878814
P 8.459081732102199 1.4931480205538987 12.402881792750255 0.023191864735431025 0.33489261451539104 0.06071428716092124
P 6.444561772223284 7.735516988630579 1.294505862088823 -1.0866489832033417 0.19464819303862607 1.5743376306082628
P 1.7817834819534695 3.1582519616996327 5.885734355835945 -0.0646313628271403 0.8246376302287087 -0.08103602943740883
P 6.911316028421764 3.950691110475207 5.928259090188949 -0.2943941401807123 0.21051652752945035 0.029044723971782236
P 2.428975506115161 8.44964342109107 10.230305314078302 0.21284697543483988 0.18599206002552485 0.33614422753430495
