# total energy = -340875.6570824383 ev
CRYSTAL
PRIMVEC
9.13488543515541 0.00000000000000 0.00000000000000

0.00000000000000 9.13488543515541 0.00000000000000

0.00000000000000 0.00000000000000 13.36982820271874

PRIMCOORD
 96 1
Ni -0.15024146305453875 8.78282708508645 6.051064218028045 0.5437888328325989 1.8502036300778006 0.5222594434012554
Ni 2.9584149074834234 0.30806031369366677 1.061946890905553 -0.840315960195914 0.5419538365063893 2.5247592839140327
Ni 8.043084051210572 0.8484134596550102 2.5606829030298264 -0.22768224067545947 0.9640436149645785 0.6969612752249416
Ni 2.2228556512009665 0.21325481724050058 12.298477320562657 -1.942505462237016 -1.2584400691381359 -0.6825273591877987
Ni 6.725175839512121 4.141830198858899 8.394273813658765 0.937763855332443 1.3060365879701765 0.7036952515146656
Ni 3.1449492709280444 3.39866158289234 1.4328579578219438 0.15731089004074844 1.3225322716323547 0.3403204703991817
Ni 6.318682566303396 2.983800754496773 2.16879996581 0.8159668419275884 -0.8593639779663006 -0.300911629584256
Ni 1.477869193004952 1.9191481104838601 6.394722267319525 -1.5071984137576042 -1.6732163446540473 0.5602148395991062
Ni 3.1919939316400816 1.4923023122136934 10.812782271085469 1.790915790950761 1.0523985466609038 -2.2518420826601737
Ni 4.572293411816825 1.118740301503393 12.803322252804824 0.6632726247232448 1.852112159954423 0.7758324358005477
Ni 5.685899907626983 6.925960624453981 0.6338404784260151 1.6981539884359913 -0.6464552960555899 -1.3858346312354262
Ni 5.737183155245892 1.0839089828053354 3.6300418400910583 -0.10417004435171091 0.6250099816976203 -0.12947458455477057
Ni 0.6216782917712566 4.623174724470427 0.7887681377806073 1.5434751367014514 1.1372740044490608 -0.24309266169325874
Ni 7.114349369670358 0.11830042215245934 12.929225640221482 0.6844829402522729 0.5375623923069128 0.38798563768562855
Ni 1.0451862028522625 2.4185249002207407 11.572843117457603 -1.1509584439146887 -0.6915503886220155 -0.18513819666566178
Ni 4.20288777404322 7.547041494708623 2.129011144710306 -3.174597380398926 -2.060108235054865 0.7755156758910773
Ni 1.857158776970873 4.635515954882459 10.417142155428584 0.4811763002077003 -1.0342252181859863 -0.7337769013913944
Ni 2.0217420103784014 6.430913770479724 8.854489348934965 0.022096317678407106 -0.3521568009124774 0.21198179922106716
Ni 3.883532174335877 2.759612392711372 3.7719093535388546 -1.3205617781695451 0.01333374099442865 -1.6141876727256652
Ni 4.2433735869122975 4.7149072454161125 8.198258352475694 -0.09394116753485111 0.034860045101978675 1.8691230926901228
Ni 7.33979834566513 1.6743423119553393 6.650152851260506 -0.3164719459163582 -0.3126374026616164 0.41462458042939565
Ni 1.8738482129166771 8.495297426722939 7.488961892221801 0.5667482698422497 0.9728990084726792 0.16451846353278118
Ni 1.233657162038816 0.4070349719233328 9.765229219380688 0.5997015848398187 0.6795001423257008 0.632689352619749
Ni 4.557613650697555 4.8920692162606265 4.753334968565108 0.2568902296979834 0.6215577614829618 0.5365928293047919
P 7.019986001679029 6.360812658576 8.767518843839609 0.38386621620061634 0.8750140257987318 -0.9160948549994418
P 3.6365431381548947 8.596767735691737 6.137272873666435 0.10979638939955284 -0.27773930523285073 -0.9342334735816813
P 5.738233667087034 0.6287496066949824 10.100865012160067 1.0396890695140353 1.1002552611328662 -1.8457911028324019
P 1.7250774664397381 2.201178567731129 0.32449762679759686 -1.0115550302819805 0.07832865780857479 0.159975324246789
P 9.047071920118896 8.558172844136715 12.09413267071216 0.15440245814470183 1.0362610176690927 -0.5413321437619902
P 7.456596992629035 0.5976051278150563 4.778403835048999 0.7128334663705078 -0.36929423192371236 -0.6978328791966175
P 2.1090441118201375 4.368256607610212 8.00747078630728 -1.2374588389007783 -0.8824524843546481 -0.5473084159500832
P 1.5505098030985671 8.366203223774878 2.516027928384249 0.3288554071823756 -0.37466603775858703 0.0028667800248337724
Ni 0.8516965375307202 7.149920614100004 10.839548399309226 1.7359319785157135 0.3226333375320637 1.2312277703894021
Ni 3.386247273395707 6.683237579836595 11.466459153537931 -0.5345611435867439 0.344810130739419 -1.2510108665536002
Ni 4.330547799955982 1.525690318990877 5.743919219869009 0.7202145893259274 -0.7520584733094015 0.8127773884560132
Ni 9.044240105590598 7.85138847741599 8.839729200822633 -0.6228767374047015 -0.8682203999156659 -1.22239834502323
Ni 7.393986486896937 7.642089979118087 10.731306399663568 -0.36005034472794123 0.2495168200520477 0.17088605762202183
Ni 0.2756232485048566 0.5389061800862391 0.5818511041521477 0.6518044761826453 -0.640641003366658 0.4203326865577664
Ni 3.6234711168968508 0.23384576281545258 3.6950730905005713 -0.4147341094240664 0.4316720228299856 -0.6832601235887652
Ni 1.7103977053204673 7.244229172777882 0.4297799235169058 -0.004109908403315503 -0.002403724345486183 0.042198487744920875
Ni 3.0067201824048317 6.187898409523933 6.744289674089571 -0.3617393023945899 0.3819525441176712 -0.8302290082735574
Ni 2.6672861042033027 2.0693256293393727 8.272327658673262 -0.35195342665241963 0.8338020703367962 1.2575211568682925
Ni 5.959681563199889 3.1485849553869554 4.516341324180457 1.0107747004725303 0.4136904986509004 1.6022132739726083
Ni 8.448947017314612 5.559418281953417 10.374091266690003 -0.44270719759822463 0.410672280649867 -2.1148601339847644
Ni 8.434395144593395 2.8356055058110687 0.7435413192980256 -0.6813518508224589 -1.5605647451938867 0.2597117583071785
Ni 1.2336845666955414 0.8037913705975036 4.034238603066191 -1.2376807251035975 0.9537802853653574 -0.35587513030432905
Ni 7.7593636401319 6.9394528504484825 6.511240473296272 -1.3412005374658191 -0.9890715044674837 0.5569608514381827
Ni 5.264416287189431 6.3698470604098265 6.987072095463196 1.9769212207127242 0.7191792060828774 -1.1801438072293935
Ni 6.5088982886348035 2.990898560588667 10.425096813787427 0.7565607320551293 -1.6136505692752725 0.7029758568501376
Ni 9.020242761184672 5.4618028946973345 7.986708104883517 0.0734060236959768 0.322983778892947 -0.030339788634121942
Ni 8.192567318762373 4.363451657797682 12.175662437958955 -0.0009870465036176548 -1.7315487618463534 0.7543025321485719
Ni 5.051125843895187 7.217454823157108 9.219124749461228 -0.5406562007408883 0.7084201677941605 0.6239781979989963
Ni 8.33007475132515 6.549712957384586 13.446304011225893 0.2489601762176293 1.0625713734288473 -0.3762603788289004
Ni 6.292730356384387 7.992604673522278 3.442235900574376 0.695112652051977 0.8037466457123126 0.8888360192834885
Ni 5.712692527018906 5.212283495212033 10.3750266789729 -0.24617849970743405 0.9266158091354235 -0.2264270281121197
Ni 0.9495804904227129 2.823026768374083 2.585056604721449 -0.13717426719187345 0.08372797444727516 -0.11013011858988775
P 3.939675181080766 8.050528982954322 -0.23903803177636945 -0.9354413778468534 -1.1257485203079645 0.9444556655303218
P 3.145049754669371 5.568525762871845 2.737498661711042 0.026588034901173563 -0.1255315407466225 -0.5209934322046382
P 6.71072445053223 2.3977247657661174 12.913208531854009 0.24751958711636085 -0.627766718507151 -0.5021691004092835
P -0.08185496917327205 0.900494182784629 8.008620868401193 0.11730709595430118 -0.8225249547610802 0.21369672502964487
P 8.913629511637062 3.4945596116602937 10.169131839040299 -0.9078714386483848 -1.2519174375282698 0.7648404555654182
P 2.944529881409191 8.138388312416142 9.744733276615717 0.3798316411199265 0.9175781244131875 -0.17001496787097817
P 8.234194992328344 4.278935696456368 2.7202921912416844 0.7931398167307437 -1.3648330892830947 -0.3186807806422189
P 4.141610961605095 3.607156211259628 10.348514500568132 -0.26777190960749364 -0.5320381200545741 -0.5939050327626997
Ni 0.7890111257369063 4.347913217434347 6.031531092202696 0.3257438581365874 -1.4931231666114606 1.6556189432872583
Ni 4.377318414100763 7.198527340245391 4.426455877098069 -1.1695318360415021 -0.19208068942176595 1.1704090964401328
Ni 8.759332159387156 7.831428752434281 3.7808140399975136 0.5946187710002727 1.21576772708059 0.07849835061721964
Ni 5.603146979201674 -0.0891564832134917 1.4497437938076136 1.4130009072375729 2.847453813701335 -0.5946550235548469
Ni 2.2356993003196313 5.275442094078641 4.6991468273333 0.7782299894984468 0.7333981778957369 -1.358373706810996
Ni 8.16487034569851 1.1003517768406104 10.668842052100672 -0.5572048491281888 -0.2639065131148165 0.08175670965351726
Ni 8.222082134055691 2.8222685728713452 4.499080957886206 2.3217519202774337 -1.337386563036368 -2.323929901765359
Ni 3.3557367555746964 3.519223802713207 6.238402451403281 -0.865308882695826 0.7997709488940161 0.6141085042937682
Ni 5.221180873762233 5.004273015780228 2.403160022683333 -1.3582307534752287 0.548729721777642 0.0006317200467279443
Ni 7.017208996464183 8.818361789973794 8.154018101635229 -1.006681247129447 0.3048855266303394 0.7865703910433421
Ni 7.625546701341486 3.9604570457642394 6.2460894576147705 -0.37988923383073925 2.212171760653745 0.7072824546452916
Ni 4.237353697318272 0.21988765765661905 8.038903014082825 0.3368582228821941 -0.5479406502174434 1.1903171482179693
Ni 3.6064254204136157 5.55208296883657 0.11542019273061364 -0.052128088153807 -0.22954834734992077 1.3669938443798393
Ni 6.7534391754816445 4.76409860423831 0.6489651084727955 0.4700886749349711 -1.0998330859937833 0.9288279862953939
Ni 5.77770550765727 8.709455684146823 6.02411082465 1.094503960471386 -0.2309961355400409 -0.34378965989470467
Ni 2.0664298706120494 7.943787845008661 4.7410485474665265 -0.8110236389897 -1.8735453901275347 0.5477935831166179
Ni 5.199220608839566 3.7562832182739982 12.299279363516154 0.7006461802756966 1.0535105487781597 0.8422838825555623
Ni 5.043160223673655 2.4627194766333296 8.351450383571006 -0.255591822601534 -1.9511878205023623 1.727318782925406
Ni 7.274100248608631 6.174168676504477 2.7128454325208193 0.18872977067166208 -0.9576513382849895 -1.3916957180018936
Ni 3.0163300820298926 3.3824928354243187 12.333118633640751 -1.1735162746105465 0.5896382870665459 -0.026343008769903017
Ni 8.529626326714363 5.601858960335576 4.665361453033599 -0.46864782872338645 -0.43923286589637894 -0.10285801040850674
Ni 8.97090524419327 3.0797444576926036 8.120219025007163 0.8301256499264736 -0.6805149567434603 -0.6613242427476222
Ni 5.340573828229481 8.416974917801578 11.643864112338743 -0.058520364833395996 -1.7588083688932548 -0.7536836676176505
Ni 0.9062628630253381 5.956813209129291 2.8790318383467874 0.5321877582585609 0.5239548288258072 -1.4568238179597943
P 7.940718523455409 8.074234011021844 1.662056804345316 -1.1375853650418926 -0.297900610672074 -0.5743381663743656
P 1.8771002321814316 2.830352946605356 4.605611993463639 -0.26934516763188454 1.232616937427445 -1.094233994639451
P 4.527322370130348 1.809940553432908 1.7054557322243098 0.1598629670386408 -0.5267737863318412 0.750909704416939
P 6.3931227488553155 5.87639881141122 12.271002325218268 0.49796457540963274 0.43660751245838997 -0.9789529279762431
P 1.3901103472844585 5.4973101949279535 12.254998919179158 0.29745195317042966 0.4221376009769891 1.7269827397422257
P 0.954193607638165 6.858737001506431 6.3289830632779385 -1.6000666599432507 -1.3927670966892014 -0.08424296641048072
P 5.598570401528522 3.5293726605872013 6.687266977863795 -0.8321215973105798 0.20782098297515822 -1.7263479343717043
P 6.300650302178044 6.203820515081424 4.88540257676788 0.8448321028987127 0.4570691227468515 0.2645325767345896
