# total energy = -340872.7668761863 ev
CRYSTAL
PRIMVEC
9.15223155127380 0.00000000000000 0.00000000000000

0.00000000000000 9.15223155127380 0.00000000000000

0.00000000000000 0.00000000000000 13.39521599703146

PRIMCOORD
 96 1
Ni 2.512525497868915 0.3733039630662548 6.245224665520598 2.5513324064168708 -1.1679742617463948 -1.0623762266989059
Ni 3.624814493472264 1.9934017763830714 12.647669108985879 -0.4066626452698415 -1.335763682720964 1.3436248306365957
Ni 7.676132125904734 7.923599312753621 9.354334711186027 -2.32423534882092 -0.29872953433127264 2.1921140706719213
Ni 2.209000893236477 4.704878482052612 9.009662589065742 1.3084773362011852 0.3126029498792552 0.42101659999866853
Ni 1.3818405170010866 7.278376146007081 3.9033663193023846 0.07926505357991509 -0.49720995663179535 -0.35163923784611056
Ni 8.127492725550674 5.471570064933567 8.988698487649415 -0.2820289337471401 -0.4190569051691363 -0.7499514542687277
Ni 6.071279184555601 0.08565024303438092 2.470265069033724 0.35356447989328144 0.121769502601029 -1.08885730370857
Ni 5.770829729698717 2.347895158099035 8.704345062287379 -1.2604542713546871 -0.12259636937769855 -0.31999307169573926
Ni 1.615011918286234 3.8209651184415807 2.801207928718564 -0.7820357363977822 -0.2405750374777276 -0.4765053770945922
Ni 2.576920598526068 1.1670742532118936 2.1397651773522672 0.2352993909010851 1.1087093054374906 -0.3346409035159011
Ni 3.1353623064279343 6.617731469225392 13.129187226564646 0.4086915027744123 0.6794536053584814 0.19973794885670762
Ni 0.7206695869095935 7.067234165881934 9.33046477627643 1.9146760987295732 -0.8248595164315279 0.45555577142611864
Ni 6.107000344002 6.426312547928581 8.139937929910195 0.4253815618355835 0.6929346705640517 -0.5672437214214294
Ni 1.1073376383754467 1.9106930605447123 6.793022328217196 -1.1391007732451544 0.3159908925148816 1.5035281639948688
Ni 3.1642375967311347 0.5709674518983666 10.772071195254684 -0.8321586211961023 3.922773745045102 -1.3959601497052023
Ni 7.652107518283211 7.591776008400899 12.127733584568213 2.1706327608696943 0.11582022699612958 -2.2460079924768994
Ni 6.147810144148425 1.7696480212855605 6.280749051990288 -0.4705879831688928 0.95444491553255 -0.08117564033906664
Ni 2.397317208063309 6.078253184939448 1.9346169936200104 -0.30901343275578397 -0.202272028132471 0.38589841613929665
Ni 2.5764355302579007 8.816335427506422 8.451041497426969 0.13937744549077932 -0.7060084730288744 0.2953104813473946
Ni 0.02805067424731515 3.021417024565859 5.136931534179175 -0.7617309634021591 0.17841527611953145 -0.5685475278345177
Ni 4.355464588805199 7.727796472580349 6.583628424303749 -0.49503043248197326 -0.7852814970285895 1.6078018238039793
Ni 8.52301556096846 8.268556069272774 2.897774038233017 0.1109346167690541 0.4873070956957866 0.19502717364459962
Ni 2.335731842468939 5.4533388198356345 11.254352608938458 -1.2260822216327207 -1.0971275141371621 0.4995131508436752
Ni 4.60811193866886 2.4052064315946424 4.122726088068812 0.761006940751941 -1.2947448171064413 -1.2583259121577748
P 7.259842877270478 3.5054602428085437 4.366505840856476 1.5979802097278673 -2.066320020292532 -0.31374837633760805
P 8.2736447099728 6.949380881180092 7.383496846281091 -0.6149595394401538 -0.48766884991057946 0.18245859295096967
P 6.755024093579849 3.5366968088322595 12.296057764961349 -1.427097494539955 1.2054828002148141 -1.5374451284572876
P 3.0078717219830584 9.154611055048925 3.915367640435375 -0.8886647838129469 -0.2069933448675403 0.8257432045880617
P 3.5014424131910773 3.334029795052839 5.673825228296618 -1.1483742281272804 0.6766361905143443 0.4704897670281316
P 0.9096805561053674 0.1788263660105437 9.944849499068413 0.39627333161571754 -0.5255949355323917 1.1525604982944861
P 6.472760122663524 8.527957765964887 13.388491909603125 -0.2449675101184684 3.1682822368141754 3.076685401141785
P 2.6880103841679857 9.006903191276072 12.802652081558103 2.176281217404723 -1.0386392880932822 1.2911622419615054
Ni 6.5757135745242845 5.7430893160984 10.891221351156515 -0.5512954256222893 -0.23665127694328922 0.0007160522304181217
Ni 6.382702164950848 8.823757887232539 7.436823238192542 1.3672380991801614 0.03947671793838362 -0.30427900339459213
Ni 1.1296416264796938 1.2352583776996413 12.480108224697746 -0.3465438256010741 1.4049096455890062 0.39362432402864467
Ni 0.11314446160802424 3.6512644424346257 11.701967200241736 -0.44118998962274986 0.723552909670541 -0.31562708141755963
Ni 8.28818760578636 7.8053524820983595 5.380576749164159 -1.9187402414966181 -0.10176297757211507 0.2877362685445625
Ni 7.595491814379694 5.485399086692087 13.219363248063349 1.9319274296108535 -1.3108764325609812 -0.7570433281185026
Ni 0.04089491589914133 8.838081129490702 8.01088872044515 1.0648174891505469 1.7038525814826657 -3.7194334235491167
Ni 8.410534636142362 4.586457758999328 1.8403956858094181 -0.12367854669828376 -1.4883085188316367 0.7895940083610143
Ni 6.133734012140081 4.717975325293144 3.200572870909498 -1.6024217904389886 0.08809859271114505 -1.0950914575437398
Ni 0.6974576974430396 0.18732512815810376 4.881551327997119 -0.2112014694116169 0.8825103341757768 -0.8897590453183901
Ni 7.960464501134378 5.977514573095603 3.7743161946141917 1.5193139660742156 0.20000662913706202 0.5289383980833278
Ni 3.805497847249058 7.112363819284496 3.5516744356408765 0.49112904054503803 1.0531518798871604 -0.26519412157798844
Ni 4.986117403043752 8.793894155930053 11.768206475541074 0.5948923363766335 -1.576639796378878 1.3144080998633234
Ni 3.387954742902746 2.8485679809315503 7.943711341419638 0.4919091132441721 -0.532833876482992 -1.4430203364177987
Ni 2.7604594485230205 7.676772782107974 10.694431900430253 -0.8995919722484121 -2.304464079731263 -0.169286831455702
Ni 5.700028067009158 6.667116910263767 13.192560022966058 -2.645149132558715 -1.08534671945215 -0.426544214685117
Ni 6.675372223054095 2.392237719594758 2.3701359958061055 1.028610957323003 -0.10534118184167665 1.8482601331981847
Ni 1.5749800578151723 2.156036929691431 9.344221495406302 -0.3239178606714421 -0.1230321713635365 0.1590579546388422
Ni 6.6745485222213565 6.622810957693943 1.9873677101716927 0.06734104844881951 1.2495149987343641 -1.357813463432152
Ni 4.263054507603481 8.287885582147691 1.2343934918252666 -0.8558459375107133 0.31160716162488916 -0.7552391850302282
Ni 5.605558733725597 4.124929030184812 5.408023376134134 0.48462826331204284 -2.1295853560100806 1.2862182676926688
Ni 0.9772478201917091 7.780696370505071 12.572655589371585 -0.9635545911433018 -0.15184343916827397 -0.08447359436404805
Ni 8.966642525018138 1.6904812190279745 2.7954209727570065 1.8390501845641425 0.13508010366700607 -0.6064126783114073
Ni 7.465813846612326 1.0878982987228325 4.2189837673825625 -1.6059071778844276 -0.6377467125379984 1.4292829322270484
P 4.512828056784035 6.549739541598616 11.246596092763511 0.21490514351544923 -0.48712840402607716 -0.6901028575422115
P 9.135043584155662 6.611443886202159 1.6120475105115248 0.7285382787002743 0.04627060093176547 -0.42386872473548287
P 3.533877921538001 2.858726957868651 10.204663046176893 0.8994518471261218 0.2934788274552945 -0.3795372498079593
P 6.519161936241091 0.7066767402076716 9.804909134148277 -2.330254558431806 -2.549801314484325 1.4165068635083025
P 4.627020448895931 5.883301502293339 1.7057068713095607 -1.1063001817753657 -0.6330454504075871 -0.392437245699079
P 8.187073752452047 0.9206870296770406 6.211508759990341 0.5618827142198323 0.2790891343925258 1.6704079286709748
P 6.229704311385521 4.240439343629089 7.792143981633832 0.6984669132361906 0.5103781185826372 -0.3480345512139877
P 0.34031749038454473 3.950816978606972 9.469171420393756 -1.3036662879657872 -1.6238604199287388 -0.29440082504893167
Ni 8.230089240383915 5.06041521815671 5.935406986526043 -0.2363553429694252 0.592975836080211 0.9591472061042257
Ni 5.332520212135935 6.193607910448652 5.022067368277025 1.2728446745992401 2.800366373295229 -0.5403834066954758
Ni 8.05088854810605 1.0246197703056128 11.62410001485358 -0.7711252601328655 -0.9032923039181346 0.6024570360977689
Ni 1.3237055426727413 4.3755354324295785 6.9346229079268715 -0.2932813667325078 -0.019466336254727764 -1.3102593678022725
Ni 3.6888343526389478 4.599792560258207 3.564332886993763 0.37168304387086315 0.35598491640931595 0.5419880321784344
Ni 5.327916639704078 1.8773240245873528 11.221453997678907 1.5882660677638967 2.0017354515429266 -1.47997351660338
Ni 7.350468273334596 3.5022203528664413 10.158060798730027 -0.36787318320646967 -0.3741657010834008 0.32506482979169177
Ni 8.700907484145418 0.15185107896152525 0.7673166802906878 -2.1915792812143735 0.6801416325644416 -1.2326845574405867
Ni 8.309448239502474 1.3658790253089212 9.385840352815105 2.622357074364864 1.5630219484851273 -1.5722830620720791
Ni 5.965662433335653 3.918903147454116 0.9913999157212936 -1.470467633995474 1.7933987052736147 -2.254653069746407
Ni 1.1423906849241816 7.167075859041242 6.393871548242774 -0.3440331433640785 0.37404820166892994 1.3245058504189575
Ni 3.368506251018657 3.4547385759748392 1.0261536843008003 -0.4276307628810765 1.1297255026778414 0.6472649364410787
Ni 1.4594056787505711 8.412310169048487 1.461766039247939 1.384480688310693 -1.6877019398647324 0.6022210088275628
Ni 4.907755997155955 8.27744288603487 9.363617819570985 0.2983027312064992 0.04759523328045996 0.024994465161808567
Ni 5.031137229668616 0.11476074568648548 4.930444378982147 -0.12042918652305067 -0.7841995768183204 -0.8128915454363742
Ni 2.9400994479116793 6.11922772525242 5.6585272733863805 -1.0253405141018472 -1.1232486367042462 -2.3554624251560017
Ni 4.686317756621585 4.916121136723982 9.256456171678078 -0.40649989443973217 -0.7756977099948963 2.286959495188597
Ni 1.9983531336109737 2.0596364755666725 4.402900604539426 1.8461217466989432 0.2585776447027353 0.11060962932946757
Ni 4.502193163810241 4.549070893424503 12.25145161919915 0.4539166931607989 -0.8578817369938193 -0.31496167991941887
Ni 7.934435554819862 2.4633780148488875 0.1487191853508263 3.217299290142827 0.4876143425235603 1.8510310110751027
Ni 1.1759153088166137 4.781290462636264 0.3596442575900181 0.19353310559757636 -0.3924848111075627 -0.649308706343985
Ni 5.956107503675893 1.4674230335225535 0.18356447624508154 -1.46446950743051 -1.081451241052486 -0.2790089159738937
Ni 7.985971770254829 2.9697252211958194 7.588322871465432 0.9216551226960384 0.6023850452092528 -0.207008771486508
Ni 4.431226760954135 5.139572868182822 6.944481691671597 -1.2880008135143883 -0.10964880807809503 2.099625833533513
P 0.8444507719377062 2.495383368316492 1.1781310640566787 0.15282714323778196 0.6511640143851689 -1.0535632563929662
P 0.7993192880888498 5.106487551401183 4.314612688393989 0.4279472656802307 0.27805786491453405 1.2236972663403118
P 6.583740081527742 7.748178492074874 3.8703597117114295 -0.7203351740641917 0.13939158655816639 1.5782382512142497
P 2.696009434477018 6.510943232376662 7.940496162502517 0.18424756653059235 0.5994709568862514 -0.7457276459953672
P 4.64210332636651 1.8998751229414212 1.886207180456857 -0.2571727939354087 -0.07354280638415722 0.0026006708476406823
P 9.273864631166422 6.231937455865388 11.338728861351537 -0.40777053362203963 -0.7658922938687004 -0.26066383780780267
P 4.424527327514533 0.6081895773066445 7.463091057748553 -0.21051832730166326 0.832705751948824 0.09426358387127637
P 2.1847474798280837 3.3816397031850887 12.133427187768726 0.2965677507932635 1.2943961755177709 0.6412022751867666
