# total energy = -340890.65765181324 ev
CRYSTAL
PRIMVEC
9.05690739904053 0.00000000000000 0.00000000000000

0.00000000000000 9.05690739904053 0.00000000000000

0.00000000000000 0.00000000000000 13.25569946472476

PRIMCOORD
 96 1
Ni 6.506120150189082 2.0796742959614503 11.423430471641945 0.08835390325506073 -0.0986264888256624 -0.5249565306174444
Ni 4.8965627575015676 0.36159160215519925 5.900761879730609 -1.5083489824222795 -0.7099867409503321 1.569657194413458
Ni 3.263946478040873 2.119551860165029 5.035747502259175 -0.05381961692361699 -3.095958390438784 -0.6710481549036056
Ni 3.34602923170361 4.3711353194578715 4.937920220408499 0.5680716166393636 2.122251798463145 -0.1073597549336022
Ni 5.1049622015906735 4.667350539726377 2.7778640580333307 0.4859384974830341 0.34405834017505904 -0.5872337913901113
Ni 7.0555936779353665 6.194825178751154 2.878289766677105 0.9993821423648724 -0.7575292666159856 -1.6318220979779767
Ni 5.093958058845422 4.579000405998031 11.578217551138028 0.6698297091154722 -0.15912557465198401 -1.1358493561873924
Ni 5.711104800248108 7.63279945678121 12.374978167175305 -0.5414468149629836 0.8803428942108129 0.10179125970688922
Ni 2.014174740131271 6.299233209670722 0.4994920774138147 -0.3115200012277216 0.8574991568434199 -0.5052919623089814
Ni 2.8326746515030594 1.8444573484413203 0.36989497505137026 0.2887947917160639 -0.8593953454248684 0.24380280038640592
Ni 0.8843526865987286 0.03513717876089086 4.348559165860265 -0.3466111885038998 -1.118809884206602 2.4627116226536683
Ni 8.608047268146487 2.236639561737561 1.3713679680900246 0.02417531169462288 0.832577968121708 0.27000748380623174
Ni 6.946367372167673 0.49926565472358314 4.732191658373363 0.014507192477239531 0.7009164032179477 -0.9631236742534703
Ni 0.8869810011869362 7.490488267516884 2.5654813859776713 -0.06686308037113646 -0.18802066041977944 -0.8004767167117892
Ni 7.600411955170491 3.9492011646652063 3.9836291875602923 1.6615160254979835 -0.5826978511929706 -2.0522558288899817
Ni 7.573848045152527 3.839286533919209 12.712732894193689 0.5790574262269059 0.055039605373647146 -0.275622516000164
Ni 7.935426967637074 8.704195399326407 6.75566150278402 -0.7777126835423961 -0.5748076498116165 0.36901243901723546
Ni 6.778325508385436 0.6454224069588014 0.36604669500819503 0.3870371577294302 -0.824082014835555 -0.4332154560577055
Ni 1.7449128769079272 6.550680135626648 9.145147248716999 0.4411128565279113 0.23034821754339682 0.6061612244222335
Ni 9.047742018760914 4.947417293727571 1.4521483384385498 0.11125471911263421 -0.886859098062776 -0.02592700427840696
Ni 6.214795660029576 2.297873314083778 6.924591849202725 -0.13986235554699786 -2.1236581918923685 0.7691732786128173
Ni 3.5281364730030305 4.217955841062431 0.574125524567934 -0.5377598530296996 0.3827891810863536 -0.18086142366717883
Ni 5.980964419373663 5.455219989563643 4.907671054684327 -0.31181619231190166 2.676792470495609 0.34486849478118026
Ni 5.192288904759173 2.8972322889418756 9.270652440221578 0.6095591943601889 1.0337043126855103 0.6876970763141962
P 0.11500732989468512 5.500984543713242 12.418257505876923 0.3768982695232154 -0.42041341919703085 0.40236401789448767
P 4.089374923733746 6.044806561111348 12.798696532766995 -1.9290745335430903 1.1427905633919155 -0.9239308061040926
P 2.295337379953185 8.669063654710081 1.2228790621454215 0.5897701846587197 -0.27146247108520344 -0.16130587013275446
P 6.290692545795188 7.6935622499317455 5.651369060420463 -0.1546863079337078 -1.3961352418304858 0.4446617502214341
P 4.8694192053966106 1.0650198795882768 12.587692322049465 -0.7222917835699302 -0.887657168484039 -0.5257286328967784
P 3.7543146267291174 6.133274434638614 8.299672243721787 0.5870970087019308 1.145432629000453 -1.9007875136729393
P 4.896544643686348 1.0765855506053037 3.907939704978933 -0.38309591369349505 0.5570786079629697 -1.6518124250569746
P 0.24814930589539455 5.645641472048366 3.4960188672390675 -0.2320819124050519 -0.26930505842256847 0.782883171999742
Ni 1.5343216611773791 1.2861623926836143 2.5589468271375884 0.6877109602712672 0.6747117197981218 -1.4134292530242432
Ni 1.8219056484942593 6.556811662078117 4.7768240990718045 0.1776064070649909 0.7478398072423637 -0.915224022358714
Ni 5.741644692706537 5.505259404104812 9.190627415967667 0.49343994806640173 0.5097481983081221 0.11541784935138832
Ni 8.905485170942244 1.9172296010817362 10.13297510475154 -0.6481123720430386 0.42614286548164027 -0.24604145990893758
Ni 2.1210100222901196 5.401159308043962 6.928621267398086 0.04710595234886726 -1.2449016683320688 1.002770599221131
Ni 0.8989352135404005 8.941069760939031 8.832683936197478 -1.8948809183805173 0.054916963752853806 0.5149084023528229
Ni 1.7320248973799481 1.1908384400961372 11.586289972890162 -0.9886665557195813 -0.30239309922578883 0.19745480924948575
Ni 4.158669323852206 6.927456549079535 1.635130477013025 0.009500483291267509 0.028323272424725415 -0.6859551539224251
Ni 5.385545199325595 7.6325458633681516 7.742468645330997 0.12897887586527465 1.0307082061716635 1.3773859862474407
Ni 5.419907106795132 3.179010798481219 4.77006311754149 -0.1698830702788042 -1.5635783352092298 -0.5304694900158735
Ni 0.846502058318103 7.617420827660684 6.856735686012617 0.6441904112808131 -0.9178537466720773 -0.5470037402254708
Ni 5.047441781364254 4.63150329940892 6.931644463158057 -0.11170774748965276 0.6206823008565441 0.5601402776074289
Ni 8.3876383645675 7.11833993385233 9.35666860885902 -0.20363137037384285 0.0510947617932862 -0.30349558826134826
Ni 4.441380694875303 0.38110470959935316 10.269720824289974 0.4798593811684897 -1.1401490120040105 1.327595545087875
Ni 8.230673098791389 7.270079363937897 4.648720480774127 0.3115320854125796 0.2495523012756735 0.6525626945049084
Ni 7.1270073944343935 6.18728983162025 7.224899886019856 1.4442089574092611 -0.6418000566717657 -1.0341694252473868
Ni 2.450056532642199 5.167871481844604 2.7162915773425276 -0.9991409728883439 -0.3306474660857919 -0.37340671143018916
Ni 2.158523733607681 5.080508551045668 11.50674315335802 0.5177404724849792 0.5025892186658377 1.0115249483749933
Ni 1.1581067759962664 3.1936377042701762 4.069141792134657 -0.6335864105127217 0.7061583683431775 -1.0826720008334645
Ni 3.811690136433789 2.8164356161596538 2.6863467237140264 -0.8291460596220236 -1.0936115305641037 -0.03837397179250811
Ni 1.1029502086558638 3.197966906107403 8.376435875545605 -0.5010108184351242 0.9840390842498987 -1.3477162270971497
Ni 3.707427016035971 2.8194968509315843 7.344586014385486 -0.8423895548954912 -0.45286948284320716 0.15827068285085644
Ni 3.7830974791113507 6.904796166241163 6.048694691548004 1.0809611887899448 0.15706920634358756 -0.3989832743477129
Ni 0.7404900490609364 7.339011487751986 11.511236285222973 0.33764189512575404 0.3638085262187928 0.05589424006445858
P 0.12063438659231929 5.4785505835651005 8.037805345561404 0.03297671203633675 0.41119472881224023 -0.4032831872746474
P 8.515032826999372 1.3006806155812605 7.84102500824422 0.222086748865553 1.7312433147907924 1.8449917468595582
P 1.7688593406268147 3.1713395977361745 10.467482930392004 0.4017909189998371 -0.05631435832101269 0.8451470630359704
P 3.9281529113812828 6.31274611582374 3.8394604265453065 -0.2407352172046757 -0.15405381655603145 0.25682620922926735
P 6.978129947153353 4.025777318501512 10.351376091913554 -0.433590322898621 -0.48237186317769837 0.28931775409906946
P 6.419373089107575 7.715570535422251 9.936432964104478 -0.9456885094961582 -0.7372360635845884 0.9664409115521615
P 2.5698522495899008 8.829361862486401 5.7928207491526695 -0.08940856977182021 -0.752123265109066 -1.58529258695787
P 7.01765429196017 3.949219278480425 1.662383617700054 -0.4825220156023174 -0.8433976844450313 0.913634309274091
Ni 5.392337880032541 2.817495274349937 0.4904768315795558 0.3544139723777703 0.03858223114857227 0.2732239338610004
Ni 1.6325619380150385 1.2681844310792305 6.959971753087545 -0.8225049001564222 0.843864596779121 -0.2715979682218032
Ni 6.795035502924523 0.6832666954041003 9.286386100120389 0.09990124177302794 0.3620982283959054 -1.1495561642505234
Ni 2.566329112529898 1.5335065394925456 9.335604958832159 0.9807591279470462 0.08046807274908077 -0.6878914517131894
Ni 6.441308919337206 1.6687805115444752 2.5151095829272414 0.4694122176932367 1.9131727747111695 0.9257555180176573
Ni 3.9837079826564925 6.541759081631525 10.52559567237607 -0.0016606755318745595 2.1229876481879053 0.8218958058175135
Ni 8.321224061068785 7.091776023834367 0.4312066168030268 -1.3250918048294147 -1.3496823496845853 -0.13806464021662673
Ni 7.480507555331479 3.8642020867522873 8.179005252262074 1.1971902211887189 0.10035118482625298 0.8020718291130509
Ni 3.2205276629620734 8.445312752223277 12.38621869520916 0.35659503918948915 -0.38378162690660994 0.7602600352835874
Ni 0.14913104069409966 4.736663053660056 10.180258502307211 -1.263812903414275 -0.27872558040552 0.136291607476604
Ni 8.53616259245178 1.9702215675035253 5.754670337230178 0.4911112999332252 1.375350958095283 0.4164279521867215
Ni 3.9146671759510925 2.742558420790908 11.398682471599637 -1.668144843668411 -1.4101606095753005 0.1858614479849315
Ni 0.9019611263726548 3.3146289330223007 12.701690712436477 0.5735398388427865 0.2168131591714395 0.012859886681803658
Ni 3.006703131215019 8.541696363001037 7.843358067644365 1.7857607291123825 -0.5792114353062671 1.1109996441335641
Ni 5.405434168435533 7.891392282840844 3.4491991833529903 0.886987396110524 0.6410174128694702 0.8081072366738534
Ni 3.0501944015546925 8.619268776674362 3.3406485228929474 0.4884869749365006 -0.4181953284997894 1.1301222238956279
Ni 3.2942599478090715 4.556358136974878 9.534943872548961 0.20953153790836174 -2.5706956414348303 -0.5159962361003629
Ni 7.09626825000856 6.011821303598417 11.393339801800936 1.5442991752646436 0.049384721080714955 -0.5065731430142502
Ni 0.2833263350497662 9.006750454921395 0.4135755347600774 1.3115246076679412 1.6536967865638812 -0.28060197149262645
Ni 4.54395017355019 0.505816515997362 1.615101125835143 -0.4651891807508247 -0.6664571930988135 -0.6501129474128352
Ni 5.933723589283755 5.289596320113079 0.3489554046587577 0.5127080522673945 1.792021879530746 1.5939929429453452
Ni 7.9553974489154955 8.906816536360806 11.279911090902543 -0.1623296834115785 -0.547641888030102 0.3229799222382051
Ni 0.09636459127178129 5.119081920553512 5.680027833168449 -1.0125307639316885 -0.9668458603000639 0.3668149171452844
Ni 7.87464606067132 8.8274055704428 2.57774353318985 0.3743703608950391 -0.7003970403793679 -0.7194913380066577
P 8.694178459510564 1.5959901450888407 3.625022742153105 -1.6348246322497262 0.3125553844707714 -1.0430821543559843
P 1.7474578679461297 3.3166848510496028 1.6464769708659077 0.24255350136033715 -0.10586825798974024 -0.20519125866179502
P 4.838462695188154 1.0701279754799002 8.288338429539555 -0.9832921787815451 -0.8340630373076667 -1.7046452525872902
P 8.535247844783242 1.626693061884237 12.43375387479637 -0.28093878600675487 -0.1899744417120406 -0.11436652526873851
P 6.3344011819174835 7.4894104955113825 1.280147700340304 0.03426792004393454 1.139551744739644 0.24664309804867846
P 1.8375740986582814 3.2935444521079393 6.053546476954285 -0.9175863519433036 0.8748775002208675 1.9916099330731505
P 7.109962294313763 3.916523842010991 6.010836817741291 0.07447354572854271 1.3834825860634818 0.3837921684295713
P 2.2960528756543166 8.444388947647132 10.327581784242502 1.0814245015796087 -0.17218934981447764 0.5165096854016719
