# total energy = -340895.00226353883 ev
CRYSTAL
PRIMVEC
9.07417163917537 0.00000000000000 0.00000000000000

0.00000000000000 9.07417163917537 0.00000000000000

0.00000000000000 0.00000000000000 13.28096742526541

PRIMCOORD
 96 1
Ni 6.091718173179185 2.139190557086548 11.379530994105718 1.6780297068822907 -0.42775083339870845 -0.1096917455008885
Ni 4.237583639169762 0.5566124012337738 6.058219054302448 1.1309046105876073 -1.2136902757262709 0.04696145635120299
Ni 2.6259472639657466 1.704537742882872 4.757680666924683 0.04366273099527319 -0.6175607245084267 0.5367111000502112
Ni 3.258643870862434 4.169282350390826 5.238916647871491 1.2946360594427189 0.9286842616286779 -1.4682716547854198
Ni 5.110836532173745 4.612782481793845 2.6673626900473124 -0.14043622577259685 -0.8673860769398287 0.33233128154611796
Ni 7.185736584278392 6.077707652404018 2.559175880499435 0.020233553438055475 0.698859777799235 -0.42752766164430883
Ni 5.302147289623768 4.416653339284487 11.70142180149802 -0.06980853615270557 1.106106834817637 -1.0756222930755346
Ni 5.693543528351267 7.78663729428636 12.173852206434322 -0.5284758566246124 1.0929055056360144 0.07798361576433022
Ni 2.0823862435810154 6.5572503929514445 0.36499947387325 -0.7477508470729832 -0.8800960683073293 -0.00011827074541915116
Ni 2.70976538598661 1.5451862174083257 0.3065563649972542 0.2852420413677991 -0.5018631391330906 1.8236796156453432
Ni 0.5900452786586595 9.387411886221027 4.848243620611467 -0.8227830935184735 -1.4080515336520976 -0.37470640407821915
Ni 8.39574105531813 2.304068252996377 1.3452686083033512 0.7999630103001643 0.4529553576887941 -0.33266063986107874
Ni 6.83806877794437 0.6911787347100752 4.705379864727904 0.148550370239299 0.11765239510886188 0.6277705751618929
Ni 0.6831299446015436 7.49032022439448 2.7290262223838693 0.6080849238075076 0.12428481282371501 -0.725220527180951
Ni 7.557568909280982 3.8608694099074317 3.551768647225361 0.9221696004386118 -0.22614472098501054 0.8887984811773337
Ni 7.651704364282003 3.8228940022364006 12.611420551936613 0.4774417728659326 -0.007203716837290819 -0.09220284468750573
Ni 7.990052996499383 9.114823774766363 6.840919882625431 0.35120883517691126 -0.9041718783096105 0.21565359164569955
Ni 6.817461334498513 0.6002274064836688 0.19466820090003062 -1.250374261410866 0.4452849856277299 0.16360983567558274
Ni 1.83918029939966 6.680541160938612 9.254403587988959 0.35118955190320167 -0.38735726007301036 -0.6341078302338305
Ni 9.184604153497599 5.050937926191313 1.4109828507914848 -0.0990167822855456 -0.7658339298269391 -0.4764580687964246
Ni 6.473604680188824 1.9019554177433142 6.95024913036346 -0.22533662326141837 0.8436313977223923 0.034373078163231124
Ni 3.56177564354068 4.470345211970148 0.6414241450324096 -0.24124532407187485 -0.3331926011051487 -0.5545805241314642
Ni 6.179147815451678 5.680295237980967 4.9021904775159 -0.49595577250972 0.10561757543151487 -0.15681338157903962
Ni 5.373198052363116 3.048785506893991 9.062493935220827 0.6248207485049497 -0.3271993596361913 0.23272674507790242
P 0.33276892417032644 5.592747631479149 12.446855914943068 -0.3167213429230029 0.14280421178414116 0.13601444255581735
P 4.120880719681798 6.171026431971255 12.514084636652301 -0.8663355241881272 -0.21287062958392372 0.6629638352335744
P 2.439545633289924 8.330325353071903 1.5205643604968382 0.5004228071421382 0.4793916975034519 -0.09472226867524977
P 6.311712386698057 7.775203838213361 6.018535887557657 0.14662384264054748 0.4641730807814845 -1.1838202276397158
P 4.668316411291267 1.0088845342128003 12.599400904385586 0.11673399705965058 -0.47946651660544526 0.9294859315943671
P 4.131234349347902 5.935832981212485 8.23265913794548 -0.22352553819460858 0.9705117391874253 0.3219558518490649
P 4.830526300784062 0.9921154653057357 3.88463012794485 -0.6889216927499167 0.8778334975253979 0.3828840547930051
P 0.07898431087000124 5.679306153288937 3.655984599330743 0.2664393068389992 -0.5940577562904801 -0.3635673567422642
Ni 1.4038650706774687 0.8472018540833707 2.5808105201575646 0.22465862335778727 1.2622902961221614 -0.12200347298870601
Ni 2.046706601296071 6.286722118424216 4.807790056707471 -0.33302008008302647 1.3477033715813436 0.31550881067214054
Ni 6.1870604929879125 5.719577326346054 9.292374458574246 -0.6836997822293451 -0.44555803678345846 -0.6540716749502671
Ni 8.740804574435524 2.330455943679139 10.268591068018473 -0.23796125400396434 0.5569510812461698 0.8830080997478019
Ni 2.2959105728300075 5.258409783058806 7.210808520095611 0.03313637754265261 -0.04403168429891771 -0.23140854048711115
Ni 0.6222041424068395 -0.0588178721583885 9.133188083020753 0.4789237567280977 -0.5833010319946083 0.9254112473043611
Ni 1.5477360595960343 1.1279104416013102 11.666147774678523 -0.8105708677229976 -0.6674329267485215 -1.6246178669200535
Ni 4.15729536985715 6.61877327562996 1.7599936345055098 -0.07863024820939361 1.501369208670337 0.015661360686340768
Ni 5.487450945549723 7.980343633008821 8.081561478855061 0.08638649511604476 -0.08156799068147888 -0.22370962918095663
Ni 5.319932665737322 3.014485138674995 4.8067801014210225 0.09460245526793384 -0.40283093022857713 -0.033315583432994234
Ni 0.751702551107927 7.392373617369126 6.871718528067784 0.2939187432061906 0.2086779316588148 -0.011459149679535104
Ni 5.130100998239598 4.5008344281648105 6.9559331913826075 0.773775553271519 -0.1757927508950198 -0.0334168848975489
Ni 8.370641896986452 7.047418988309569 9.286397301816084 0.10218001050487564 0.11421920105759684 -0.12016359156648981
Ni 4.565941608580497 0.4657499998879351 10.460037030623644 0.46618394056392615 -1.083666760646566 -0.43004528585984003
Ni 8.025324301067435 7.431692002420159 4.541333362926239 0.2936498058155201 0.013786769371447223 0.6728396995863896
Ni 7.44190044534248 6.245416489817638 7.029230718982015 -0.16352627482284096 -0.5935522774089713 -0.052506554539148285
Ni 2.2937872167021647 5.1344747488960945 2.664919015665996 0.2169769384428134 -0.021003084614228347 0.031161256094152788
Ni 2.400317989953755 5.156706469038037 11.422906441228369 -0.6064751561182264 0.1427085667465413 0.9609284663743644
Ni 0.9772973432682701 3.276628878748691 3.724474630876599 -0.26295494783482454 0.13181711664501813 -0.23166359392071073
Ni 3.489962650396466 2.68423066742358 2.8610653991011787 0.9001550438407336 0.33316791851480043 -0.7169361756849717
Ni 1.2539234610344303 3.2224016299453258 8.286234861236114 -0.8940923825864214 0.5043401399186734 -0.03512949671328144
Ni 3.5758496835162528 2.6645669378123196 7.168136321263164 -0.33418376137382444 0.3503647420090611 -0.004408156370024666
Ni 4.177657810672871 6.801336531766991 6.182330127391997 -0.019581264566037246 0.6328204788809747 -0.4425465036506443
Ni 1.021270778291882 7.441610071854911 11.364576759495955 -0.5700935321653988 -0.13302450668955798 0.66472272690621
P 0.20828399521553412 5.428078641513509 7.910462530974083 0.6144496896832707 0.9931742137819476 0.6401594357445491
P 8.725423853765895 1.5874264856780151 8.239060058512061 -1.2726338441400147 0.5317645546782132 -1.0200707810624754
P 1.895222382500326 3.1339284579518845 10.476372354133655 -0.6817022921833421 0.10522342531688976 0.8865881037895763
P 4.107695948511903 6.120029588217086 3.9891509722121783 -0.1873298050003419 -0.3529741546074502 -0.39655203919840093
P 7.0251328231387085 3.972436348334033 10.425704902804446 0.10087183321641338 0.41879002466099485 -0.47704916541320425
P 6.420811150480327 7.777971460516746 10.007182335835186 0.524689907219619 0.5086079140560917 1.6098936733360016
P 2.337506574924155 8.522416489269764 5.7005360848987685 0.2693055726432007 -0.7854388485420601 0.706739437657628
P 6.904065227165734 4.05904931517274 1.4534690291084582 0.15935414572302234 0.2652316596841432 0.18170834504850641
Ni 5.363025906126742 2.8711223033596744 0.4295395185710297 -0.2583200201659745 -0.3232959108167271 0.37892147060083126
Ni 1.4344450285869967 1.0909422669652813 7.068688846273941 0.6085232968965069 0.0349942566869978 -0.5761482229999111
Ni 6.817570224556351 0.8641043133112868 9.282373814178966 0.19392854126378212 -0.6694026488803826 -0.30622738537021454
Ni 2.7644554175357867 1.5509755388167172 9.270394092982482 0.12823916948577269 -0.10053141915785911 0.11101303541547332
Ni 6.228565753367194 2.062404917967728 2.605619305001674 0.4928491085599383 -0.10116493897679997 -0.2110348619267656
Ni 4.10201551716135 6.6542714344851746 10.388093369410024 0.3962401643849369 0.8548133824811407 -0.5633243317623654
Ni 7.960380455738505 7.359833638418512 0.24929834291739622 -0.17146018495793697 -1.1272423312446715 0.21206613140475736
Ni 7.613284322208134 3.9565565482326464 8.260416121105555 0.532448211008799 -0.778798203297091 -0.5277664892624137
Ni 3.2034547598814997 8.312739608731052 12.441424115891246 0.3756361149813402 0.4308078750574775 -0.0301613540747287
Ni 0.3464899788750734 4.875670303929435 10.026651878176633 -0.6240370762613898 -0.619508592263417 1.129178886145752
Ni 8.650915831690188 2.2498137816785526 5.693165135400279 -0.3094150390695768 1.1092129845467866 0.0758313453080178
Ni 3.694349288958545 2.853699894105581 11.812145749393526 -1.2912100644803053 -0.38583928076658713 -0.9577397842337377
Ni 1.0434026825474723 3.2767831396639613 12.665062516679097 -0.12358984363921942 0.778350317126395 0.4507439518597721
Ni 3.0985664116689677 8.461673985339088 8.113170447811159 -0.09519946542198443 -0.23562823499541352 -0.8364940153466626
Ni 5.6859212243026 7.958375063839989 3.5715839155004456 0.3672689739635675 -0.9966940540097479 0.31167066787297293
Ni 3.3825153858247385 8.376549182624169 3.6414151095920078 -1.7832467044412772 -0.41807397243057676 0.7264279172254908
Ni 3.485325748766861 4.2480733814081635 9.475611925652725 -0.09199895620681577 0.3854759838898974 -0.3970469765569485
Ni 7.310451997188943 6.227476852788813 11.502087661619628 1.3569891677586436 -1.325244528357195 -0.7224144251907235
Ni 0.5412979220159962 -0.21679012356698557 0.46918457379557793 0.5840026860473232 0.9888665875455293 -0.5324142724470701
Ni 4.524055232998782 0.46859747490040093 1.7747618485997996 -0.2730508986182459 -0.5133803957440707 -1.4167387770134503
Ni 5.977292870734335 5.706310887632781 0.2622725933088037 0.5013957125783688 0.5634546866926425 1.2237111502973828
Ni 8.073716857604975 8.78131167595129 11.369702758968682 -0.32729680444600406 0.23259561881667687 -0.4394069295803981
Ni 0.20029781689025944 4.886831534857838 5.687773262702997 -0.9375201147527531 -0.4363097787123131 0.3932422580988776
Ni 7.765621513123611 8.866636110438915 2.3483012093245033 0.6032257959429933 0.09474617993464973 0.396084355533363
P 8.489676878546447 1.55951433418552 3.4241785367878856 -0.522938471746151 0.5041341945554543 0.6157858919961912
P 1.8133552073490615 3.1284476583740344 1.6003961989836792 -0.3780462670847296 0.5508074302422772 -0.626646745970095
P 4.774602181912721 1.1100524721158647 8.197464056417916 0.10619144565711387 -0.15572734760371246 0.24072493279203058
P 8.402274458788414 1.6092044972456314 12.4194310464594 1.0689011723016173 -0.059745238379432596 0.04531595032798002
P 6.095130061658112 7.885482244288879 1.361405207457806 0.1459062477482326 -1.1786481965204734 -0.3139743763054851
P 1.6202023930872775 3.201295107067711 6.020368870197931 -0.28703255760931856 -0.8034846503001775 0.5836884972410141
P 7.070912018288135 3.8519494993361953 5.8849023789101675 -0.39887785911810014 0.38780848867781603 0.46486753574534784
P 2.6028716458755596 8.555827588683083 10.277490107995291 -1.1349389285579807 0.0630179955934334 0.12119666081669449
