# total energy = -381158.54601745034 ev
CRYSTAL
PRIMVEC
9.36590686000552 0.00000000000000 0.00000000000000

0.00000000000000 9.36590686000552 0.00000000000000

0.00000000000000 0.00000000000000 13.70795140999923

PRIMCOORD
 96 1
Ni 7.373253996997637 7.200696528613394 7.499195473651416 1.380085901677107 1.6336583798557671 1.5584351004453934
Ni 0.21630093647415785 5.80792061399032 5.67749099475894 0.31234224001870076 0.20848458470108608 2.3284673846243966
Ni 3.6602245069999486 4.302379180514322 4.469984893930329 -0.7945474957115478 0.08012200226357169 1.2808022388834202
Ni 3.483377453263992 0.7835845503780426 6.408659247274824 -0.8574798735697103 1.1264936260041052 -2.436719569465281
Ni 0.811885511201787 8.316091745034791 2.413750614000286 1.2145487670718242 -0.020871444132370506 -1.8840424330041168
Ni 3.1921445787846165 1.0365530122931639 12.807613541839064 0.06591177220146067 2.5085690473074154 -1.161969964533844
Ni 7.489597292279283 8.073327438667032 11.573828579482422 -0.44216649460340623 2.188976039263572 -0.1394898026989275
Ni 6.799620298228114 6.103798978282906 5.831705334515819 0.6042897184311335 -1.9423244565744613 -2.9533164152641205
Ni 3.6689348003997178 8.891177159370942 10.86759518085708 -0.04913172452964441 1.02762956724634 -0.33848881650708157
Ni 3.9038879404283273 6.645523032307253 0.5063171796496302 -0.6278006570688801 0.3754623084076372 0.5657244565634257
Ni 7.784436040908027 5.9625236388827805 11.825287257208249 -1.7668664633110407 -2.07249915252005 0.5550330382878507
Ni 1.5343977925778143 4.983645881165723 10.078154128906053 -0.9583316521814658 -0.3925814845864271 3.4870967148207814
Ni 1.9357737319833022 9.011557160518503 7.736246576821475 1.3204237099297842 -1.6446650153789157 -1.2730732456702782
Ni 8.235123480044464 5.121867934922488 3.986409072779602 -1.7604340774221356 -0.26579910215183905 -1.2299823280180753
Ni 2.6915930514112207 2.2527628503867256 10.413272833259942 0.02848113815882837 -1.733955057295001 -1.7204955893559855
Ni 7.073413854094188 2.7236431847596183 7.030109647037014 0.9571684851112999 -0.3336422870480576 0.9542765082754856
Ni 6.127625845389371 6.835847626045648 13.476465732919074 1.6538839628740227 0.19017833019273053 1.9896736352823863
Ni 2.601324440887592 6.7372620902112725 6.872275384270446 0.4716125677786652 1.1006054453834335 -0.07499805077344504
Ni 8.092555645494697 4.532227901292528 1.4032694766930758 0.8342047050918536 0.6100888416114139 1.0579845253891134
Ni 1.9095117290876542 8.576922885776908 5.065856065408531 0.24720231298625817 0.014652716916168314 0.3097148296981827
Ni 0.01714897549997545 7.1793516268305195 4.019719857194246 -0.59135809797113 -1.07381352200157 -1.2354978585196659
Ni 2.0295732894012453 2.611439620319582 5.705715155146256 -0.08599954409027123 -2.0228591208954194 -1.2557221559863405
Ni 1.9275130021138438 4.5747678503481755 6.584476987844506 1.0557481798594268 0.7103649502253572 0.4534736920861094
Ni 0.1172508516584613 5.301281247143968 8.103003314620977 -0.8617625601054643 0.48378159904103135 -0.005066872999946113
P 6.72369089114002 3.7232476944053743 9.161092293197399 0.3769664037569895 0.2737247847568189 0.5004667730061961
Ni 4.7205013614238815 1.306871816706212 1.344142506550342 0.6550150127001428 -0.8172323389035732 -1.4178983445391902
P 2.2587944944183938 5.393722748064097 13.422729778777317 -0.21899114065936479 -0.6840039437333252 0.7389515036137984
Ni 6.020507968385974 3.687563589186966 4.8158640887003425 0.5528316597611577 0.6578190578078413 0.9793375650091714
P 5.864715473319567 8.558846685495666 10.065501725299873 -0.41514085794418176 0.3865350212820311 -1.196402949400733
P 7.095873298795959 8.858181069427516 1.6085317553167304 1.0388748011428561 0.7003407332201358 -0.7489929470102005
P 6.525302251576677 8.354239083763026 5.688127855204227 0.39624582081189175 1.2359393169324584 1.2345473216809384
Ni 7.298411035107793 2.825478690281864 11.345509311297958 -0.656478998840179 -0.28130131155249616 1.060351225849077
Ni 5.674522002277513 1.7420024845125253 9.111895057530402 0.17559426173096856 -1.6563910455665924 -1.2495188553891061
Ni 2.1118246836343335 6.261661338770119 4.319389540592451 1.171983125795472 -0.10066074564687179 0.7066818449468152
Ni 4.700729931997094 5.87332274174364 3.0303756985371417 1.3375678258092383 0.7807990357772037 0.1415546556477562
Ni 0.9413766665636442 3.2690948697227915 1.5494094681274377 -1.2640098499164298 1.4597175945678216 -1.3494602063714503
Ni 6.74895074199935 3.2170110615549246 0.2615541887533667 -1.8767739243671615 -2.3819854111471943 -1.1503519206789414
Ni 6.394619752859497 6.025780973960243 9.222092444716427 -0.012560353163513852 -1.0579305322227264 0.882074532189939
Ni 7.888444436826774 6.862306312985806 2.1961506262416677 0.7567214260027096 0.07320239232560297 -2.6234053131237207
Ni 4.882372330056364 5.734426342691409 6.720762172058183 -2.047425497380874 2.5148615651843462 -0.2280054283428331
Ni 1.465652036067809 8.869054887316905 11.829647086861574 -0.11496919184974393 0.15207946643848003 1.6819092444423551
Ni 1.6744742958971113 7.379332470563712 0.4081718414386838 0.6998514522885431 -0.5556647583345785 -0.37808380519088436
Ni 0.6704827954680734 1.3588900635259082 7.393041348466124 -1.9712835628109728 0.47311640601770133 -0.8706390366594876
Ni 4.919835957582253 3.112384515782 10.678864664469913 0.2925023224746382 -1.386814221539876 1.5735878969264319
Ni 2.394543948758451 3.536650731605805 12.161927921430376 1.3722746331628044 1.8105217381071463 1.421560880992442
Ni 0.462092303946007 1.1588530243514268 2.355355121184995 0.8420812796264531 1.0614917672114237 -0.7433231503189327
Ni 2.8601700093708375 -0.12843187129356273 1.2953779757812696 -0.6661255207910076 1.3595525576104455 -1.118685442813596
Ni 7.942064253723201 -0.02285655915354456 8.444989101900362 0.2978602443524419 -0.08367115306741074 0.6487356074493343
Ni 0.1564986844452702 4.6311974393090445 12.435935956564037 1.8932243566137008 2.239236992301653 1.114374217032752
Ni 1.1636858323022663 1.1031633420341935 13.784578781370929 -1.3134768462983055 0.4892382512802284 0.21998204381772438
Ni 3.2384027928722072 0.4302585230465714 3.62822026659527 0.8391836463636839 0.31946830954052075 0.7421491846154896
Ni 5.1784942079278675 3.886841989904048 7.550079509147766 -0.4942076794703617 -2.2111530895812437 1.7119340729392194
Ni 2.593887910823703 6.71637611786559 11.707618686102874 0.5336908251666487 -0.06020032363898018 0.27723459768229025
Ni 2.718332715557824 4.945048978907176 2.36179792852876 -0.03551541929779045 -0.3032639318665164 -1.1216175288587262
Ni 6.072366994788686 0.8814667066056197 11.578407571356772 -1.8583841090060642 -0.9407000551426316 -0.48927013295942834
Ni 8.771377844450031 4.183001331403078 10.408269565803861 -0.6225990582632827 2.1568153953706277 -2.417424982901727
P 0.07737362992921747 7.5287280512300745 8.522960276688618 -0.7063753694499899 0.5639794488478609 -0.28912157892786333
Ni 0.18350246716593066 6.993906670577371 10.969226509609312 0.7581471027056427 0.2854454156278568 -0.990294064020675
P 4.210743147585998 2.230087989826682 4.96432120549718 0.16194787459212756 0.012171859475843554 -0.504677211543118
Ni 1.1696144513582383 0.16988537515095833 9.745777762087059 -1.0570440158527148 1.5609748361481117 0.05715536616506931
P 4.560325621936945 2.9263120437677936 12.948818636937581 1.4513157436573716 -1.1812331836388303 -1.8725948532888073
P 8.201256360761061 4.23626524383801 6.068880067656714 -0.6997696912080142 0.4986618585869734 -0.19047246439438165
P 2.8353409902280546 5.267601445998194 8.683109791636285 2.5186488001409204 0.2702769354175345 -3.3926503255147376
Ni 3.323005029732545 3.1298612980228264 0.7980511301471644 -2.2967016621770253 0.08503692306668581 1.1654733497014123
Ni 5.676198499609296 4.713186588149451 12.314894722390646 1.3087753270575782 0.6369152177756385 -2.015567986550645
Ni 2.436166038939713 2.367710625543033 2.9398897989738635 0.581406900295689 0.708900964085321 0.6169166631665246
Ni 4.540413703906935 7.790477050846575 5.087308675120543 -1.17103156051548 -0.20470326328178295 -0.030502796574547464
Ni 5.150640000862369 7.17337617824014 11.580285435686507 -0.3501048034794551 -0.9777599361094064 -1.0286965750582735
Ni 6.969780094450699 1.9517987986575007 2.444539159691749 -0.4293302620706865 -1.4226140048473048 -1.073219340060997
Ni 1.1622996780838086 4.112035854962164 4.057320226960604 0.07560328845761173 0.31534117474602463 -0.12314915655737502
Ni 8.627742296515775 2.9037027445559196 3.4800647320000153 1.1374328986244284 -0.28894520125099915 0.849069538018828
Ni 9.213804553717011 8.446483900638645 13.631213929368197 -1.572614734379885 -0.5087539527156528 0.2188906105257585
Ni 1.302638426795787 3.2227991920076744 8.48696241358968 0.9016791937947439 -0.058193320511280414 0.5208895596369223
Ni 8.616896576347031 9.345704620328783 3.730537179731224 -2.3268627591414375 0.26744537950601033 0.17637639131263172
Ni 3.129599052630146 7.709508785856249 2.7940504531503967 -1.3794865775302112 -2.788737016586417 1.0626019695564668
Ni 5.099268001617495 8.454032821585113 2.166993621528957 0.47071628121664094 -0.20332977997302404 -0.9851791113916131
Ni 4.662414006944991 8.990577529104005 7.713149313861077 1.7546640077075784 -1.6121881257971333 1.791972257239733
Ni 4.829548615244861 2.915672373550441 2.8567233556384553 -1.0240523914180428 -0.026964701514301945 0.25160198471585055
Ni 2.0901238773899626 7.329974141298354 9.3308240674755 -2.3241535877403905 -0.38346126745271375 0.7520620728538273
Ni 4.181568347650213 7.104508664940676 9.293401649939891 2.671710685097328 0.036358998245008343 -1.1309480622310328
Ni 0.4993133544836653 2.4157951914725113 11.727701063638127 -0.7033260411007048 -2.3164747310388942 -1.4239139546056507
Ni 0.634946671578392 5.888223899592062 1.9506823825572295 0.39731257151350924 -0.37447680456591637 0.2861429559155137
Ni 7.199450862998159 1.6408506901926263 4.9372069050753185 2.454840190325392 0.260016691142107 1.0814268155724538
Ni 8.59170228683587 2.1817599103182856 9.399419032884714 -0.1817872779155579 -0.7775548178082932 -1.3117488078636055
Ni 5.034558950973405 4.730447954532005 0.6486546128901145 0.1455601772627235 0.157058150599994 3.3484476628555946
Ni 6.619064345367095 7.522986750311732 3.754375285925947 -0.6052191722239383 0.16313315314948032 1.0499128041245724
Ni 4.2402551201695164 5.11061948075784 10.531434987657972 -1.4918766957988696 1.6577802126046353 -0.9196226656470421
Ni 7.7710334281606395 0.7571652002467861 13.09162811188489 0.49340318129119537 1.4092679225577018 0.7641989653266775
P 8.543261816444897 0.49571965601324447 10.723936218155622 0.13412416751163997 -0.02857189810042176 0.7680414790012191
Ni 9.082560100586944 8.360720291325006 5.783219907771813 -1.2636812629324172 0.9122343436027709 3.2526691850016882
P 0.19695284603841276 1.3090728048233582 5.217397375341439 -0.23993071902550936 0.03612168542322167 -0.06843916660900472
Ni 4.401845111595556 8.712166581145366 13.258083691935854 1.5528722616456352 -1.1134414208058372 0.37021571529671726
P 3.414341353640661 1.4367394815247045 8.44768929285429 -0.12332604845487148 -0.20315725895090173 0.8620307261651864
P 8.751203681027341 3.01816349255439 -0.26937753077146037 0.2655039395089234 -1.6291422371529685 1.6556130297499874
P 6.309633513817018 4.387992935317858 2.6919948488164356 1.2932674612299662 0.8531372803302983 -0.5370348019382171
Ni 5.610131392467393 0.5647229749624902 4.059732884573271 -1.5968085580172693 -0.970101391122884 -0.37804909529820696
