# total energy = -340855.41182318266 ev
CRYSTAL
PRIMVEC
9.40574744433581 0.00000000000000 0.00000000000000

0.00000000000000 9.40574744433581 0.00000000000000

0.00000000000000 0.00000000000000 13.76626213230383

PRIMCOORD
 96 1
Ni 0.5153663051600799 2.3512205615894324 1.3975783989698336 1.772094801589516 1.2669576196908439 -0.2775184474712962
Ni 1.7827089609055693 2.25392750867224 4.9317363187150125 1.6707817670706258 3.0110711055760855 1.6514367868851108
Ni 3.773585927144018 6.476299275616232 6.584747545157534 2.080154355072463 0.8332230579048746 -2.621247129130137
Ni 0.9274998278092695 4.714819086987742 3.332027463780778 1.4296192325205443 -0.3404022314797105 0.08019913535841026
Ni 2.5550148942998745 5.32210117917631 7.979077198914917 0.0636492014195291 -1.1782072523283127 0.7638948038226973
Ni 6.323643992471798 1.032421882584654 4.026177278274259 0.6146769752027285 -0.5910660206520078 -0.9938205891166949
Ni 0.8664160813320727 1.1962323823531988 3.3205326996692057 -0.692811000501994 -1.7156937970919677 -2.3680598022050376
Ni 7.381376741781139 6.692923048019159 2.8853400462648158 -2.7011927537168448 3.2646883209497513 1.5907253279376667
Ni 8.334705693006484 2.6174408409560432 11.541840818760353 -0.6843759823607634 -0.0031683704256526076 -1.2391187431017048
Ni 7.451948065837374 5.248134380245451 7.984651985502699 -1.9106507796202643 -1.1593160718507647 -0.12023686800658649
Ni 2.9326086307036547 2.9022750947738456 7.584219212836977 -1.6654636972918222 -1.5375970806541195 -0.7030756156527956
Ni 7.1907974844137605 1.4516736749987056 6.392157338958593 1.2788556566800102 -0.5083600597113439 -1.2621458001244974
Ni 8.86711803449698 3.023204791347352 3.9432769002965373 -1.3527694732503412 0.5109090513854426 -0.2207847422246778
Ni 8.713945435235914 6.02803075193289 13.343761959662892 1.8682869699420728 0.5633934944374039 -0.08454198570813827
Ni 5.675475115574119 7.004601305416395 4.785262492876955 0.514800673130365 -0.5264577977533191 -0.9436707077351811
Ni 3.409545872996007 8.28551363318853 4.706203422208918 0.5889160641885406 -1.1572923565525164 -1.2928583987170057
Ni 1.5211069035983495 4.473477009957362 0.9075624646742566 -0.1442687121448096 -1.6112818119327799 0.19132195687887052
Ni 3.570393562278385 7.465830949258272 8.619290694513547 0.6222954109799347 1.4475274802595328 0.6124557991816936
Ni 5.73911440366748 6.288965001162275 12.026399538312836 -1.0992661577467195 1.3836016281398493 0.48454624512119776
Ni 4.687730533971354 7.15582691492941 2.451550730398636 0.4685521836857866 -1.2453513542749777 1.8593148483504496
Ni 0.355398993850735 3.978123313912896 12.708861770869456 0.5209196415439094 0.13874649677499976 -1.0230553176120962
Ni 3.8961240065528724 2.1093329511996948 11.908380920613835 0.10512263807296736 1.0041659369067608 -1.5848390443602192
Ni 2.9214534140795454 0.349185557002601 8.00263107199257 -0.39872590692126814 0.14383830947561035 -0.14799681172867415
Ni 1.2756921378679364 6.819580844865921 4.696883266936718 0.10388593745238882 -0.2156926724137511 0.2801761968091175
P 1.7635212358522945 7.558581026096675 9.661630937916179 0.0927142371062855 0.22206412315773366 -0.16299817023351282
P 1.6118723676983986 5.721704364905905 12.61709647580217 -0.4828745138457296 1.2684858834099122 1.07314143563521
P 6.215506112600473 1.1139414968183459 13.386258067782107 -0.8209678946866055 -0.31318093386991225 -0.42134801519615817
P 0.1400290075995745 0.4192950588528972 0.6887753703290497 2.048724675808272 -2.486588429271266 -0.20555661242101372
P 6.059163776406587 6.533420380640025 6.7738961883187345 0.38322806839598517 0.23271440378272826 0.5593008124252691
P 4.55964306349317 0.9013499684008802 2.368691737710245 -0.17042583015615165 -0.3859745207928707 -0.16614134384818482
P 2.366429655418425 7.166558872912638 2.852424632625632 -0.07773421875768548 -0.6551096292964782 1.0787685520140002
P 0.6350544430536682 5.321574457312103 6.313428410030443 -1.1098110231421014 0.387988465899106 0.5626530167269536
Ni 4.110302284586264 8.291251139209363 0.7035235825268608 1.012783760482759 0.16990929553104933 0.12445270586014695
Ni 9.260118385428832 8.061036061560369 8.920675301764556 1.2460913177647959 1.262877021863567 -0.17648103521129607
Ni 4.510338134704315 3.714019327750691 9.01160160414814 0.5177353302786567 -0.9255572859639221 1.8986308723412526
Ni 1.410702238561419 9.210888702620577 5.063781727772812 -1.580476396516149 0.2073720683631977 1.313269872493822
Ni 6.944761939343389 5.535865604316395 1.0479225545884758 0.045837627159404926 -0.304520687091753 -0.10933281949957299
Ni 6.212317564172503 8.93267609509567 11.807969862375485 -1.3777109736870272 0.18015925539383165 -0.39176181689860917
Ni 5.072435015541936 8.823117947340501 6.17224155490437 1.0232224393175797 -0.22638563335122303 0.5643368321872797
Ni 5.917983505303815 3.330885606025156 2.884665654163679 -2.1270363643359818 -1.6546943745904599 -0.7658555270934939
Ni 0.1183308885184964 6.542797910972435 10.932573173258673 3.0775819448141255 -1.282609724405804 1.3912041230774557
Ni 9.255368482903389 0.3112089105932374 12.04583745625161 0.03574013371408683 -1.169289895234025 -0.7557204955420211
Ni 2.6171680742763646 6.344797518768275 0.8926731662628185 1.1550464979411332 1.2952932334107434 -0.30706170834605184
Ni -0.032481808675969975 8.128588140644984 3.004431859762141 0.3505948557419962 0.4727235414546568 -0.13370224948287296
Ni 2.5761590148487774 0.13581147038688413 11.011977434862718 -0.8951406213452777 -1.346309062336978 -0.026937704931108447
Ni 7.514957168843201 8.923985184336246 7.737836703958348 -1.6272301077319202 0.8001877247164606 0.30460579060639154
Ni 2.1984430037265206 8.971296094639174 1.8555687033468347 -0.29038347635942247 1.6793659091952111 0.45690251526200026
Ni 0.9902182932150249 3.4092354833260274 8.888145523775952 2.374480618129717 -1.179971286207271 -1.7753634450384588
Ni 1.5101680191684679 8.286256687246967 13.440745563484864 -0.17454807985464132 -0.32822677245944115 -0.6850339276597364
Ni 7.717331233669797 7.525839618787631 10.462345991286423 -3.990282686530354 0.742689887610308 -1.1412404452959763
Ni 6.394582140683463 3.729623462977839 5.169851283752363 2.594350818959926 1.744688127441789 -0.12810855744517938
Ni 1.186732577302313 2.291522281730053 11.350310640313127 1.4610913349868966 -0.5320730870575675 -0.7766670158867012
Ni 0.5301784764414019 1.1341544483573103 8.289946562020692 -0.2105332396999987 -0.32954574838118084 -0.1989203380514187
Ni 8.406405706771736 6.966809011659504 6.961667830034935 0.4835895376348834 0.725252408860151 -1.8541358752526713
Ni 8.751474368060702 3.3169368823712317 7.095283058363025 0.5394871201334516 0.3919968157275507 -2.425849973740629
Ni 6.753919321043907 4.290525813873418 10.069855431873144 -0.8972941773531706 0.606883961520871 -1.0348841919262242
P 3.7221929223934827 8.476121107798635 12.521048743863924 -0.40901366200052147 0.5212433434319151 -1.6696350550606922
P 2.780875110821583 4.653916871438745 5.7511594040121965 -0.1231257595186073 -0.8986874581562716 0.14212929720430362
P 2.7971282426314157 1.980116791012495 9.866170205834573 -0.41327526549035276 1.1297201033612028 -2.0878491526135594
P 2.232858634103938 2.5620597992336505 13.265541881678557 -0.5145859860163976 0.8844456035252768 0.6952818306399896
P 8.041641410060441 7.770520736207184 12.508081039682088 1.564864401010505 0.7251127979584931 -1.536466309483786
P 6.336492243659431 2.9408104425891723 7.6428358317252165 1.6812831808225819 1.5630851976228952 0.9403740392617805
P 9.211048600329354 1.4043627646957781 5.257046326072891 -1.6075835371455862 -1.3036153801231936 1.5207051899947877
P 5.553322671815845 7.960601488953079 9.953875039673674 -0.08256403604616103 0.6392358954890152 -0.7379567438006969
Ni 4.835156221464015 5.9449027548638504 9.82582142988676 0.3275307748336811 -0.8922234476984827 -0.06638151274902761
Ni 8.247815396907392 1.8198522580797758 13.573755061669114 -1.1182383279738484 -0.12389169115035438 0.0006656586084569182
Ni 8.049598672509005 0.9972726038963758 2.0483790040390346 0.3716784158851728 1.257194369656493 0.6417031260825852
Ni 3.475207396818022 4.6710541435206405 12.504281117661732 1.4022004741879592 -1.1833288898255943 0.9243349835210468
Ni 3.069377606193688 6.675033316131252 11.319846364492024 -0.42766110189837964 2.010065054454545 -0.38983477507922537
Ni 1.6525710374560063 7.633573051513224 7.091387197717405 -0.4958233606969138 -0.1622597494055915 0.2104422226480892
Ni 4.189169478003768 5.124759189302409 4.156998058997777 0.028424573889280075 -0.2519136024189984 -0.004374474918611821
Ni 9.093542595873197 5.933249033618258 1.833239458603465 2.068657667286773 -0.3944185377951659 0.07777689907016283
Ni 3.9361642739802205 4.357259592918998 1.4279881214550014 0.43892073397259895 -0.2557170353254886 0.37681676555300264
Ni 6.3133635103721755 1.7506447674219354 10.863329000185288 1.871402632752919 0.26059056136770603 0.3517109716243104
Ni 6.086863703015358 3.2413617006050246 0.2756401355631083 -1.197906530529453 -0.4569385107062582 -0.38063202553403475
Ni 4.716154703143411 4.061335962710112 6.793953004447952 0.38218060096807727 2.154129621008348 -1.1006933771115495
Ni 8.423439515630305 5.761490677148726 4.727995598765748 0.32178333082694255 -0.6209101005966339 0.8005785323969761
Ni 8.247533224480136 3.867784489108992 0.6741108692846574 1.3595268465788328 -0.12379373211990938 1.60832710017983
Ni 7.247880966447253 4.682397475096253 12.20880237931315 1.1272546725398456 -0.6634831980721542 1.5435766952763221
Ni 4.67066850787006 0.8808774182288421 9.855679975564025 -1.1172093724887018 -2.187770706101561 -1.3710831839578645
Ni 6.717086413539679 8.230414763893393 0.17125138667523396 -1.5234619268043181 -0.019681794699643523 3.292053600336582
Ni 7.6290771041723096 8.555863035740625 5.122054096299801 0.22979080237803004 0.17688546973856634 -0.3720175443921464
Ni 5.058251148198633 1.281185094451815 7.469436172303821 -0.6690213542815638 0.33920615428908035 1.0922768709130803
Ni 8.310335401039312 2.900892449880301 9.24250330137012 -2.174903620330906 -1.9904488228855137 -0.24011275312932842
Ni 2.361331740232702 4.645197743436595 10.268750310671699 0.3866741179630567 -0.14759983340057162 1.0476196372150215
Ni 4.948439045258937 2.172915804807605 5.27856291422577 -2.7109853143272344 -0.9112182436334306 0.024521382180131963
Ni 0.29248959176920447 5.785635231174096 8.520352576345463 0.2609836830410667 -0.5536698393917369 0.3463065127792875
Ni 3.808547090880794 1.114440001439828 0.15114848238289866 0.791459086594211 0.17429122664882887 1.6912197232100035
P 7.489288883710659 4.506444155208209 3.080627820868306 1.9162416434444804 1.3986441242952685 0.4640442685131041
P 6.737355799564094 8.958052802053382 2.4656066795749174 -1.4918425001268243 -2.9472624957605564 0.9981786089750745
P 5.536533412394229 3.55402756149765 11.641040416711025 -1.2967695608459537 1.1587892528130173 0.7812188969234417
P 5.167113270633242 6.041819577878037 0.48091869524090675 -4.072012399600677 0.893299454371481 -1.1276436804481482
P 8.279089507594714 0.5985168760233002 9.64487742033535 -0.13550870656399244 0.11273875985732842 0.24786128672649568
P 3.2133137613359732 0.902970578708076 5.77025307158972 0.7183243142817499 -0.9742465236395093 1.3976012848530512
P 9.411202908728221 4.464231160091005 10.324435158040767 -1.0431726571872615 -0.06126733145091384 1.7394410201102366
P 2.3106441665503015 2.9971414648166537 2.713495156917591 -0.28745498985871787 0.6768192530594279 -0.1873521735978451
