# total energy = -381163.8533275282 ev
CRYSTAL
PRIMVEC
9.25536442947726 0.00000000000000 0.00000000000000

0.00000000000000 9.25536442947726 0.00000000000000

0.00000000000000 0.00000000000000 13.54616138912304

PRIMCOORD
 96 1
Ni 6.899355866154552 4.078006112043772 4.097876453892452 -0.06355689881603893 1.484640068841114 -1.8559261343838749
Ni 8.534019817260853 4.480651485272596 10.69362397367169 -1.1645703782711687 -0.6352877094745446 -1.6093483423554928
Ni 9.414279015427619 4.751518980052726 3.7724161921485893 0.12805070762405046 1.1303623649308918 0.7666967920478667
Ni 3.792487375404934 0.9801338354992474 13.013133060968752 2.391760231145771 1.1103887500224427 -0.012639800251197585
Ni 8.133780838778247 7.247394589373031 4.046753523045478 -1.7486160017412855 -0.3953017117310676 0.8672675490840934
Ni 7.490199819266489 5.354542992726292 8.476347790558401 2.74823108605257 0.25217354094860445 -0.43028876932921384
Ni 4.561691456033712 2.8091511838203345 3.282275231483697 0.7545552715893263 -1.4529751336376653 -1.4516402168763258
Ni 9.167993768516554 6.598260351216154 10.019919519619478 0.2413646232585585 -0.4290222439119643 -0.1728555226435668
Ni 4.290694386151863 8.520886455165144 9.85873364629911 -1.6881660239853442 1.0484732434645687 -0.5764773242045557
Ni 1.552457804429709 3.730781860893244 6.503539100786345 0.09562061211980305 -0.6002793117201598 -1.1126243242211806
Ni 7.07471725560303 3.6557393662688575 1.271564898922256 1.5555027572899467 -0.3190913858170763 0.20950608398706497
Ni 7.678851912005619 1.3202036899619793 10.913152887614125 0.8135901141652956 1.1804986194656506 -0.3909886861780105
Ni 2.2463232187730275 6.928954521533042 8.992958167895257 0.8298328012764031 -0.33768380410728294 1.018098487827453
Ni 3.875304376132488 3.2300111142051517 7.252980201793581 0.5950008369300397 0.23652400733680554 -1.0355845604273584
Ni 0.6973121120490562 1.9817216056974745 10.460346215900376 -1.9082802225055584 0.5611532922529755 2.074362945201666
Ni 2.426765803281789 0.7449726110707975 10.995433077205986 3.456357633865712 1.0454205726811736 1.0465413165491784
Ni 5.294845892291254 1.0822852924762272 7.307639607381055 -1.4216344145428548 0.7236917492412505 -1.2581629042173492
Ni 0.5828880418663615 6.397983520779906 5.5520978204899905 -2.740216957498842 -1.2945756385184284 2.914195795113575
Ni 8.558296638104435 3.318298035298149 6.139106350591031 -0.07335357319148657 1.1187083256317314 -0.8157886644785113
Ni 6.916404247395071 6.097452583070427 5.985818079720464 0.6608709572602877 0.5297115288039265 -1.4335267951050665
Ni 1.0709289603469572 8.60216706540088 10.289081250739116 -1.5726093350632464 -0.9471869484185558 -1.1314612544220255
Ni 6.280764330545834 0.5290551403205694 9.115957333202457 0.5730441301532905 0.31937652115766285 0.9169083520396726
Ni 3.4257805821744443 7.874991594551253 12.635128244404765 -0.5058354935172772 -0.49190448525848185 0.23529167759160124
Ni 5.678397448745274 8.650378258604931 11.830377085692135 -1.5036433494164942 0.20025268370959706 -0.2855780845509791
P 5.792664177733023 7.228124920674467 9.098861749603456 1.522161977045972 -0.4429403966549532 0.8136927011814309
Ni 4.152382220430744 6.3550571406531295 10.818885150040334 1.5822571425656555 -0.32626450652674777 -0.7193113607853676
P 2.7008819309693144 0.4723660333183041 3.7839169079626327 -0.8711121196411642 0.9511665018915941 1.8732569123528382
Ni 8.521376989478796 0.6891896042441275 3.3027980765231786 -1.2524949072982945 -2.161410470940478 0.9447698543366309
P 8.620029918709351 0.33946270255753214 12.546684907653262 -0.38535462782068475 -0.10376355294191163 0.24714780559923885
P 5.152405834043929 1.7373429638545663 1.4233630561230486 1.0218407284787048 0.5603302821310479 -1.1130215596595994
P 7.620598648418312 5.643958237781122 13.410130810835488 0.07866033011638066 -0.3745428819171614 -0.8032923317837134
Ni 6.234330167308224 3.879571099124822 6.117067476861432 -1.0117571189904575 -1.6971669419323738 2.234797725583377
Ni 2.054366960940051 7.482203184417516 1.2516112587938995 -0.3003814681123988 -0.702140762543352 -1.1292992137737003
Ni 7.500473273759961 1.4914094207910247 6.953068447963034 -0.3477746126843817 -1.0967662741430015 -0.36748674640132845
Ni 9.008403520020217 0.5219599779649879 8.518313463859572 0.07260538217155238 -1.0098339338258155 2.3479925991415174
Ni 5.149916141018033 9.009652994215369 3.3600850800662347 2.4517438107882548 1.993846021492521 0.7763111752091791
Ni 0.8821574734069568 8.316713116312904 4.5328572937553675 1.9269754849222167 1.7955861998432365 -0.6253066870024329
Ni 0.7438267969570209 1.847491055680519 4.776173419764177 -0.1810023201204173 0.38688623397386274 -0.45292707555401995
Ni 2.330565545619496 7.953106870159273 6.661866917577357 -0.9937917927612885 0.12407346814385728 1.719135475783665
Ni 2.4716820867564 1.2173951021119938 6.219205050791799 -0.6803437212729186 -0.23980087831586444 1.4606619607589617
Ni 2.8024688107173734 5.487838750937986 7.100667446331674 0.5118040523958862 1.1098501039101532 -0.3439755506532656
Ni 8.31641694465183 3.354708638881318 12.61033867637295 -1.4237915700951735 -1.4494558076304973 1.1682234016427233
Ni 6.446805568034917 8.725837244627701 5.588211326875646 -0.15505731811988135 -0.09922324186939685 -0.6275304341266289
Ni 7.512440459940194 1.3518848023323882 1.2759362075324066 -0.19841280228738084 -0.6349177277296355 -0.2210040573243355
Ni 2.5555079222044843 2.847375838827576 0.9751340876457578 2.5048363197378603 -1.7213815915053647 -0.7837653174943792
Ni 1.2246420524438748 1.2963341051523725 2.358724991832458 0.6512326628395753 0.34384930948804654 -0.30277233694207856
Ni 4.0918336264701205 4.98917822733504 2.6754620726212774 0.9942877585611006 1.2789811265142812 -0.18051998116736007
Ni 3.9107894432748043 2.074460357070976 9.28272419126117 1.1551488278469524 -0.7534347848316378 -1.0222333359314328
Ni 0.37702097132735946 7.4397210617823495 7.6969156067217535 -0.36852958584354595 -0.7316161462946497 0.6295567205280385
Ni 3.2212647948390876 4.847237958765776 12.83081533963082 -0.7647926330466184 0.9541839485616793 0.04188429893861174
Ni 3.612452026930148 3.0085487546377716 11.387011811211526 0.19569386069432104 -0.0016953854245519188 1.0034691679500525
Ni 6.578111422898777 1.6700842306977564 4.718208923546416 1.523371423973041 0.7436016007913 -0.6611617490278291
Ni 4.455884130115361 1.5213227585594036 5.309268526649071 -0.5272358135699243 0.4702853643268094 -1.7679177873936907
Ni 6.358407582569018 1.7926160001023261 12.76756880694511 -1.57365243161578 0.4597155592307631 0.4681842588234066
Ni 1.7922365301615764 2.63345660125315 8.705548560307756 -0.09268621208182748 0.7654809173628946 -2.0389940787840692
Ni 3.4095744390951026 7.5681022214931115 3.07118535880896 -0.1359931023995787 -1.805019834452311 -0.47827121074576345
P 0.3972300595133916 7.287451806533163 2.70366501904696 1.1674908943520732 0.0036926183602388023 -1.5535649168372856
Ni 3.7711259943500397 8.375965959256334 5.137476931252966 1.0842252042531972 1.5214006733999155 -0.04229670388568199
P 6.156770213564716 3.8544705508488804 11.800765472803471 0.044982221137645106 -0.06479025700250778 1.2345324092826029
Ni 4.229562704233501 4.337063761838614 4.903859501607859 -0.6226772197993857 1.0162354664767854 1.7136572262779133
P 4.41096784664075 6.522495938167902 5.881567506095629 0.18830373887783697 -2.476224826648755 -1.1674006486311121
P 0.3083600504626567 4.561210177084468 8.07823939696264 0.3318366012978866 0.49153938860957924 0.10766263088600167
P 4.964318318533719 1.220773310121108 10.867719229269078 0.49336435763346 -0.5215657597683404 1.9432086589516278
Ni 9.380311828048304 8.732778767934102 0.8852848610406001 -3.5163831224897244 0.11828668625875113 3.741399900517879
Ni 8.731492272281315 5.605770604231515 1.609432902192198 0.9635175672577794 0.6414023070127147 0.8068533096620943
Ni 0.5112441170527883 3.583593800704342 1.2006734352350967 -2.339485333001455 -1.521799965720863 -0.5079052315621124
Ni 8.482504458962957 2.9121819004161247 3.008060996933442 0.16550499581576658 -1.0501187494877913 0.17740431835651382
Ni 0.45997680252104167 7.608927633899152 12.56909029381344 1.1024388990477465 -1.5980036067666348 -2.1546039895416054
Ni 7.1368762829707375 8.306856153217817 2.061319590683741 2.659969228290683 -1.2447312041924756 1.7549123762729582
Ni 2.10831648007739 3.4688920695893914 3.5991067169894846 0.6656295549911956 -0.1331062677700869 0.04091679281901985
Ni 6.648044956369653 6.152651576402919 10.920711743726576 1.6131756865213829 1.3420438593027209 -0.5129037132179683
Ni 3.5601407072931193 4.539006557868397 9.375663784042338 0.1982819331364714 0.10831594819928442 -1.0165632821298494
Ni 4.773121000582242 7.974588570951478 7.326319709366798 0.2134388433825679 1.025568056731621 1.1710135627933511
Ni 0.25568129285860874 9.513959290107522 6.44267582443583 -0.33230685606608573 -0.2728403252693365 -1.1023373404728756
Ni 2.162876853265693 4.908323363862094 1.6714336628285205 -0.5932506870081525 2.864684318647008 -0.13320139858705446
Ni 5.538909851744272 6.127745390779556 12.856106548413578 -0.9908591924955258 0.4365594328292739 1.5353329672102913
Ni 8.525217965708338 2.745900023452419 8.634661724302802 -1.1428964928421608 1.1806932519749602 0.7418522222003612
Ni 7.412454758234811 7.799375267333537 7.552526368729993 -0.844138676376114 0.8689256535128067 1.0686738867821595
Ni 6.389098370947714 5.7432035103338235 1.9911500454204474 -0.6347027835053521 0.6472749637434079 -0.9920311013164398
Ni 1.727995045801948 0.36004940961143234 13.425370693870578 0.5643897969124021 1.7611750693532182 -1.0980420555316315
Ni 0.725307738311987 4.803959874791475 12.537433245390494 0.5801594010418331 1.9071448233495352 1.3897486215778518
Ni 3.5481735211128855 0.3398088531864113 1.9081664481335394 -1.7675336645813944 1.3699850657976793 -2.4226530640698862
Ni 5.443477789327886 8.66432609276859 0.9455437620952366 -1.2238412481173437 1.2461247421058925 -2.705170764527986
Ni 5.107128591357386 4.119988445000878 0.47757125026166314 -1.3610998474929075 -1.4224581959957308 -0.33149670145996457
Ni 5.880108860664844 4.407848788835075 9.764574196488898 -1.1685609874878005 -1.1960201121400178 0.4896442284693954
Ni 7.5390126111570925 8.394050941310606 10.3775514280474 1.2466371629659367 -1.9439259967336266 -0.10603897923964964
Ni 2.2565596518088653 5.995819426500325 4.408435578938576 2.5008158857245575 -1.0003177668052643 -1.208223596184745
Ni 5.766841711033217 6.838835038287155 3.876789862120058 -0.7537782842139856 -0.4767570880940821 1.4446337036515056
P 2.1701515696908 6.334917467700162 11.292323880093589 -2.3333810198759295 0.5341556806182092 0.6260425367271929
Ni 7.265544358978165 7.866800597049701 13.100221412370843 1.8750356015198157 -0.6241576609996541 0.7986900571250116
P 4.274525264530156 6.922929279303086 1.0892795713597558 -0.7103847477196992 -1.5515831105205666 0.13274271378308106
Ni 1.6535448944997078 4.306965316782064 10.522048953802742 -0.34117587642094144 -0.1490550777898594 -0.860336369181899
P 6.17586403033952 3.078241648634026 8.171206755837032 -0.0998495625994861 -0.8651093650905102 -0.9458710578206098
P 2.392909680275375 0.5147213574610742 8.515591461187023 -0.4804170534441726 -1.0803526086716684 -0.06552019318999683
P 1.3918031890263916 2.6036635832220822 12.661312595852946 0.5424307761428077 0.17264443507402524 -0.6096157586297372
Ni 5.407354102041381 5.621115998420862 7.663144633067898 -2.326660413322645 -0.6894634241859997 0.05058311226419031
