# total energy = -340884.0181480289 ev
CRYSTAL
PRIMVEC
9.14824571438753 0.00000000000000 0.00000000000000
0.00000000000000 9.14824571438753 0.00000000000000
0.00000000000000 0.00000000000000 13.38938232185214
PRIMCOORD
 96 1
Ni 0.2867856103559169 7.458994696649805 11.396881763700508 0.7144316640955632 0.2665519211574635 0.1371189884739058
Ni 5.175491936198789 5.172454718622361 11.747951181851006 -1.674037297893446 2.46061154559153 -0.3389657561435001
Ni 2.2336448213198956 2.6531650731868517 8.124476512382287 0.44518728370760097 0.8255187472820815 -0.2541746305390332
Ni 2.29862481061317 2.4299936190393883 12.88962388716339 0.7084312235377541 0.45272832927965256 -1.3194335781023727
Ni 3.8652801853072236 7.2901729702781175 8.130889432626493 -0.6020538871220793 -0.20519100155147887 0.4286671745653908
Ni 8.265824227231299 4.826577844738068 5.767743874654797 0.823034290297331 0.20923200439007195 -0.8980341408429889
Ni 5.08861104667067 5.602038040772662 7.103857053631121 0.3992637817026092 -0.3043062570881017 -0.04645623458001031
Ni 2.9606376115716126 6.649740880954595 12.767231337429918 0.6516471246691744 1.3118434244599406 -0.3024211242502469
Ni 1.743856894138053 8.046119958208735 9.068053105044163 -2.4029558427512745 1.1993527760576763 -0.061125149446094734
Ni 5.4769266324135435 0.618018887328799 1.3317979514739122 -0.17493683065262777 0.1482176694902286 0.11304523535415371
Ni 2.3910769817799777 1.2325980342698362 5.99876452362327 1.651939180442826 0.8774776568478758 -0.05013136943875238
Ni 3.3465197639550586 4.68336205811464 0.5305104281448277 0.8691495965981548 -1.0174716528767316 0.07700993899715125
Ni 0.2549423966811273 1.1776719670141949 7.133434246843016 0.21241323033153092 -0.33160160246894504 0.4920101575984107
Ni 8.114045682621315 5.05325307699328 1.6108368273607956 0.5482867207029526 0.11005169994346853 -0.5082962963529439
Ni 5.775360704034718 0.433800663423594 5.838172559094217 1.7708071931263438 1.9235512897320164 -0.5236272702830594
Ni 1.433283100456879 8.656509208613613 0.29002774863629643 -0.6559845757022638 0.24828397608621114 -0.6138051141207365
Ni 6.394550566814669 1.6187454857789338 3.7649065481782813 -0.8652587461841809 0.7264865383775682 -0.11643909152705106
Ni 4.413369882412485 3.024592997345129 7.018700608419739 0.4370921654042924 0.6578290851101704 -0.48648280002227834
Ni 3.593449212216929 0.7645051717943149 3.7129426828842282 0.3868877766357595 -1.767468101450782 -0.2561988600579136
Ni 7.463943897580068 5.870072491892422 12.814562531095346 0.23368242412295237 -0.9240431633122409 -1.2528587183956164
Ni 5.787573612060414 4.139544591756946 0.4929422423033859 0.4514497196775451 -0.06978231090046047 0.9519278055376509
Ni 0.9497891663249831 5.27293904952442 12.644289892953715 -0.450987692439462 -0.11231632760792915 0.5878020051887555
Ni 5.548429320899568 8.196242670344821 3.0921838959646455 -0.5448406711358811 -0.5450371034174033 1.427409369353419
Ni 6.0883038933553335 1.8673307665147005 12.771087322997579 1.8633034006845521 0.36998894399789184 -1.1510258068175143
P 5.269435271416674 6.229488769430669 9.471408406737782 0.5753930900014413 -0.29786590077939673 -0.05277189238539299
P 2.839569727817256 4.441820926577216 11.835437685245267 -0.34519682465487644 0.3604108133911535 -1.5628224308798115
P 0.5792632591939223 1.778537893632746 0.586838921468139 -1.2501757722468148 -0.07260486795092011 -0.17697288724605006
P 6.692673598081631 4.017982702734133 7.193445823890031 -0.9116758999961395 -2.2178616119496706 -1.2131459731870269
P 4.287855951242031 2.2217246571569875 0.4293692532006372 -0.7562398583806008 0.6321954437024662 0.761078931640457
P 2.653476113541064 8.625716213546577 11.09080067348856 -0.32953314997569055 -0.6372669446881025 1.3086513998852043
P 2.946192531592156 4.752797243069723 2.573426219086194 -0.9499277443884866 0.0786598158957484 2.4491912195697303
P 7.339006305889479 0.3165814466403313 11.373303075202058 1.5139478166662959 -1.155945612716635 1.3292711330180846
Ni 8.529257110757856 3.34871534292597 12.698128233794183 0.4086781330379736 0.18105271374237852 0.874172760844359
Ni 1.892918409771534 6.493388213488545 1.7215534710918747 -1.4206447969360758 0.227291432994944 -0.5512504313169667
Ni 4.646165291049111 3.145432174956682 2.9170242649635942 -0.6875690353767642 0.7303169678672519 -1.7617869919056046
Ni 1.329651773029846 3.752271906025255 6.00478955824928 -0.3760348930816556 -1.2324158771602323 0.4268679165731229
Ni 0.8506990280694526 3.5670107821088672 1.9341769979332502 -0.1888279868124232 -0.04307214859912582 -2.7463477529869285
Ni 7.734411782059255 2.5500917887482584 1.4374309150627596 -0.8257519463388102 -0.3531268781352306 0.6896277176780058
Ni 1.4313894135944676 8.474989717193488 4.899630246047729 1.2294493383327407 0.5231372180205184 0.24989760043023412
Ni 2.4052750591252066 1.4744319096700493 1.7488673883145878 0.9742172130634705 -0.6273504569053389 -1.3934571807776905
Ni 2.469815932624299 1.4144834555184473 10.281599917618482 0.24262369247664023 0.4302856840054202 0.5584505486098318
Ni 0.9147230256858094 3.5052326788148394 10.926365530935842 2.4971168396064156 -1.7092272155310178 -0.19820068627657478
Ni 7.052044134391318 7.0043451812482616 5.999460705121963 -0.2688551153693435 0.48690831759547115 -1.1579955532671284
Ni 6.416341688100969 1.9763595589118914 8.139686385703278 -0.2611022108968019 0.24966311582192485 -0.14884321888936947
Ni 8.505599747346283 4.884266682198774 10.425548478723455 -2.383760500769746 1.6492652331550883 0.6887720545459298
Ni 3.450151091382091 4.561324460314798 5.254970980121222 -0.11875616969600193 0.07710635536569947 -0.3571753371729913
Ni 3.6500951496664515 4.5316566994703535 9.664416265123203 0.11434004290617727 -0.13712335934928 -0.31646243283466147
Ni 8.302838029382585 0.1826657666078561 4.806828611894718 -1.4054845442558699 0.10943746339823733 1.5952556117078527
Ni 0.2797780541404236 1.1943217742102752 11.785481859885028 0.08515442248115657 -0.9706112408797671 -0.21690211934082002
Ni 7.07384440392333 7.421614964670033 1.2995330036717934 0.36735562014010276 -1.1952521236257416 2.4110630452394415
Ni 7.291627541346347 6.052570845603746 3.6130575620763135 0.5114042458543062 0.227351339698602 1.1245483293522762
Ni 7.928208219225062 0.306677555832377 0.4559897333983705 1.242734228367105 0.3698081954456534 -1.5747245816340363
Ni 4.07340277525823 0.63751196929221 7.768894264621995 0.20478065348693766 -0.002231460433680028 1.0200985489766172
Ni 4.081782568330543 8.398958647079958 5.879759569276999 -2.9751404531177474 -1.9308071999634813 -1.1726559834927806
Ni 2.1537348950244213 2.77561434204374 3.573786887707844 1.4218077068959256 -0.1489874577767176 2.745776968085123
Ni 7.7275505977751555 2.3813706930794054 10.381296584564728 0.9099121232274975 0.3003231040706376 -0.03293557438575618
P 6.65816641525547 3.9740985680530354 2.865997180030463 0.35745867274136506 0.3771798053193762 -0.025936260249787593
P 4.216581968898811 2.301973068543811 9.140744150648192 0.406409648718771 0.12638437566522107 -0.349076876435573
P 0.05339922504628652 6.911115409195923 4.95184843257258 -1.8323169796053669 -2.6973438122844 1.309362824129932
P 5.117190166275371 6.461799321044554 0.37869071642913876 -0.6855394065412452 -0.49935271400641096 0.6167027473835056
P 9.08752880534072 7.018808557719142 0.35167228754292773 0.1876167401131414 -0.2058569172702519 -0.0659516243004606
P 2.321586907350622 8.440473386121614 7.113551449612268 -1.22382556438806 0.6331336392460193 -1.3103035907766465
P 1.7632877680306216 8.681474771162023 2.582530553218908 2.8754323011921317 -1.5933424538455399 0.2732617290774713
P 5.119157039103479 6.843070757589084 4.956589053500606 0.350358571361474 -1.7692223651377272 -1.0751142430908645
Ni 7.66402517955011 5.648355608813187 7.928054528697098 0.03709176264597483 1.8310638239245562 1.111027669158022
Ni 6.184845330355465 7.941701881650457 8.084066881422658 -0.21947373672273812 0.30217455545707955 0.14299395919744406
Ni 8.961712982061766 7.82307657950124 3.1187888241446684 -0.401756723327792 -2.093107572799021 -2.158076007250606
Ni 1.0279426294437282 4.796288003185199 3.803093155429863 -0.3930064879389877 2.6486499466231224 1.2329064436434056
Ni 2.9944678242150773 6.785656367499742 3.946332727492143 0.4773363576363199 -0.08758308652730723 0.016796502732048493
Ni 1.4988943187042905 6.04850902450756 6.457753051966077 0.39005897527488953 0.5647227547717887 -0.41130605757912386
Ni 5.0603246709287575 5.773329793486624 2.843342464348939 -0.7366048577584927 -0.5030648727506756 -0.8130630380172319
Ni 8.001659484047773 0.21554730617097265 9.156222067568548 1.213830400848561 -0.03574347614819651 0.47347713179122974
Ni 5.857731508426755 4.3866112637044985 5.059834324958587 0.4593499483612282 -0.2767234623738266 -0.37134828623926364
Ni 4.564087230519862 2.9095812522522033 11.139792273750743 -0.46755922364489794 -0.45684055167581317 1.4900170168823113
Ni 3.598499043850026 8.180763838599894 1.2219366687169175 0.983297320987868 -0.06123956353677195 0.8726074732397682
Ni 5.763550318820355 1.0355356733847978 10.289365863403512 -1.2180601226591925 0.33348853507901277 -0.8234510661197754
Ni 8.468503610983586 3.00516212345256 3.807980148289284 0.0699381197520344 1.3329231279483755 -0.981670326907406
Ni 9.093356237859348 7.742590313725901 7.072580116365913 0.10692318161681585 0.7806730517223006 1.0344800145092699
Ni 7.497920482154927 2.4057050266736772 5.803052443805342 -0.3149873909510317 -0.19029300139372388 1.6803634972217898
Ni 6.29230977273588 7.90657261811587 12.684016149958648 -1.3857469566176261 1.7067293888098283 -2.0193670485817607
Ni 0.1751889053873305 0.8796825001346297 2.7838935044132196 0.36320303142430993 3.1408465092007263 -0.8290534999082172
Ni 4.134723466266652 0.3539639230938168 12.474418862798846 -0.4854908684226542 -0.09186140218768694 -0.2519233726110113
Ni 4.920082064161772 8.103891129880848 10.416002284322843 -1.6656953536866537 -0.5191741196077123 0.6865305668099209
Ni 8.675473521974864 3.353417541222006 8.069030824770197 0.11953084307849737 0.7746145042330466 -0.20191541612400069
Ni 7.190813873598651 7.275343663978751 10.341624302209496 0.11607862286383878 -0.5660224474198187 0.17526413208505948
Ni 2.7338251556307203 6.639046581717113 10.401595626975377 0.9780232170731221 -2.018935874581613 0.6072086918501414
Ni 1.1841855179612328 4.988538386825657 9.076166684166251 1.3639864250120832 -0.03125073048416554 -1.396061194059441
Ni 6.236578659857572 4.193574130932798 9.483954310907396 -0.628736281509272 0.40727353938096317 -0.1467842794778117
P 7.4339102069071386 0.32153888099173566 7.071174030999958 0.2979677164645836 -0.6081540864825461 -0.6794430638355202
P 2.9510411018195857 4.9078874526275 7.651577161609612 -0.27373661183136083 -0.39308362103382627 -1.7987507136141474
P 7.309301952062187 0.23063093370113613 2.5060237743283467 -0.24176905778582877 -1.0309540036338825 0.31858307872209
P 0.602486995758741 1.8558131251631262 5.047154856401572 0.044299079027691445 0.12653915607553046 -0.32620048605803176
P 9.02419550027563 6.688072030488429 9.17519461435094 0.5933211352347717 1.5722666070118472 0.9700437984120712
P 0.6071288156330767 1.9193934328624445 9.245716610896626 -1.172327139398452 -0.7797148015740893 1.4174563719057651
P 4.359724569556541 2.3379165259467776 4.839297565576217 -0.1877794909432508 0.3240831826047128 1.9273750343534806
P 6.788190431562004 3.913564626175857 11.694714795578395 0.10271017197673278 -0.8858519969545001 0.04454899025496844
