# total energy = -340859.87890082976 ev
CRYSTAL
PRIMVEC
9.34910674864014 0.00000000000000 0.00000000000000
0.00000000000000 9.34910674864014 0.00000000000000
0.00000000000000 0.00000000000000 13.68336274882940
PRIMCOORD
 96 1
Ni 7.898452443541838 4.650871994805408 12.848882901389736 -0.6050926739484032 -1.1864304115690534 -0.6757180495754492
Ni 6.481473805463951 7.932483191432837 6.8361527309832955 0.31070547574622615 -0.11226079177964539 0.431062928491077
Ni 4.648160753902005 2.8174467539647012 11.292440835972727 0.5126077792441043 2.1085637594530913 0.26378772814876505
Ni 8.476404862188453 6.654385531355168 8.214190470403054 -0.3582829684148733 -1.769771809883294 -0.45864598031566817
Ni 4.237389058823205 3.349504408491284 9.112749930609134 -0.18970190477694426 0.8427117141216004 -0.35092318561569236
Ni 4.202161625292082 6.843564702666808 6.869909550051985 -0.7532321819025285 -1.241289011280146 -0.16459199708319397
Ni 4.646964068261882 0.9131627646582076 9.8560983283806 -1.1883098879799534 -0.3275012071473263 0.7291378599574861
Ni 0.6222213731352606 9.24980970265079 4.639207114546178 0.32814809670270584 -0.4273777663300059 -0.809372219429206
Ni 8.741031323467224 3.799981759145104 8.61642736610007 -0.5004577741451316 1.7799484933059795 1.5480753544776242
Ni 7.736357633944546 8.205570594151542 0.7523413033748587 0.34475202380797404 1.2766275386804402 -1.1623486880295015
Ni 0.6293883982268099 9.131122794827649 0.09530479230792462 0.6099569440192398 -1.0868981230996702 -0.4578396823642889
Ni 1.5422566660282684 4.432691894933912 9.853485253096112 -0.20698126068268224 0.2603509345530742 -0.6535947353138485
Ni 9.110031210420479 9.169098865688428 2.460665214379234 -0.9676220763444561 0.41151148872171056 0.27481030451151384
Ni 1.0286728460710848 5.881074181958465 1.163439282272723 -0.13923706325817312 0.21164138516251293 0.5311271782045304
Ni 8.330007202511212 1.4154921301342966 8.611419049714023 1.0342506721072835 0.7239478311161145 -0.004114793499321945
Ni 2.2202632231170463 8.488184736458415 6.235070622698677 -0.8259902876018613 -0.7118369067851934 0.9060590680299945
Ni 1.6489767174501795 5.233377428348429 3.430268535361057 0.24671586026814285 0.23144479304168525 0.3224621020615221
Ni 4.946490744342055 7.941290049815617 8.806023507564438 0.10705610765025435 2.746308415108561 -0.47780841217673187
Ni 3.911180032610913 4.7885375889523765 5.3267002100649 -0.15324777571496834 0.046281399565042874 -0.46324491254026023
Ni 3.087794868460312 7.36016828404399 2.031650607663152 -0.5385661509810789 -0.20762635046584887 1.4101806641799586
Ni 8.515353240131832 3.6128967877036797 1.4793222202856722 0.12091409657926919 0.3418358786024435 1.4033235320488089
Ni 6.897069639529496 3.123835674262455 4.7468957334080635 -0.49255163192417756 0.12057599651356009 0.006162934277602289
Ni 7.1957548960189595 1.7724410187272495 13.033676406812456 -1.2000012082749525 -0.23140519805300147 -1.4825687881343823
Ni 6.774418710523447 9.008939321149771 4.678300403641291 1.2524707389285785 -1.8090240705156975 2.36822898079305
P 3.0982565187048254 0.6110127292763268 1.2064274091621745 -1.1739808729517909 -0.7922407019552421 0.6452072825811017
P 8.514380933049232 2.7975986007304723 11.016502890662824 0.8624004507997793 0.5840556507724458 1.2493411921606612
P 8.806269389067058 5.539859839711818 10.333100964176271 -1.1794020439673623 -1.0940049093477804 -0.7318048652666881
P 5.717950970639193 5.701935951095983 2.953978301485521 -0.5550646628567344 2.053064955054838 -0.4516950029191317
P 5.898837484429041 5.668550291557863 8.027166268154291 0.3677921934568892 0.7342533268071806 0.41267285601966347
P 1.2711886703272712 7.036623753202283 13.08185515766594 0.6493174480947334 2.064406348209587 -1.1473987515878885
P 7.8809041705222205 4.779590493971144 6.313653603007195 0.8069209296752361 -0.06947095030762875 0.251786847033147
P 1.9660797138696602 3.4840941465788733 5.098995240426548 0.29369865677558454 -0.01564850517053434 -0.5403859777986371
Ni 3.0719668310483716 4.890826163863206 11.601041754883397 1.6725224039108162 -1.954330479896402 -2.7122793505483096
Ni 3.3039088157812837 5.698822698610351 13.678888167897925 -0.25312613466986084 0.3970893997591097 1.445562386113362
Ni 4.799457345418499 1.0648071429388626 12.589555513711133 -0.8374198695950417 -1.3669545065014719 1.0670944581101816
Ni 8.920889435535093 2.6744521690765604 6.635075886658996 -1.4344223103361424 -1.682823014505876 -0.7807095613871909
Ni 6.462532515566378 2.984964045368801 8.27868060747781 -0.8454954475143245 0.32832858814462806 -1.2537112962038988
Ni 6.804485437231539 7.909428294647341 2.6849082098571353 -0.3755535825698629 -1.9873709552911385 1.8975376392770738
Ni 6.7985487545637415 1.8327521051681381 10.372905720280864 -0.7879533874337978 1.0249072832191701 1.3930355198592397
Ni 5.112044723367829 7.220445886453059 4.49100227257022 -0.060815588625475904 0.24967442867583453 -0.23502376864219524
Ni 4.582230854416475 0.8932257949116262 7.432857587574901 -1.854735199399567 -0.00037846638534128367 1.797378258746653
Ni 3.1823891286694135 8.26531138509206 13.623101114123093 0.7762965199211598 -0.19596768318099797 -0.3389109916461647
Ni 9.150989646275004 0.7166566985327832 10.973399769762642 0.422961125319549 0.344746110270703 0.6001456143557728
Ni 5.870098330852962 4.2991305585683035 1.456484222772449 0.5433370900071611 -0.9450408486098305 -1.3443876769445493
Ni 4.992105035265183 0.8750679601440717 3.892013429245161 -1.5550391873899672 -0.6396501002082984 0.6538305054737386
Ni 6.917216964173756 4.482915295392826 10.22565916172766 -0.33431154520094036 0.10196455205995988 0.30758518494968967
Ni 7.061763500751431 7.211573584324335 10.427392313332716 1.4060363029942817 -1.0541998615357004 -1.3052454595274487
Ni 5.327952990344404 6.864703032606793 0.8787113069718525 -0.6365056410420458 -0.431594889735147 0.21676070866694927
Ni 8.96790609244274 0.0937032903536037 6.638442499932498 -1.4320993186299207 -1.130188301246873 0.5731204919171807
Ni 5.069010785856216 6.308262908162703 10.177739381125985 0.0796859431674176 -2.250347500392518 1.6983154537145202
Ni 4.598180430213741 2.0333558847003275 1.0288420648998833 0.41637138791717326 2.1239703238161485 0.4710746929973242
Ni 2.8436803469817735 2.5858506861746373 3.465612832724223 1.0638376417357807 0.35690022913473374 -1.0402032901462925
Ni 2.7810974276459635 7.104395426680815 4.511555348439333 -0.7452887586857359 -0.48724461788896734 -0.9058808905809174
Ni 6.89264751212498 5.662837987447588 4.558010124042516 0.8061537124919085 0.3225351213913025 1.7263906146841816
Ni 8.835494696184439 6.8908431345582315 5.51609160609553 0.7809234771702098 -0.025890494613516703 0.3317370996055448
Ni 9.346759937713884 2.5942929294014427 13.34387789276679 0.41281838045859226 1.3656941517318093 -2.086973434876825
P 4.982466106398255 2.938816855371556 6.491551207428706 0.6197510472915262 0.42137706866188074 -0.05200596075364592
P 5.615381922531458 3.3009731963203564 13.199107912542246 0.2480096393789019 -0.4172622751625588 -0.7988913745025402
P 4.485888311280007 8.806203945321114 5.82952320836754 1.097615252406858 -0.9665177875366839 -0.03147904444488772
P 1.1401141963075436 2.55752289328735 8.560872170168013 1.4198500689489224 -0.13014744225207908 -0.3214619429317819
P 2.819129593146124 8.908829088068227 9.678010002185195 0.28336642161164105 0.14260160885503184 0.38049704261806727
P 1.8221128218989193 6.187902510264702 6.251805523447273 0.8280751951553481 1.5762237918873823 0.11800437913164193
P 5.1805736744779995 7.97268434965572 12.699391622350646 -0.8108215502812228 -0.19231517403007523 -0.45922936362296396
P 8.485510891981264 1.0866747031907986 0.8808195305019131 -0.8582928563893089 0.5542668495457874 1.0748368210597619
Ni 2.574575663659103 2.025867250342995 10.471097516695586 -1.3368600011089364 -0.5942181931277444 -0.7655932745710428
Ni 0.8573383144571236 4.367771698957236 6.595326290283126 -0.3754635939592179 2.316953984668158 0.9007409982511907
Ni 1.9452873008725222 7.326913511997757 8.26145300881332 0.14362696479575265 -1.0981143035304637 0.7783166356749821
Ni 7.117231749992447 0.9583862629269826 3.030960714750374 1.4925948049118165 2.684080776626906 -2.4296135545481192
Ni 2.0783624836968304 8.987520518012882 11.760329962690337 -1.5620580419099614 1.379387847168818 -1.8325062127980374
Ni 3.175975641566879 1.0066557001141334 5.5193076987533605 -0.6079563686494432 3.395746705051874 0.2829362760527579
Ni 6.489327054977258 1.2119246838214899 6.418276649826921 1.891835189575658 0.6964488543648972 -0.12245418737287943
Ni 2.980841089374314 3.4024670971732927 7.133164497397898 -0.8609518912787107 -0.7547679018207647 0.11920225609448502
Ni 0.8114313964985597 6.97330225444796 10.605878911467727 0.5023210526061156 1.5650114681113307 0.19848710716874204
Ni 0.8751044216596693 5.058016236537585 12.451271008709664 -1.0519241781276463 -0.26738033059602984 -0.8651445892038198
Ni 6.2812065937680455 9.154589052301937 11.35828565858853 0.670617238013774 -0.4657635651970559 -0.22404464392287218
Ni 5.406186314067448 5.267632554796951 12.289534269893752 0.5305628210606282 0.2289937603980314 0.8401604084546562
Ni 1.2065115511212459 1.6559698491596484 1.8080788780365076 0.5441840113884886 -0.2075654153209264 -1.580550187176878
Ni 2.702256411996294 0.22232175407911 3.499642645704566 -0.5652194919025492 -1.62419440622939 -2.177622561923966
Ni 0.3266820910044032 2.3385855157842124 3.797543512153353 0.32728394893019763 0.2624348136652964 0.5929722365357851
Ni 3.0366365573450516 7.079339821090739 11.379425858349828 1.9108670093961282 -0.4656105845589594 -0.26088906644473137
Ni 3.8032726446554426 4.9021105354853045 2.647703440287841 -0.2303317624831646 0.002421207846982927 -0.42527794637818367
Ni 1.8365384933263402 1.5672561769789641 12.779973441642431 2.1063333274606757 0.7002646285665617 0.7823710082500139
Ni 8.822396597889028 8.628290447418445 9.07386138694776 -0.6777235100412522 -0.8318374904112577 1.0435202703346673
Ni 8.249464649466994 8.115127337256617 12.085432989596171 1.3903962824641796 -0.1464675195683413 0.5078391542108672
Ni 8.308868872571226 5.86102034837984 2.5359919008716987 -0.522460503668468 1.2195498198308417 -1.4451026728681242
Ni 8.973786680471157 4.590953570840185 4.184646074145438 -0.3571169731312301 -1.2600765763002943 1.9824038410938505
Ni 5.264248178220979 9.194799559631383 1.639225599304489 -1.1481646832196355 0.058235743713441646 -0.597604593101474
Ni 1.2675892643003386 0.29347125975901966 8.15793876603202 1.8126377560088844 1.4780878695448931 0.9028744996544256
P 1.4824971768746236 3.8065354828460904 1.716153787751274 0.10467320924037457 -0.042493136167204244 0.4873986269683284
P 2.4027297359161204 3.665653796041292 13.143580763929883 -0.2736836471062384 -0.9235937344796481 0.4966242593316543
P 0.8229083597158647 7.563978807127445 3.065880562675558 1.893861475977067 -2.576848548410104 0.6052675089633704
P 7.250624802439913 6.297857352557571 0.20514464059006252 0.5840525654486522 -0.8754256594148535 -0.06671035684335608
P 8.320162593299887 1.3936245698823606 5.06960351921234 -1.323804453476559 -1.4370492064360283 -1.051003980306222
P 6.414253729272664 0.5535727534610768 8.72835673969914 -0.13162248413570882 -1.8799651776109494 -1.4000109227358084
P 5.586380993971602 2.5716493933047397 2.8805120871991856 0.2634090046531077 1.3385283899502947 0.18469622403223676
P 3.508654249521086 5.629975877877022 9.03970816576078 -2.0196308437661092 -0.7815737091596991 -0.2695662825037551
