# total energy = -340897.48453890113 ev
CRYSTAL
PRIMVEC
9.01817049036364 0.00000000000000 0.00000000000000

0.00000000000000 9.01817049036364 0.00000000000000

0.00000000000000 0.00000000000000 13.19900408329526

PRIMCOORD
 96 1
Ni 6.40848312494045 1.8326094310291783 11.414776048547463 0.4414890089204074 0.8908011134296594 0.11234178152922587
Ni 4.602170678360501 0.19660512962195884 5.949252644929758 0.20686864636421792 -0.004685835511443543 -0.34503227405255416
Ni 2.7793639983931575 1.643083565053531 4.832669699050354 -0.006466581560950153 0.25204781400401755 0.390417901276205
Ni 3.228721385614063 4.315005083087255 4.815695699005656 -0.09472946776410138 -0.566916677099314 0.2524543054138168
Ni 5.143774929069457 4.418759131814406 2.652828247980257 -0.5800249323464978 0.6708784620949608 -0.41607596816394155
Ni 7.2446839432087184 5.922818584292729 2.6056551012191225 0.8616504600076321 0.5531011113724603 -0.10691881074144167
Ni 4.894296267271289 4.6184845483428925 11.330882716162058 0.557421336014369 0.05000255717037195 -0.09321663066400075
Ni 5.540799874329158 7.98813288045493 12.556832619932264 0.2603167388810291 -0.4444452633352539 -0.8139683234403207
Ni 1.773540415891165 6.369632847503112 0.4318955041656789 0.48317121915054206 0.6534412404551198 0.006956633823491244
Ni 2.8909548370676275 1.5235477183887423 0.5292863319643754 -0.5312572760244915 0.2086707325699632 -0.0017756038431840388
Ni 0.5291086740104488 0.19067027178038223 4.769327874847853 -0.016364300290636333 -0.0017815173804549963 0.3035858339823094
Ni 8.58185313703909 2.217180283173521 1.2834434445655303 0.2324884038148512 0.5172254805217738 0.6431537424861826
Ni 6.762274962021276 0.7960861933618693 4.8013090120057065 0.03715115512900054 -0.4428185263651083 -0.06231916975419591
Ni 0.692508900771619 7.620344843145983 2.700212419925244 0.3043018862127276 -0.7784241077871239 -0.19897381699717345
Ni 7.680396838841255 3.761406665945693 3.8026855366313765 -1.4883206030164948 0.6605369709596366 -0.005855173229196368
Ni 7.60618631585336 3.765798514857481 12.497397467082097 0.6154801878303142 0.3489483212775087 -0.39195542096665403
Ni 7.741810578244289 8.668571862163844 6.9200000542440705 1.1946710543112908 1.1142852568633712 0.42164780582476413
Ni 6.912643932771082 0.6283861030254617 0.3991072407704439 0.5410470084214036 0.3990832902606869 -0.5617688143497873
Ni 1.748569102468698 6.396822630807099 9.317928818288838 1.0902960930376255 1.0794969455395926 -0.6430899791277829
Ni 0.004433332494938533 4.657506171014981 1.2910773256822217 0.497137194412331 0.9477834443519741 0.5471441224580771
Ni 6.244469662602275 2.102514248443774 7.028799769226142 1.664413658760753 -0.32754157346695845 -1.0484364766893621
Ni 3.419699176999973 4.394013272648191 0.4567162141449696 0.0645143776333018 -0.40014849830040766 -0.16887802605305754
Ni 5.991870713897579 5.467229641429019 4.682887811183827 -0.041288060115509534 0.8738354321095984 0.6914205479123705
Ni 5.295577788889027 2.739332340653059 9.215636614959223 -0.41584276910721285 0.4425552454013927 0.28537316762902465
P 0.1700249746268778 5.654627219225648 12.336923636567077 -0.15545018268292582 -1.2337055425059333 -0.4752465649868267
P 3.9270163444181323 6.216558425678282 12.558271018087153 -0.7590567590041057 0.12882975188192008 -0.20974596791201297
P 2.2875400474646326 8.390631855056428 1.3932072019473343 1.257276644957654 0.35905121403946555 0.7737267023114546
P 6.34403928033339 7.602398684348327 5.797675239366441 -0.8680669050569374 0.3494913382651723 -2.3148713911075163
P 4.70334553039613 1.1276139717293008 12.603636021713145 0.37041831822582655 -0.5052829634479169 0.03485181757186256
P 3.950589841451837 6.209821852501474 8.163306328477578 -0.6088567689765255 -0.6390469194066608 1.1611235573731489
P 4.814106697407593 1.0415535730328027 3.7566604029430763 -0.11861553035307958 -0.3450592706357477 -0.0627166623029307
P 0.33449926546483233 5.608364005842746 3.611300123950163 -0.37492289096439946 -0.6268475491269914 -0.5209944606459028
Ni 1.4586710016096782 1.1083511600751332 2.6739199445611406 -0.3187095769976253 0.5580006055566067 -0.6184696094759412
Ni 1.9345778820468145 6.5940319778358125 4.805070490817013 0.2336970794109717 0.09555710587171931 -0.4785650878370984
Ni 6.081321944608106 5.517460849721956 9.104593179218934 -0.9906020821793972 0.4306816338922583 0.3060558927893568
Ni 8.49768655409511 2.332225081053771 10.196138077216022 0.4460452608325221 0.015085947798844986 0.004630556793475896
Ni 2.281353582673079 5.307662137024132 6.964256724746331 0.5235028288900533 -0.48175608397057035 0.7643275204847417
Ni 0.4783535100259827 9.069483638801328 9.230802471868781 0.6992896662478021 0.11171006148249793 -0.10363834021795698
Ni 1.5665102814601155 1.053313267038905 11.653255248091611 0.10263303888189422 0.45165257971697054 -1.5242350575249168
Ni 3.9868879767084024 6.964381175495782 1.8556743032607788 -0.03005748150701275 -0.4406991660292604 -1.5094982655353746
Ni 5.693179897044733 7.595490765936767 7.886153607632993 -0.9453735493589008 1.0822770793878909 0.889398576655178
Ni 5.206721757415004 2.984184681112937 4.69583610002889 0.5832426679528472 -0.3440408566735623 0.6444549777961095
Ni 0.7934312440402462 7.385989652857196 6.860815606526856 0.21133850921011343 0.15245844704445355 0.7208560795646682
Ni 5.042690258736329 4.689006639698506 7.01930904685496 0.217627941763251 -0.5970906295795331 -0.2155216940535256
Ni 8.075798513455942 7.157081437399457 8.999463859528644 0.04222522721779825 -0.21948710645917682 0.3132354412569315
Ni 4.760980656464381 0.5174220271833723 10.386467462160951 -1.1723780472410454 -1.2063320355889868 -0.3681848009096175
Ni 8.398369445130996 7.133940812537755 4.877876884696972 -1.0682874499770183 -0.11235592259661295 -0.5206460761675484
Ni 7.298693764836438 6.05643179471789 6.857951435655432 0.7277003561800113 -0.9509996372964268 0.3013083508020424
Ni 2.3929354031772987 5.174499835111475 2.4937666629264 -0.8279841781034386 0.1852500396531777 1.2592509950752055
Ni 2.3424516861173594 5.1928969024216345 11.31385641072991 -0.32539753054076215 -0.4056519446171401 0.5765917382952328
Ni 0.8770531295011229 3.352008791102884 3.818286971164012 2.200444444914488 0.04234478351479804 -0.39129336190262287
Ni 3.6202993560427164 2.589522496458757 2.720169630688668 -0.010995836889871385 0.38068421892820886 -0.46156778194815345
Ni 1.0585167512732 3.3226907196198794 8.329138755755194 -0.24249925108363396 -0.03713778539256185 -0.5414329310059127
Ni 3.9537371828691144 2.6233135803858008 7.029063099797445 -1.8841581326463743 -0.32444570815045415 -0.06574516471660936
Ni 4.130231792833398 6.725192245952953 6.020501600807528 0.2070879614638756 0.8986067255170073 -0.613050495342899
Ni 0.9687949754551703 7.511585709930038 11.45484738623666 -0.5764289874651233 -0.12634143824242755 0.14519688038603382
P 0.2894183342017155 5.501805306167819 8.014883478867738 -0.7605233162473031 0.22644425450330036 -0.2431314853509942
P 8.413267462384125 1.560224616795811 7.939768433403759 1.3661307250485955 0.9873295820757124 -0.8938100754593122
P 1.6593884168656727 3.0780908879270035 10.54845905072906 0.26817017348717687 0.5888875249434503 -0.6896092057352446
P 3.9879070299466615 6.082295906995115 3.8650380675574434 -0.21933643981392548 0.0799350830637462 -0.6238445006346095
P 6.766558592890062 3.8861009059935263 10.34499650444894 0.7533401682353026 0.08133119208032445 0.43395439110625905
P 6.280506270921588 7.840018452267642 10.1821599133284 -0.012618717205275042 -0.7189694040649166 0.1833916462882003
P 2.4682641792762032 8.606833468631807 5.730295078525955 -0.9073322783154631 -0.5888463872928698 0.22052351814349117
P 6.928876639221223 4.04072645310137 1.4537380624828855 0.1172998968654496 -0.16526973987650892 0.14306774985817297
Ni 5.380195280345513 3.011536791481425 0.3200440403709817 -0.6164507792736996 -0.32922641736854913 -0.3830897430459079
Ni 1.5053490508240839 1.0905222374907284 7.071551307113663 -0.7355314221886559 0.5970263520005008 -0.17270819843242516
Ni 6.934071105285269 0.7631626574128831 9.111641781086396 -1.7292869623953702 -1.0991216617490556 0.31693114494096386
Ni 2.6773865292052705 1.6250472245533742 9.238827741574326 0.4540030822270181 -0.9694295618668399 -0.2498875731279051
Ni 6.315821425620895 2.127593779909242 2.4360341406194483 0.3647179254069396 -0.41287545894877287 0.6062841231533429
Ni 4.194423128673456 6.931645217487997 10.387879707622112 -0.09811021131087619 0.2662883830834317 -0.5588611537846891
Ni 7.949967983956598 7.148000139957628 0.09901860752883564 0.5826364018274158 0.5121796905677501 0.33134834880755837
Ni 7.579988531276883 3.942392324694516 8.051049047021626 0.8444178981794296 -0.9201237736531767 0.6120012281427782
Ni 3.182449154060911 8.317837184797796 12.424961719999418 -0.42578548214222156 0.025585561778588194 0.2447865044559139
Ni 0.07680414875181754 4.736884105556171 10.16449963052767 -0.5433777134371094 0.30563963118754456 0.6595913192169156
Ni 8.627737587271488 2.3546352341252157 5.776161492417854 -0.18703721346058758 -0.041990228388856715 0.7729689982098237
Ni 3.6458478323611887 2.652261906888552 11.276185709961283 0.14149937692978856 -0.26800305178169326 0.8273971952517171
Ni 1.2440024769768125 3.3227899194926303 12.7911282902974 -0.3570113007913013 0.2901644183700809 -0.78366298758856
Ni 3.0268045537148076 8.40708099759257 7.89890439854958 0.7597077623245433 -0.6394711514282729 0.8052821085202324
Ni 5.611015347896269 7.649626841947988 3.535036163596325 0.09698586789844588 0.8242108271039355 1.1148694115016156
Ni 3.111701608449046 8.538998792010718 3.5889016945000436 0.5173653485337477 -0.36648890126443334 -0.1542924149293988
Ni 3.331636744507957 4.228556903070003 9.159290185419708 0.19037193426077537 0.37363014029490493 -0.09640942656968558
Ni 7.09875191222195 6.047503806170313 11.27930058596566 0.2560001137835462 -0.007317102486703527 0.14957649751096821
Ni 0.584818420730308 9.030705506725992 0.38108442752566224 -1.0808557735603321 -0.4657208848845786 0.20128421029790491
Ni 4.796088393247936 0.3229388730212569 1.5763833742499014 -0.48109171091369407 -0.4484009055488923 0.44875571778514967
Ni 5.719476881493962 5.676604500125089 0.3491204248912844 1.0014611363810884 -0.2725204800360726 0.5405597843723401
Ni 7.923400454399868 8.818291524655645 11.1803351856413 0.3998947304183887 -0.08498730077567299 0.8703474735609978
Ni 0.24011148835941196 4.799172607473462 5.798084664295795 -0.6584975719321046 -0.182083468999738 -0.15838329716932076
Ni 7.710021528112763 8.869713131421593 2.576498454983594 0.4329868849866672 0.12219810549801537 0.37303647257496403
P 8.381198848974845 1.6947486624162302 3.521375439301506 0.27334323304768404 -0.3492478547957985 0.4849643064952229
P 1.7892320321263013 3.241996132222178 1.7052719652810466 0.09330121995800705 -0.9169240357689563 -0.2921796490278968
P 4.821609815055657 0.8422249559953203 8.063152333314257 -0.5008904908071761 0.2405056176923729 0.8343836538718792
P 8.620378760347425 1.633154559608195 12.367756760652096 -1.2707929342765338 -0.264329459584848 0.07498108149258055
P 6.369786156397363 7.603147192479083 1.4516656869594173 -1.1402122611417782 0.18928410051323527 -0.3046649259791011
P 1.885041072863134 3.1504436678433825 6.223119144535214 -0.1122592491177486 0.25454795471805197 -0.731352865330934
P 6.902796090857996 3.965343567980965 5.94196686518472 0.20762635046584887 -0.22492807496909006 -0.281278942954993
P 2.4389551259634485 8.503458183055159 10.197801027810135 0.2929286113787794 0.42975423698198245 -0.3289371682629045
