# total energy = -340889.90316993615 ev
CRYSTAL
PRIMVEC
9.10917404321559 0.00000000000000 0.00000000000000

0.00000000000000 9.10917404321559 0.00000000000000

0.00000000000000 0.00000000000000 13.33219698166876

PRIMCOORD
 96 1
Ni 6.403694605762733 2.1957117166739293 11.41105396250015 -1.0368168901725627 -0.02559250375712367 0.06802419055877316
Ni 4.324953791305037 0.3316121889619366 6.173207000078057 0.6680139960629721 0.47618501764069604 -0.3704879951214974
Ni 2.600568951235141 1.6238286692448045 4.914167953020947 0.4364434760767 -0.343222474537325 -1.163679233915467
Ni 3.342520275619105 4.241887234392816 4.9664436802726035 0.46231443030619096 0.18156024950641633 -0.41765719660813233
Ni 5.328320188642937 4.566137388998304 2.787375335255032 -0.949576788806971 -1.2983507892901445 -1.2212850573543934
Ni 7.392258595492082 6.1551507955478 2.7457127065293574 0.49586655523002343 -0.09555453476855802 -1.596348330551399
Ni 5.189314194731268 4.885869393342966 11.703322718414649 0.397835791006831 -0.7251760470962607 -0.43200806601316566
Ni 5.596193665901156 7.780646443618675 12.731554427782738 -0.7949915252275017 -0.3773736664977372 -1.4310479945472707
Ni 1.9261439330679004 6.497765044761802 0.5514702996075875 0.37194169684888845 -0.08992330462470964 -0.7494094657223287
Ni 2.88164162149323 1.6223165463752542 0.6665218988803623 -0.4475236451502615 -1.4305160333032008 -1.332072349912306
Ni 0.511288822560159 8.89111850782508 4.571183871346079 -0.6834370154862617 0.09556533340183541 0.4259358916771568
Ni 8.468261545611872 2.133067927674549 1.1906728750056115 0.47079032898768597 0.562937637846908 -0.39198601709427333
Ni 6.761612267150496 0.8345050859265265 5.010279757893909 0.14142224383494997 -0.6037155910952183 -1.4825538757360466
Ni 0.6616703528543234 7.5747791131859294 2.411381429154404 -0.003872852691844943 -1.720082670188283 0.9100653609759102
Ni 7.823031429835647 3.687502910050475 3.589334253707968 -0.11136630498983399 0.6037083920063668 1.1826632312171375
Ni 7.961417999921235 4.089436099785629 12.496828323476363 0.20229311117839355 -0.5126936540896913 0.5371687564129201
Ni 8.11238433918061 -0.06518069393413775 6.979391664309211 0.31578597559292715 0.3857248666759099 -0.372118588746385
Ni 6.564043394152451 0.6046104874635835 0.4780275849344011 1.4279091918079732 1.4038017572368082 -0.8808602001668636
Ni 2.0021326618497572 6.185566327243151 9.250757803082392 -0.5090989947598974 1.0958033960091 -0.14567124891929106
Ni 0.22998022469772472 4.953978686690119 1.5612531990497713 0.15882758379559098 -0.33034150480959884 -0.6899655606333989
Ni 6.410408066936579 2.0501197900231958 6.970925598074512 -0.32625422211410265 -0.32762436298875186 1.0073029398738458
Ni 3.7070329789198464 4.204339219523622 0.6353220673111057 -0.8855421790235652 0.2764889777655174 0.2893684048313468
Ni 6.013293630201377 5.5688114891188185 4.623419518232519 1.127020959262485 0.10431891122474939 2.317613215518712
Ni 5.459264563641642 2.967604895709771 9.183244249709146 0.9955008050325951 0.4782480708173118 0.06333835504732964
P 0.28454782010588053 5.7998656854208805 12.544596831475891 -0.304568766720869 -0.357858479282945 0.3046862661353398
P 3.949938210482661 6.127622871982855 12.925564346532992 -0.5757448169139052 0.4779179411714027 0.43539189488373403
P 2.3109427666727886 8.53330104735036 1.4872329627505037 1.0609492644443923 0.5542372818594326 -0.6432020792256149
P 6.487744953457553 8.023998024703225 5.9582386939888785 -0.30083732470289476 -0.8922620142459021 -1.6973386916235476
P 4.711993481692512 0.9709923932512631 12.787829993299571 0.020816679635035116 0.695172301645319 -0.7203714266187659
P 4.141048679176422 6.093181085417979 8.262522654531299 -1.2746210497733725 0.2920927457410453 0.009776362660473485
P 4.604714740519661 1.0613280709460216 3.9692615011042087 0.6711612834427021 -1.6870216259682558 0.07269048568619094
P 0.2614642624930654 5.5125714493802445 3.7116440427545836 0.5175101016417282 0.789227626160531 0.06156043721130044
Ni 1.1972096182055467 1.0455600909026992 2.65620049815633 1.5518726167365273 0.973746186964323 -0.9652708025034602
Ni 1.8691022860249866 6.350032462241525 5.076633713428035 1.395789428455293 0.28871688729027695 -2.305531858874146
Ni 6.002171328853662 5.664503361074393 9.176470667987475 0.39830090356870756 0.6145088250559804 0.7098324747606549
Ni 8.47605899848136 2.284580817368702 10.321586742419623 1.2311907465038798 0.822330836472403 0.08186161066249772
Ni 2.4479174148018688 5.218181166861418 7.097114984290655 0.6595386116021094 0.18655178918373677 -0.36811923777900474
Ni 0.5692878437813244 9.014675342780379 8.946290952381055 -0.02231074768205835 0.34979472843820403 -0.21200879580426069
Ni 1.721542777809055 1.1928281055534165 11.25064049897565 -0.3096343541692345 0.8308648420853432 1.1824081777835378
Ni 4.011989903177699 6.921797090409781 1.8311771513557964 0.6018721101285763 -0.1250078070326686 -1.0502506470799655
Ni 5.921828414941412 8.25781230070091 7.9361236457997455 -1.6552870138691362 -0.3603285380899924 1.3343907136328375
Ni 5.37962305612069 2.829637347624179 4.814202967582807 -0.7307579120594124 1.3174453440277505 0.1605893036817041
Ni 0.7813321050444438 7.499755956838846 6.671857754751384 -1.5293482103817664 -0.8779142301646622 2.3401468778448535
Ni 5.086544494645328 4.73292636334448 6.753464111085359 -0.3996499613974343 -1.5680296861123642 0.6284958833636918
Ni 8.145705697354193 7.353426187101162 9.181670184456989 -1.199889879508069 -0.6314151138930157 -0.5359634232509092
Ni 4.499849930433742 0.24405207655845507 10.586337594860483 0.23395290417551964 0.43156866448290193 -0.5516674642497272
Ni 8.070227082311462 6.936790790670502 4.889116813842935 0.49360552710998856 0.8388080081918199 0.2894097995922435
Ni 7.045517890495513 6.02298579124476 6.994176764487325 1.040662489170898 0.36555276260340913 -0.11708726663401126
Ni 2.460989079366957 5.132618696297047 2.786416139241998 0.14078538158189946 0.39488750701178443 -0.18456149822658538
Ni 2.1630006731525135 5.101820579297351 11.54292291865102 0.22123031440252866 1.0478667202288212 0.6290327297037682
Ni 1.106564228597748 3.3969111530533493 3.8152344794100803 -0.08758617185110076 -0.36590603217776985 0.46669661853428657
Ni 3.852451831266234 2.4312202990194254 2.5921657383004417 -0.80981162095947 2.2184072000404957 0.6232824574835524
Ni 1.1454421828582328 3.6205504817902674 8.221246254779533 -0.13494177831692888 -0.6946909911335262 1.4198701235535804
Ni 3.7569512519628314 2.6998316193645935 7.227676773985016 -0.2854832108443277 0.2280005432468267 -0.4965800363572802
Ni 4.500423808390258 6.982063385017881 6.258359557816344 -0.16742303877408585 0.03981019001840241 -1.4973562308562018
Ni 0.25065258397578105 7.54248709166451 11.267146322105921 0.713311691558507 0.34862976159582537 -0.12270127038667901
P 0.002838418591276266 5.764148614508191 7.997597816868702 0.5696235345075158 -0.2577440930578464 0.47358383257242304
P 8.764965558304588 1.752778135156572 8.074365380020117 -0.08279749221320579 0.2331160100965211 0.29915453768383315
P 2.1359099899353904 3.268899932054616 10.450508880809652 -1.2222055122861337 -1.1175022211387724 -0.8704117511400301
P 4.183160390176005 6.290449355676897 3.9227855848829294 -1.9624934753231686 -0.8003718157028087 0.2062965759108318
P 6.994834446843841 4.171181826480471 10.451255833070514 0.34124118244123813 -0.5792967959312216 -0.028651088077789367
P 6.1060523481569815 7.826410933357353 10.156200580856042 0.5340430662997449 -0.5142311737801402 0.8829258244466406
P 2.2700516849775414 8.552011290567565 5.721205235930354 2.004620486400206 0.23842096724920225 0.03574321903788038
P 7.389917537796454 4.0249795851775705 1.4866062515852925 -2.491447300025464 0.2939310845013648 -0.6142792255436775
Ni 5.731291824204168 2.995925317405143 0.1719156174243861 0.15833470331957247 0.2629865724037084 1.0763020927513787
Ni 1.5424108728108272 1.1052251800325437 6.994323422187325 -0.6941286908721529 0.07739071937533769 -0.333303158541084
Ni 7.159054634146564 0.6902859117844751 9.14848637480949 -0.947255339762646 0.46095971605050934 0.3302605150600183
Ni 2.605834053756828 1.3337652443346306 8.999019405576187 0.9241285239371956 0.35113118786144043 1.1728390460378642
Ni 6.324299045937431 2.157261893587353 2.6123370930132856 0.2614374827490336 -0.9757418772381131 -0.49256217344713876
Ni 3.663062996442021 6.9021303839317145 10.884285920709708 1.1966960551611197 -0.09463665093997894 -1.3455184481148825
Ni 8.206381904788376 7.525607792403807 0.3083919937404272 -0.5518194164465593 -1.004893559101405 -0.17824815441404784
Ni 7.784882209488199 3.7539543337454693 8.168343816362665 -0.3540851282834418 0.8015329258904454 0.32641825849579265
Ni 3.159781137751348 8.479256318524808 12.471456541376615 -0.3377262273094441 0.508006275916351 1.4743746823593642
Ni 9.1225643986054 5.2242478766874445 10.21831512685108 -0.6130162996708539 -1.238953164058118 -0.004904379280152844
Ni 8.73970581904397 2.3757454298895393 5.843355614433493 -0.08778543234610042 0.07071562134800725 -0.33021834896817326
Ni 3.7453188368759895 2.8242993717111884 11.849963110982763 0.705191633554534 -0.5409750175328877 -0.24890489749966163
Ni 1.353832754464867 3.296901532663034 12.838412325120812 -0.7555094079724796 -0.39285196463899436 0.16934005329114063
Ni 3.1047252906214577 8.132324320876064 7.858396886635297 -0.6194355729336364 0.09029585747277996 1.1067632374547134
Ni 5.754775274551761 7.8715013442264725 3.5371113596650057 0.0005486734146184099 0.6906227346014235 0.7671009694648209
Ni 3.029091819622206 8.355608391830378 3.5679623098733964 0.16061295783078788 0.27600766725372466 1.1607836575352268
Ni 3.767107980875774 4.425673927260563 9.747075698316612 -0.20707767705123045 0.765581704606817 -0.6292430459423615
Ni 7.262115827797718 6.3302017906330255 11.497859835303638 -0.45324717789760005 -0.08523875466484675 -0.12712922425104556
Ni 0.8676770536479373 8.914301355433546 13.201288109869395 0.06562329442676441 0.7855951716142663 0.4362591279800357
Ni 4.650269719258341 0.3053604606621963 1.8218047223167588 -0.5470788164377803 -0.7470417368211004 0.11405824999970034
Ni 5.933105572245649 5.56551396816233 0.7423484843665688 0.4351152441835797 0.6919203703669244 -0.9298654264209727
Ni 7.473758374491276 9.135317242083532 11.451956886121483 0.6336802557781086 -0.4149876201957692 0.5000024317752679
Ni 9.203636046430685 4.917496445168741 5.93301448050652 -0.28122777800208343 -0.8753953203975504 0.10251862479121698
Ni 8.106791306398057 9.097696353823036 2.3057104571771885 -1.4987171157594703 -0.599056237946336 0.09829404518690814
P 8.496654840698548 1.5206672746806076 3.698044957019935 -0.5254715225806499 1.0497914480553596 0.5754589102423702
P 1.7733284315041948 3.2100728869247632 1.6718841162225897 0.7446922627523175 0.028614835523215233 0.46590574720187505
P 4.778062320083164 1.1431193435104297 8.404936390403803 -0.27383894173718 -1.1673474267956736 -0.3457496118345529
P 8.91379124169442 1.5873373185495132 12.452404704137674 -0.5725823600255235 0.05024372664690056 -0.6066551333395165
P 6.3231239625026605 7.825445360922579 1.3795087829733086 0.24571570113840266 -1.2355675354153366 2.019472978032006
P 1.7771907212432871 3.219619301185538 6.162141175608601 0.3548716287404792 0.42338252912768376 -0.6090516585961511
P 6.987328487539568 3.858636960353129 5.860939963755059 0.3774970794494789 1.08610648043631 0.5748827260239261
P 2.011187180719233 8.403987214482074 10.323199977119609 2.277133510237111 -0.9243990039897629 -0.08048375647836462
