# total energy = -381176.03777377977 ev
CRYSTAL
PRIMVEC
9.21312703187187 0.00000000000000 0.00000000000000

0.00000000000000 9.21312703187187 0.00000000000000

0.00000000000000 0.00000000000000 13.48434268830366

PRIMCOORD
 96 1
Ni 9.16767871545126 3.1957942397280186 4.926950029551223 -0.2848517479079159 -0.3651704395633259 -0.4075239648288723
Ni 7.024742211176571 4.879355015100919 8.527930227373092 -0.9376712956186367 0.29284839296014725 -0.7969023690969695
Ni 6.391348938152182 0.8976672165009193 7.242872207716527 -0.11955912521327151 -0.03282655961171766 1.7046663356332126
Ni 6.7744031223953725 7.78879605232605 1.995130306669919 -1.6043406047282562 -1.7500344793553666 -0.08716039716759182
Ni 3.8433941546963415 0.9269419277699559 7.015971314204698 -0.4235036280865803 0.1300206868662277 -1.8131846296512901
Ni 2.1916555202276906 4.957924562764913 9.349287876280606 -0.16348770827542167 0.3452305061062893 0.8761321985635749
Ni 8.001821976468507 2.674303608111567 0.9284132641632415 -0.5880038367869165 0.33937841820088643 0.5890024532547598
Ni 3.5462247410117547 6.879976345505329 9.47885945278587 0.19655903690809373 0.8304115565980086 -0.36539258287646104
Ni 8.839405784773984 5.517603606091878 4.0545663976720565 -0.13969831916530778 0.7990304711835657 -1.880078563260362
Ni 4.890843784558823 2.6005709521600013 3.505335961756645 1.1870937561846653 1.3878807151311776 0.8529886705675762
Ni 8.991800119660258 4.9250244859933225 9.31618418940074 1.466354640268365 -0.765459834316972 -0.67539589034934
Ni 1.5851922176326947 2.8766791573596096 9.909481933410856 -0.35610858647137383 -1.1553573443133327 1.1196881730464976
Ni 2.2049408494644966 6.5397816283978 2.7061727359638796 -1.0235127168644889 -1.6813541432698333 -1.573997987880657
Ni 2.8572394592391794 2.2036786510557294 2.646477200418138 -0.9755153630496037 0.23057498884222227 -1.6300596067609152
Ni 7.621144779009714 8.320430336847995 4.166756488644617 0.5109447897193845 -0.44602597755881246 -0.1669988067524737
Ni 5.678980739872663 4.71531528759653 6.565647482650458 -1.07895649965509 2.290880684619874 -0.6839702622819124
Ni 8.913442473918902 1.2874055244343316 6.87752749632978 1.1786901055020025 -0.7642395887566258 1.0599794443319552
Ni 5.685872158921991 3.1674270214755045 1.3333265136957821 -0.2724346051904856 -0.12061764838477292 -0.7870717561597929
Ni 8.54481604666936 0.9507670743763219 13.00986963575209 -1.1919086610748053 0.17818130573185445 -1.2724042446277117
Ni 2.2704185435601825 2.4669161177367402 5.041270195502667 0.04410804606280791 -1.3517029796590398 1.1251569094705525
Ni 7.290715976597756 1.297254357273545 5.12159576518645 -0.12831784524250806 0.5832077009498536 -1.7242226604985853
Ni 7.639266999958949 8.476334873148431 11.102334056025203 -0.5945637493926212 -0.3115894210130763 1.1776133274980558
Ni 6.266004344347229 6.716249864321365 12.271466982994507 0.6646625630922359 -0.12169699749188075 -1.0458964838763278
Ni 6.442583137795649 -0.2849951875725786 13.414493593094592 0.01642266433239752 1.5423011709980081 -0.6085022138505842
P 3.893522779091252 0.6723353185293331 3.7149364452539975 0.41363727681546186 -1.5597239944601462 -0.15298937984725908
Ni 6.017867192936069 0.6176102650385542 2.9956547164201788 1.1627114706855588 -0.3763485676673325 0.539354194100013
P 7.801252200126439 5.495565806137344 11.053479607104254 0.8435897458511794 -0.5621735059873738 1.051371648058286
Ni 4.9334729235177 1.6017021413444537 11.21893262830138 0.569392135223 -0.568800267275272 1.7092274726413337
P 7.731038958716108 2.7513622029358693 3.193605200735879 -0.7644151951025415 -0.4512252623715648 -0.17427580002986115
P 3.67299736951276 4.058364048650843 5.078756566930347 0.7021968125922681 1.46064216326462 0.016285110313268725
P 2.386116993321492 4.269713183666327 1.5526146003085994 -0.07718554534306707 -0.1365849703473067 -0.30102192990987514
Ni 4.072386428053353 5.043919890848372 3.010568005210482 0.7325422576533449 -0.8857810345072487 -0.1417174064778656
Ni 2.987955306126698 5.6117801910146445 7.480264089024436 1.3043707702319793 1.5680533402614476 -2.271947595160797
Ni 2.619126190081587 0.5903108482136031 10.409373309921365 1.1159369335341813 -0.05798814647900981 -0.021903227830994534
Ni 8.691802275964784 0.8022671283030847 9.942639977740443 0.3010471267208557 2.212271005235771 -1.8747733489973646
Ni -0.1390463563853826 8.197822041783215 6.077676049944787 0.9228494001144558 -0.7466645559873399 -0.25837786998710344
Ni 0.803045637540609 9.076708298749303 11.607713692332085 0.14710746714518533 -1.6721606496960235 0.6279063294088089
Ni 3.4012101209095884 3.4362568562887907 7.476299680445658 -0.3996916132686471 -0.18781754327003783 -1.577607045388154
Ni 8.949419735132306 6.7852469729582845 1.7513325381093388 0.08589592863287142 1.5967108560971404 1.055604455192711
Ni 4.2989280096094 9.232566769414383 8.921619124194676 1.2065487795854835 -1.4336463514020663 0.6364418776836458
Ni 7.735120374008691 4.992354018630339 13.590464320156306 -0.9577287284901442 0.10374169856504069 -1.2419299872982545
Ni 4.055977848739378 6.309259975946953 5.187871316086511 -0.33862791318810714 -0.7164062713234307 0.7974327876791427
Ni 6.68218893353879 6.826015060248761 9.816857760399602 -1.3888667331935307 -0.22726520774269893 -0.5918180683266839
Ni 6.781174770792773 5.132402763241078 2.3508601986450643 0.342826524650487 0.2551089694278445 -0.038574517839088406
Ni 8.391776792888097 0.08430840451670382 1.681955848637081 1.1411759106066282 0.580311096128349 0.5498728342431497
Ni 3.2505294276585754 0.01686462910400358 12.798016542685806 0.5974852939147903 1.4780881266552093 -0.5773245026961993
Ni 1.0036504237655492 3.92270075252604 7.194773235215422 -0.5532114116980795 0.19283325131707435 0.1963420358012812
Ni 4.064389433755469 7.602829082391981 3.0651124814106634 2.9733195978589246 1.2836638767019313 -0.9223333797099856
Ni 1.6333584459614197 6.270177890910525 5.524427769313586 -0.7412564975978911 -0.8621572244407216 0.29660220357562467
Ni 7.917070420539676 8.095150953700717 8.139917538140134 -0.24035469393680545 0.4365751165585578 0.9222675594690568
Ni 1.7034611298468953 4.335780517894576 3.7964357673266633 1.0165694527774363 0.4183855901337246 -0.6761471666930677
Ni 1.734232974265017 8.887977390693846 2.565221104900153 0.4808029760286816 0.4001837224137172 -0.34112599701961255
Ni 8.155883887354685 5.391494322740007 6.069626540822599 -0.19554576515223096 0.9907190673732357 2.713276681464573
Ni 3.638613979282691 3.731076922570197 11.233509637953581 -0.4113690496065754 0.20570882172816188 -0.048044405002736615
Ni 4.070276621954027 2.300398059050173 9.283066682830267 -0.20195475400236831 0.2075898408009586 0.03270623198376948
Ni 2.6908780237128247 8.007055032645003 7.1809784200515745 0.6528786830834303 0.02323094550348257 -0.11456989952879625
P 6.952290179887916 7.3504262531468125 6.328633339552471 0.2902150691023583 -0.004215066522612096 -1.1854644481113583
Ni 1.9732399167485248 1.5643336979432854 8.1109404108755 -0.8932691153541777 -0.20278110655840562 -0.5038506018767646
P 6.410235848648335 2.104849436961959 12.878355932060197 0.36935748106148003 -1.3860441761430708 1.1371464777322609
Ni 6.184210202208281 3.8363368993597304 11.741720468209468 -0.9758735177199709 1.9947983581034614 0.24721414006080006
P 1.7446161684743653 1.749268797645369 11.945509311150248 0.1490738468429368 1.7151011578132913 1.2096379600337683
P 4.496632503432297 5.936653477802612 11.2214809792493 -0.7536875242723924 -0.11280997941489604 -0.8011475175265685
P 6.486953557771001 0.26208214054627055 9.550150630063543 -0.5455153286054025 -0.1282239999771211 -0.18030503694307656
Ni 0.9204310108686724 4.633336882916156 11.29451251623074 0.6692928627753957 0.8141238751815786 1.0586157312152091
Ni 0.3937718149652249 6.9155021634922385 10.471522301206193 -0.2750705001514359 0.2296859013690496 0.2212380277120125
Ni 6.757828706794114 2.6861977551606073 9.853480861820703 0.04675808209114528 -1.2383409843954156 -2.088409653102719
Ni 2.7213550480646647 8.242588626222634 4.778271348812803 -0.5176749093543664 1.4394734996068048 0.30546402484162877
Ni 5.162944279482418 7.272787231317018 7.480115757678589 -0.2307390252239123 -0.4904690383635359 0.47883505366903345
Ni 3.498049299555959 5.262565822504319 -0.4097768593134768 -0.002379813086086224 0.27750302085232853 1.3278439136532552
Ni 8.563675317784298 7.611526274347283 13.08714750300069 -0.22627970390097804 0.19999943004821039 -0.08908512499413046
Ni 1.6726340066663457 7.793771140944548 0.2717015665214086 -0.2522362758657398 -0.5425737294785752 1.1930381466935582
Ni 2.5952089122045083 7.297865363205081 11.716302371932477 0.20088080421189922 -1.0625405201909122 -0.7269747908678964
Ni 4.869847067963343 8.390072364379906 11.113957337138348 0.32149408172129795 -0.4662921840070163 0.1623764774891139
Ni 1.2548555464914501 8.654516750707257 8.916858701436938 -0.5501661971138525 -0.38793447273271897 0.4213066204352615
Ni 0.8593083619395869 6.637394709718159 7.851609310072718 -0.77688093166972 -1.011118199854878 0.3308647243029205
Ni 8.443397943868556 3.0159263599151465 11.422357552722843 0.37738986444765327 -0.2739304730097218 0.6516532953167616
Ni 6.771537839876199 4.206501918830179 4.517807954692959 0.08038502611697124 -2.4113898324512406 -0.09674109887749145
Ni 0.09805531141978154 4.620788603845054 1.8920962213808106 0.7537757131108245 -1.54447940959625 0.34629571414601007
Ni 6.203898654759636 6.3286443953049565 4.372446921012911 -0.008939982802107184 1.6740781784337102 0.1309527117621938
Ni 7.64931852159373 3.1134657362189357 6.702662344516621 -1.3971618833227872 1.020298066581933 1.4264122955474723
Ni 4.568863419671241 7.646029435229279 0.4911186369132239 -1.0988954046708623 -0.2651686676566917 0.24678862248760725
Ni 4.4329237297342985 0.7516151982905248 1.340011558698713 -0.4223144928744856 -0.22529060051483138 -0.08735888633164308
Ni 5.035664928992492 2.5096926667287573 5.894883002286781 1.0910342567552305 -0.2828167197557581 -0.5018410276459034
Ni 0.8388432427761217 3.356185568912175 13.336743092427234 1.2448790426242495 -1.534228678402519 0.2753229824818742
Ni 3.6344404327193947 2.697714163999725 0.0845737425763571 -1.06131333265203 0.03176135157199691 -0.348109113205665
Ni 0.5555156312034473 0.6932500382938777 4.359406660956202 -1.0573291511933018 0.09289112900378196 -0.4555909955394282
Ni 0.7080546121847399 5.605994347213873 13.330122539313804 1.6436206332748016 1.7829273734286455 -0.025892037275413473
Ni 0.5548817680609422 2.342234869080919 2.496342845602453 -0.041446954290877004 -0.616605559684009 0.23325639232912732
P 1.6673456717274229 0.5518018196810087 6.119558925610891 0.7647895477228248 -0.12179289963979668 1.5759335143404731
Ni 1.4230872468132776 0.8912023652349924 0.5757015926166523 -0.045315178997031635 1.222558010529546 0.08109670747201517
P 0.7067131808831595 7.39839900580704 3.8700873477600015 -1.654091193788822 1.3015561836013196 0.5229970928982284
Ni 4.7520756646109925 4.685630592172821 9.183214811631581 -1.3251738230202597 1.8011706359095494 1.3564908879659865
P 5.755154874498122 5.927956285847311 0.6225098060150683 -0.23653711996292812 -1.233702714292456 2.056796654183129
P 8.947549470336833 2.7517767936540776 8.716967011247316 -0.2828830542173193 -0.4181978996029508 -0.5913295587260397
P 5.632417595654344 3.2295879898255246 8.027108325028381 0.7601528202817618 -2.360578663336644 -1.0433467208712806
Ni 5.244121142107589 8.825291274100762 5.536414968946047 0.042997586607448526 -0.32934545944491667 -1.0768078287432035
