# total energy = -340869.20548414416 ev
CRYSTAL
PRIMVEC
9.19901717451394 0.00000000000000 0.00000000000000

0.00000000000000 9.19901717451394 0.00000000000000

0.00000000000000 0.00000000000000 13.46369148580712

PRIMCOORD
 96 1
Ni 2.7000954963185606 0.33087944571777833 4.870194222493193 -1.340662405574162 1.8262579178954805 -0.026099525300529246
Ni 3.236416590712008 7.716613884157185 1.7480312638450164 -0.48692682953823246 -1.82445351769689 -1.8204361690073807
Ni 0.6902703250049549 7.237575069184477 11.326289792321571 1.1351284188609676 0.8517722816619717 0.995700322637911
Ni 5.762880639452847 7.016853853121969 6.928725429594335 -0.6399015540974722 1.3076378710190255 -1.331472768655094
Ni 0.829476290925982 1.8874635255864627 7.942810355191788 -0.4724654026972638 1.0162894596431722 -1.5171246717323807
Ni 2.0264330767682717 6.032899388101793 3.119887121820059 0.6529627581568045 1.077416665971796 0.31008609699467243
Ni 3.8103616650044163 4.548389607134907 4.190102609898556 -0.2552202981947282 -0.052345603481251786 -0.013671583949821615
Ni 1.7822543671257263 2.340754291723671 1.9114674407816576 -0.7892798195547052 -1.3349689547338106 1.0516470132068596
Ni 1.5775578388343643 8.16453242431371 6.769746176437901 2.131267885918826 2.9409285831227288 -1.4233172015619167
Ni 3.868269477587291 3.2193432149925774 1.383972803286267 2.0158130126819156 -0.23343739799168187 -0.17770333765417137
Ni 3.040955875579217 0.4436474365215407 0.3057293329931431 1.3364486246031304 0.8313667214224262 0.12151187806426814
Ni 7.645845845682197 0.8835306352497674 4.676344255252898 -0.3203080318329967 1.2783082688169725 -0.0021430144849317934
Ni 2.9292338130186115 5.63667932399225 8.036100347208738 0.025829559468594224 -1.2734319145612778 2.035864789126468
Ni 5.6594468912905205 4.322075388681551 6.5021145727238645 -0.2448335556437654 0.012738787722907092 -1.884841017646012
Ni 7.423689582953615 1.2546079458483472 0.0507095817097849 -1.1404647434722166 -0.4832756059388903 0.41038457420611907
Ni 7.227778115983404 1.3251736059473511 11.22288916062077 -1.375941026270798 0.24686549847212969 1.2526746274092684
Ni 7.3535838737091215 1.8504558798325463 7.2987071372574714 0.9683383856851904 -1.202691353512606 -1.8673593159214805
Ni 2.987178421669847 5.823419370923522 10.87475787825201 0.45137052970017755 0.9274750718119253 -0.6518319869864709
Ni 2.5597276945390397 8.77787688880349 11.256628395602535 -0.24206319198747986 -0.4733259509253461 -0.8170104527007541
Ni 8.1395478938967 8.107130557670798 9.91697829646032 -0.5323152849753606 0.5107894950884428 0.2634941081677462
Ni 6.8229845679457855 7.124307571752718 4.376952125133201 -0.13408097297853036 -0.48578345996240846 0.39968158596631814
Ni 3.9229576341885912 5.708146487766094 0.8645521430909543 2.002001817830436 -0.11821649514244803 -0.05674398965926356
Ni 5.13608721197718 4.201329090355449 10.592626783800384 0.10892941341356722 1.2564520921738298 -1.4914866594493024
Ni 6.615141975809571 5.186267850204278 1.274935013912585 -1.0870709012321085 0.7874360814777471 -0.7060467824659775
P 0.9639282048147884 4.281774494809339 3.1432737829685005 0.64501213585116 -1.1918412981719797 -0.44987569032220587
P 7.433238162693253 3.226371264049498 1.1698344038535131 0.4452795863110912 -0.5875983738183815 0.2543558933119039
P 7.5162592919324025 7.102855463898347 2.240465687504488 -0.8125349334279037 0.06307353142171719 -0.5714662441432093
P 6.0496048031376155 9.30121817008265 6.071990611226642 0.1608566984104778 -0.13002737173444703 0.5594095700889914
P 2.6513223077062644 0.5666336955091088 8.020926568518435 0.3628993841409621 0.30952868182930565 -1.0386739979859596
P 5.13873652889916 2.2001289174656242 11.024111279925249 0.5469772578629096 -0.6131672234264214 1.5837622663562725
P 1.5961306543394989 8.938464130147294 2.1837841038997388 -0.06006739760554171 1.3430967260472675 -0.2837034932360856
P 7.594276155874477 6.7849650303119455 7.861045811687161 1.7192118375475551 0.01024558898740816 1.3776996608331176
Ni 3.923711953589989 8.438092794542388 6.445190135067934 0.9669088523275153 0.1950431144841996 0.0496783410617338
Ni 4.648980859016358 1.2819382256233625 7.379476347112937 -0.03988912288545389 0.9825563290567851 0.7720667981105284
Ni 3.844462421357826 1.1256377262435973 9.798497716043537 0.1426957112307349 -0.4953855018285468 -1.2935435977094885
Ni 0.16132776221956513 2.758444861721765 10.55861709771617 0.3922220443644793 0.4702668523840482 -0.6083019249143201
Ni 9.05852050219163 8.533882159502749 3.4561433930270646 0.3481821325354455 -0.5813266818770568 -0.20583094912832295
Ni 6.168934452831825 9.116915862680285 8.784587571770798 0.6151312891313276 0.26732710876059124 -0.6530018389248561
Ni 6.728943016232565 7.406579411165824 12.131405246189258 -1.352391006865 0.5202552684870331 -1.0562225483926844
Ni 5.516779335238447 9.013978861440831 3.921326648458497 0.06586754922708657 -0.2655108814874588 1.9796848995007905
Ni 9.013859274218657 0.9665683227196787 1.7126895600861372 1.0201445717232043 0.5279603504407746 0.8879523311269546
Ni 8.95754289159239 5.035459164027368 1.0855143734012265 -1.2381296397155581 0.15625339531051152 1.6404990569266844
Ni 0.03424794062685337 3.118503589649691 6.05059645717994 -0.19743578308609222 -0.9285924732458202 -0.6529010516809336
Ni 8.851432229456814 8.800874431529015 7.791114883767381 -1.0039391656079355 1.181748689822668 2.147401815366211
Ni 6.1656688017648 3.440450789772875 12.820395987916966 -0.2987218210217888 0.07255858809401697 -0.38370243692924244
Ni 2.4932279999939087 3.332794692766142 9.809914616154195 0.3010558684716041 1.4602017332930917 -1.4117644637273103
Ni 5.609965378362279 2.2515514229999005 5.434591636947672 0.27582306204674434 -0.83557304619429 -1.451988858464996
Ni 5.892954741108422 5.352678069366184 8.40083217581849 -1.3881103146434803 -0.6554919523365614 1.932385857304511
Ni 0.5942528244207566 5.540595590485003 9.862490678431586 0.06848261825243045 -1.4075429694467954 -1.3764858430306746
Ni 2.598345168283743 1.8922378154562818 11.589316368080247 0.3013597728652681 0.23798259416020304 1.0919675672027775
Ni 4.835472532486193 0.17941578952404585 11.944920012031385 0.6419332398155203 -0.0370663087246781 0.4413694526234076
Ni 5.368169214146099 6.763117364722695 2.6403377613988446 -1.0904986959667349 -1.0019411613413003 0.8058253826182121
Ni 1.8054910842955978 2.477819646367806 4.200833263334286 -0.9756847987479325 1.0638584676713871 1.4905160680059168
Ni 3.7841444662973163 0.3916729899618519 2.7075614185889756 -0.849485285400008 2.2982044719747967 -1.1214187825843591
Ni 1.316075778045133 0.9253291291042655 9.827080901946237 -0.0860720491994195 -2.269804066455233 0.6611424657541195
Ni 3.512083535854343 3.03189484374536 6.12643775358018 -0.894111151639499 0.5048895846642402 0.44863153350245966
P 3.803260023810773 2.3850291609788536 3.4577044662272733 0.26328507748073365 1.2131094635221364 1.053204844612283
P 1.4558640417479705 7.736630945345484 9.037045396794532 0.17726959255086244 -0.6443999561884579 1.249476689297261
P 4.277956902716902 3.715400211582174 8.282526376726421 0.05190825883351705 -0.21360699352931597 -0.09247075363691172
P 8.559915377868045 8.91333241545684 11.943344220403834 -0.28934397935131456 0.007086474533136183 0.44767508312646126
P 2.0234985903164944 2.746476940487401 13.410819261523065 -0.1636507162158472 0.6227057590444759 -1.3730171677557836
P 0.5378242137859879 0.9688220819067802 5.3255897237406415 0.5821049548039782 -0.6882431786256534 0.5829675599145895
P 4.881256040544171 6.348333684125108 5.037723042133269 1.4452530824030594 -0.728511539227397 -1.6154457135024824
P 8.190482851525195 1.3054693113401206 9.487459630287633 1.108931962971258 -0.9738680572541679 -4.2991534230606865
Ni 8.336011301892324 5.808158201570862 12.466530038294168 0.1941573694451366 0.49624579294631316 1.0743341703917304
Ni 5.99954375213269 4.273430986308518 3.415765227411295 0.801168343462175 0.6224517340521409 0.6495321352087007
Ni 3.069399236422148 6.302292603588604 5.9474239611029756 -0.16171287576318602 1.3049251000735527 -0.21199953983288003
Ni 1.6445450812852762 4.788014803317798 5.404756464818992 -1.9898680106813798 -0.9348862766743318 -0.28883310115316707
Ni 3.474615939245916 7.669008970715346 3.9587694077207805 0.45860175734129405 -1.5239679199064593 1.2907570361032865
Ni 8.403136529599589 7.8614064131570975 0.3554711781050378 0.7586083586127773 0.2608612985305894 1.231669485912511
Ni 8.855810961591752 6.07037618372731 3.601174176569613 -0.44403003017470627 -1.4702092381277647 -0.12931414771750632
Ni 8.358217729148091 8.035635796845682 5.719214745129036 -0.20681388186688254 0.5333617239620041 0.8048560767264075
Ni 3.6017371564155343 4.101804924456462 12.461131135163923 -0.3109918966383934 -1.742133222230419 0.36259188020287236
Ni 0.9161540294584896 0.7883125292507084 13.163384099830587 -1.2417479531944358 -0.14550464143443972 -1.4874816520549674
Ni 3.4191274681577672 7.495073955573647 12.821298411493515 0.18289670892965273 -1.737920469700652 0.2895815492834174
Ni 6.253896574677008 2.4682618676110777 9.063918485420166 -1.6377999128279663 0.9982498285326421 1.5787306174696358
Ni 1.9474319179975443 4.674498932424602 1.0971722877596501 0.7386267732845279 -0.8511621588817986 -0.1931109304584932
Ni 8.87938804239396 3.099415629187504 12.829645599601172 -0.7290627837451766 0.0037980335898515237 1.2278750518670853
Ni 6.9843353277080755 0.19796284778132808 2.1835145726989955 0.19099054168138077 -1.9516133380755551 -0.22099325869105813
Ni 5.645105623646883 7.918780682748739 0.69783927626678 -0.5194343152476345 0.6273252600943583 -0.8321789329110765
Ni 7.889647395624044 5.555534794239504 6.004577454284453 0.1343031162916655 -0.7609735164108443 -0.0026875741344921456
Ni 8.023125133602996 4.074842605365055 8.22616767862154 0.8121443828577045 0.6177934093445231 0.025867097574748997
Ni 1.3260015174854702 4.552170403158984 12.03966344874859 -0.15808633475419226 0.5593044119696948 0.15064967597048892
Ni 7.085598107837113 5.941902711045431 10.158894047898674 0.5956425842790968 0.4575355208603088 0.2970799145429916
Ni 3.9221297226504728 8.019684701211258 8.91884722620242 -1.3025419445533568 -0.740882144977608 -0.07920694664847003
Ni 8.393992706611918 3.1112455651655146 3.2352575145586413 -0.3629994000539361 -0.6581386459307891 -0.22192605491797263
Ni 5.898520146447999 1.9913572246032991 2.979662824707145 -0.37638224911874535 1.0474280900295057 -0.7705290213097633
Ni 0.6449430881946521 6.365112691297652 7.4504973585579055 -1.7380297415850066 -2.8363422771692055 0.42284336879476214
P 4.9928033217800625 5.636274567240281 12.210248181866033 0.4682043134280646 1.690214936094573 1.061488424777314
P 1.2997475227100097 6.415164543285487 13.479578234665553 0.035006083761539714 0.6119307799161591 -0.8595038459782746
P 5.538397025400442 7.5603133847774195 10.148190071612504 0.6407824140405286 0.17561045968088465 1.1195966417739556
P 8.167080552047699 4.406145205868984 11.060960702585215 0.30117079678291364 -1.8151481811355643 -0.9104021754900385
P 7.370059313317689 3.500345590047235 5.152797226521547 -1.562501300094967 0.6102870736651489 -0.002387269285253953
P 1.1115448320613948 4.074060688912388 7.713079621791127 0.4800786962681474 1.0924411644050864 0.712955593770669
P 5.18988306392073 0.9329459152549596 0.925133190040244 0.4037241314668079 -0.10989229154746881 -0.3974935771760638
P 0.8547266729369005 6.988548477535392 5.098350084168009 1.8706097045379784 -1.0792480627535799 -0.2648210545092859
