# total energy = -340875.0530512142 ev
CRYSTAL
PRIMVEC
9.21187175849902 0.00000000000000 0.00000000000000

0.00000000000000 9.21187175849902 0.00000000000000

0.00000000000000 0.00000000000000 13.48250546882671

PRIMCOORD
 96 1
Ni 0.29695113781268223 1.0595955610364838 4.27531632319327 1.1577456420398513 0.7683461547258316 0.8613972063462455
Ni 1.5984624294038057 6.436196692569229 7.989517265095807 0.029983433735967714 1.117315816159579 0.15168737320638392
Ni 5.30038210373865 3.6413884643233625 3.0646009254321833 1.1157626127398461 0.6200441530519127 -1.4222162551882538
Ni 6.2338118677400916 7.746226202072028 7.8853107282076795 -0.39672301755862643 -0.3278953572619514 0.39382641273712177
Ni 7.3408117213833455 4.0522195256674625 4.656843498954121 0.09351410729976153 -0.30640993369466585 -1.1602200717222728
Ni 4.258399641704138 2.5171716221682443 9.736553369841294 -1.8193457641566797 -0.7826607715762908 0.2714521866725583
Ni 2.200439831904237 1.206432798531998 6.727541485166117 -0.7916614324130044 -0.8098717847734439 0.06171238940813244
Ni 2.887949464652212 3.856669909760638 2.9690903955826857 1.0172628793000351 0.36809301252675963 -0.14139833257555004
Ni 7.8523838134207296 4.2272911504229365 6.97371862764456 -0.6963709499391104 0.6813878462667168 0.24604351679146655
Ni 7.285798422617774 4.9662306637817935 11.686541750722677 1.3504397966759 1.2797259751001056 -0.6709933904062703
Ni 2.5806506311758723 6.045493571245688 4.382043228223102 -0.795200041693882 0.338565692491604 -0.11887598310331784
Ni 6.164253023302913 2.912600433757482 11.356678437118026 0.8006332968943115 0.6905926526944365 0.8125380187516973
Ni 7.82586283432728 1.4560192547869208 0.7449539444981812 -0.28415009385520096 1.1665807238329782 0.18468388273706257
Ni 0.4743459966519935 1.7514347735600484 10.462222260594377 0.3446828611329354 -1.1013232973860645 -0.6088860795525642
Ni 1.012320234635795 4.280462074815917 7.470386832194867 0.6796963174969068 -0.760123252595407 0.24257998372289838
Ni 4.781974802778953 6.900806661849265 5.449696413578113 -0.01358339511138951 1.9476286423961944 1.3235537709183334
Ni 5.591725975148352 7.536904837730085 12.257538706960803 -1.1219162910460676 -0.5003397605100287 -0.05408161233575202
Ni 1.6705269029877083 5.658917368516751 1.7235089840074982 -0.17233358870182577 -0.2769574327615037 0.011017434156426186
Ni 2.3156619251660873 5.210944039821213 12.766827175963359 -0.03395295990667701 0.6087428691064807 1.681735437868652
Ni 5.566623624321797 4.9894998521076195 7.382386741475237 -1.6306964690139656 0.22029777528593028 -1.3862766038688512
Ni 0.7277489314197387 3.6834130237621667 3.661268604990807 -2.5199148113375376 -0.033005251281427034 -1.0120160290787992
Ni 6.860246790036671 0.5533073986996913 11.828189019610601 1.7642861041783744 -0.541087888961668 0.034546884736934055
Ni 6.752403406137048 1.0605259600946424 7.431408638781143 0.5347580900888983 0.3151807379087604 1.8001504221751512
Ni 5.7024434630692165 1.3429435276691393 2.453708273342783 0.536910617655527 -0.39716087642699344 -0.49945992900823655
P 0.9518166602399015 8.288814666671984 3.6744277639470395 0.430635096925039 -0.656252998872302 -1.7661424406608228
P 0.2532380422613984 4.765181560372785 5.485357411933988 -0.26289375557958594 0.10521776888993492 -0.5238229312336334
P 9.084858573709303 6.843260098321381 9.360593849434414 0.31514140003039276 0.20442327014751888 2.325249391907731
P 5.030013664560899 7.218975504123893 9.854956322457422 0.07477025103335509 0.36385583451696046 -0.2165773890115496
P 3.25557684695905 4.795599161264264 10.90674021615412 -0.320018525617036 1.1063374627712044 -0.6832480394039072
P 8.951811508392634 0.27907273690105777 12.72530097879234 -0.24304689605698784 -0.372444604627236 -0.0016532193327068302
P 6.193242784055634 1.4627070737594268 9.867993884705065 -0.39827570675772694 -1.9993137294753118 -0.6973173730127796
P 2.941037482198426 5.092626757613409 6.5343372118356005 0.2507681759606455 0.5925387485427925 0.31345989856291173
Ni 3.922599276683812 6.587870162792795 7.9838270918460585 0.6324885494628526 0.9235999051272351 0.0057716123764545765
Ni 5.949386112099471 5.92189788646041 3.7183002248815527 0.84836942662801 0.6442786001192452 -1.0919117742641775
Ni 3.7886770835401613 3.1410272203431955 12.187996443892976 -0.09250494930895681 0.1583187624799725 0.888281175221283
Ni 7.061130079752147 7.447568104403141 10.416071703748154 1.4295179310559896 -0.41932481411854233 -0.12942444804312547
Ni 6.928211980641558 8.517186182026519 5.560872652717753 -0.5451759429881127 -1.3396308789858542 0.3379879656112631
Ni 3.0932083935025925 4.4653627668491644 8.766500888061485 -0.6863840139297276 0.5277821729916975 1.2149146350516755
Ni 6.705653156432548 3.7462287779956616 0.3764284046847055 1.3669025702176136 -1.6148499889000123 1.8196931201937694
Ni 5.190668709850847 4.96518972226128 10.256789227365788 0.5016499946810199 0.6557920000754834 -0.04184393261897955
Ni 4.150528622188926 -0.192282164957034 8.7851328200915 0.4638668623949753 0.237236717133114 0.44939720802389055
Ni 3.705162253230605 2.943441780754658 7.221971204853727 1.4557125871734866 -0.23275734120552172 -1.0745524570501237
Ni 4.436290099249676 4.6656288611498224 5.009236287574002 0.11472442282878952 -2.0798589353192307 0.5349316395522852
Ni 1.881580099239887 0.7166200690221021 13.048328162287492 -0.4840322815992567 0.9592721617178642 -0.5582700571679096
Ni 7.904274287624759 0.059512376983439245 2.9556217177318582 -0.2413759361124682 -0.5770977313973739 0.09739544463203871
Ni 1.5243621321381895 7.582743112120153 13.026419567435825 -1.2908241418957962 -1.3752581412711606 0.7819174656523631
Ni 8.253256841280974 5.4120484144614 2.458737034192771 -0.551518597376689 -0.45589772814656965 0.2715231491198098
Ni 0.884972554440736 8.794785940616691 8.614417489540017 0.5901738478550416 0.4044604954122002 -1.6521461542473095
Ni 4.495900122074863 1.962957775277238 4.459339123837978 -1.3818964725232847 1.305261914587681 0.2599285023036749
Ni 3.614185806712054 6.843785175017569 0.6400334875406744 -0.721091592614242 0.5783064069934943 -1.1165018048987159
Ni 8.792648786344484 2.3935851492548297 8.322345880253144 0.012411743400791528 -0.16731813776510537 1.574119601060186
Ni 7.167702225334681 5.327474218887603 9.006920610625581 2.083257933698451 0.9684900807717061 1.1268864905671496
Ni 5.0449368969788875 8.116838230862463 2.2174541592351162 -0.5679510319010993 -0.3554907503817168 2.3846282480866803
Ni -0.14130642962899584 3.520261561197357 1.3943476150388048 0.25317138608549944 -0.022966636098502382 -0.6051939754129577
Ni 0.41337353797827575 5.800384084716161 11.403665431929403 -0.3050251375319973 0.5876726786997428 -1.1682596541972976
Ni 5.81035133007188 6.199414738203815 0.9880303709075531 1.1576821357917675 -0.592621795174902 0.36373370711679937
P 3.9261182117354614 6.102653236155328 2.5946268831663484 -0.14099415515859587 -0.9815093758495097 0.5485476876738231
P 7.179650023140935 7.3193480599426595 2.3929016283625986 -1.3500705862619395 -0.8074431207272933 0.606574400700252
P 5.2544332868862265 2.0646568406442696 0.3769184762678147 -0.5869093181711569 0.12852661881920444 -0.43457994050539994
P 9.2429158711339 5.72243322501183 0.10959456074077072 0.45157621795308034 -1.1744709252143324 0.8402804789722884
P 2.818915696911222 8.331318243447662 7.2183583087090755 -0.25154824865977965 0.3419973438809723 -0.48891249250969343
P 5.738968535005836 2.772183870950448 6.268138065863024 0.1301430713767049 1.0994350792244163 0.34414112969685245
P 3.169657718093262 8.428945661451266 12.130048242751865 1.9741053485304838 0.1655466476869794 -0.36295003487323946
P 5.213541787686566 9.190666133927213 4.381733709328507 0.944514029572083 -1.0711259478670778 -0.8239724858408842
Ni 4.435645268219269 9.227071451529614 0.27604110987095903 -0.41348609594957825 0.014024339303550041 1.0601761337237934
Ni 7.241922276934516 1.6100785998229925 5.180477616008859 -0.7666484553084346 0.3873071235613652 -1.6408237872559548
Ni 4.615562337574657 1.0558186935726719 11.781795269347198 -0.24681381929858784 -0.5374718894756355 -1.3781619451815168
Ni 8.666206633153553 2.840821528201331 12.28412693271885 -0.9939080066241788 -0.05508408545833739 0.6889286347284522
Ni 6.168905018593706 3.236664874024402 8.637944610278007 1.07982784651645 -1.1664876498985395 -0.1648406227588903
Ni 2.7415083376468052 6.97016284510546 10.557179156944912 0.4964990466076998 -0.33598327647640847 -0.38126734512518856
Ni 3.0903342894813504 8.97321068673028 4.269532188850519 -0.8429048039690128 -0.17713589518647557 0.2693464531834651
Ni 6.820792342847631 8.71172249202842 0.7061314317189405 -0.7428729501553916 -1.099816373823235 -0.39690633721402613
Ni 4.0348919946932424 4.277799843847522 0.8265692868295964 0.8009665118640141 0.687010591770133 0.7733577490078101
Ni 1.601272050322007 3.6752605171634505 11.26052123386375 -1.969128721251499 -1.9954388199009374 -1.616968835015228
Ni 2.578596383750433 0.6299022708657956 10.543400039012303 0.6907595172896039 0.811527575209312 -0.9226717368860111
Ni 0.7724836235606245 8.469229177107971 10.901050964091558 -2.106121725670502 -0.6368848787583353 0.6511249336171173
Ni -0.00067430902036836 2.5091849292630615 6.186003173958538 0.9806657969022918 -0.6656886903639052 -1.7811556262402035
Ni 4.773030075200023 0.7178673564723461 6.4620166482139085 -1.7342589616886648 -1.3954125047318484 0.21644034921305308
Ni 2.809768308151307 2.2188175162708337 1.1091775401516566 1.4657303764208047 -0.25460914697329057 0.8176732830957337
Ni 8.12696207803985 7.309979586258033 12.72635297455909 -0.7790763966591421 0.9749443210374822 -1.146652103229851
Ni 8.51678085966455 6.95283531413124 7.401342931394828 -0.5070338847007525 0.581790765997669 -1.9393255218471375
Ni 8.443435935891696 7.06591104124902 4.312312121782086 0.050372024694648736 -0.8535872233835236 0.20845861655915712
Ni 2.2579863954321215 3.3289678300912184 5.236240761144075 0.6798441559286807 -0.4855353485073445 1.0576065732244042
Ni 1.0948678183997411 8.09121080333972 5.814128197535692 -0.1562708788120083 0.30447980655148854 0.808486217279827
Ni 7.89760489239598 0.2017492056705936 9.366903060473351 -0.06333475550290382 -0.1510008886623206 0.2795038533324412
Ni 2.1842729967847494 8.624292616177106 1.655880947912795 1.0986393227959983 -1.4484870159593246 0.9674629250587726
Ni -0.18076456156678045 7.454698093225067 1.4537780063626637 1.8762656172721752 1.3303383979403345 0.5482391552944688
Ni 0.7903012261179534 1.07725471939777 1.8668420254463443 -1.147189978011192 1.281825537941612 -0.1881661848587082
P 6.872692028923524 6.153760701251007 6.133636445979193 -0.5070693659243783 0.6538114793103449 -1.16352496772579
P 1.3569732085164208 3.0590691963784784 13.318773981188892 0.31580577308726904 -0.14572009987935547 0.022688185626135123
P 8.267194403409626 3.455198110229301 10.184023730333115 -0.711896042157903 0.973348437305272 0.18799237828500526
P 2.079174750700288 2.295966943123088 8.705600281988298 -0.40598670224873956 -0.33208445564263456 0.5466389006868844
P 8.575073584813333 0.2915161334135384 6.577763818171947 1.6076493573865152 0.21765622389802514 0.27875591942282313
P 7.773060384808818 2.246674216784412 3.002554362499245 0.5512694574803603 1.3263269627880965 -0.226269676598649
P 5.497608280324532 4.897611430274636 12.773622773836662 -2.0255513230156015 1.53918962195222 -1.5215472262801084
P 2.3102821919981213 1.7256138967281835 3.35520231996973 0.2153859398066097 0.6044642963357848 0.43081790235980644
