# total energy = -340886.86068605894 ev
CRYSTAL
PRIMVEC
9.16198436658116 0.00000000000000 0.00000000000000
0.00000000000000 9.16198436658116 0.00000000000000
0.00000000000000 0.00000000000000 13.40949022806503
PRIMCOORD
 96 1
Ni 6.291607853440632 2.1893477470164515 11.22435968344786 0.2714922958818744 -0.21574615135950584 1.1155594955901045
Ni 4.4734304107727345 0.36039214612295084 6.022349048064242 0.7485286057792722 0.08186006800060096 -0.8058194690809412
Ni 2.697104911979842 1.6945456277271544 4.751009214010968 0.29934865597251026 -1.0099082387071767 0.057038638081546925
Ni 3.6176644375457316 4.43124863546614 5.18172233754719 -0.4914154614372053 -0.1422054018578777 -1.3952955195380101
Ni 3.8583680867322743 2.6200434627826734 2.926125198900753 -0.8842172895645545 0.49644402500004825 -2.5941888394607644
Ni 5.307509967372737 4.754291036755282 2.5492112466504384 -0.5299555264939325 -1.1116480763508403 0.4715007247911493
Ni 5.2254094268596205 5.04608190990133 11.634301672579744 0.05180875714117529 -0.8707681060381842 -0.19123273959917386
Ni 5.653429843236284 8.163978432715503 12.247342862903297 1.641314096628812 -0.8432452180275671 1.0873043573991532
Ni 1.9902211821785893 6.682787931305608 0.13189592469889871 0.37423769197191675 0.7017522688556818 0.6899514195660117
Ni 3.11731015582468 1.7712497595401009 0.3053579393654248 -0.6459631869105198 -0.8814278997448756 0.6210335135483755
Ni 8.406908444065273 8.916681245555043 7.134613015058811 -1.820578093901884 0.9979361539469651 0.011056257814161604
Ni 8.772196754550484 2.4010170682389202 1.1419588740202442 0.8904149337348342 0.8745494274574874 0.18989499462435683
Ni 7.13046080381447 0.8861535262590146 4.7436475596975765 -1.1285415096720692 -0.494052127729104 -0.3984680252741912
Ni 1.0854935653289888 7.553845256180462 2.4307788577493326 0.3837633720741649 0.6515666491402262 -0.5345855690667761
Ni 8.161055759752253 4.038245322743213 3.425239864158081 -0.6596211440135865 -0.9160431758258998 0.8767657183825158
Ni 7.820367376873081 4.324795540920676 12.752666604860295 0.04496422341551611 -0.7977420913894454 -0.09331716079760703
Ni 8.58373473933401 7.5682845432967065 9.173579618032623 -0.6359955341748467 -1.2965034516687606 -1.1018462597690701
Ni 7.088608859939465 0.9637033092146194 0.19795383085887786 -0.514054796103276 -0.6733084116926921 -1.2033804091598308
Ni 1.898225698717792 6.36505948085874 9.432731838626063 1.1750422243367697 -0.9231908426142746 -2.12226208287579
Ni 0.3844973265816062 5.107366422287474 1.3215694962906486 -0.09172307683760977 -0.8467529740705095 -0.9656019605906339
Ni 6.362100159958645 2.132543444909396 6.665548741814537 0.7821820321676594 0.11850111626240235 0.9908447943178226
Ni 3.5506994949488817 4.52629505966914 0.2647676007162493 0.19138263491347685 -0.05222733273583263 1.3711618597146
Ni 6.4936296052891125 6.060854119107035 4.7692058308520675 -0.27272616828897545 -0.01390966810255669 -0.35938777144327777
Ni 5.997114194952392 3.0481096890803916 9.009045040781116 -0.5637593624172548 -0.08709123449255324 -0.76815897841569
P 0.27457642101234825 5.876322595117002 12.46330274133169 0.40396658649491723 -1.990407171014301 0.8922990381314245
P 4.136425145546311 6.551542507485676 12.77056820580981 -0.37373401286262087 -0.39055725506754674 -0.31526378454086995
P 2.8384285184316695 8.569148860470392 1.1504483685899858 -1.3903826556174248 1.5672673540250426 0.8043128026284276
P 6.675403372031689 8.114815225440267 5.825967413695939 -0.012602776365675068 0.0755760347641021 -0.7787812340162266
P 4.881899152843518 1.0505680815173604 12.529424781381145 0.4527483838843106 0.8715152686168538 -0.015345629218134864
P 3.9641340324619274 6.289958696282685 8.129972812118641 -0.5041586200354865 -0.18353794205807744 1.8299068275019776
P 5.069518265512596 0.8913749410607583 3.7366621208726443 -0.9043348862500361 -0.6544712243815309 -0.3792773112783533
P 0.48696679039220797 5.759021711265932 3.4259774038870514 -1.226100990685798 -0.22404464392287218 0.7574724452361213
Ni 0.20405846093854416 0.37434218328233837 5.0953248264391995 2.9233592067803973 1.8590546527105274 -0.5080173316599444
Ni 2.1228867135511966 6.48608929228361 4.628406289897098 -0.6065939410842779 0.5816976920632305 -0.1966539106147452
Ni 5.954575102261576 5.763648513292393 9.053068374914083 0.8736402853796568 0.018003121445639963 0.4450505010194206
Ni 8.406166323344198 2.3191089293942304 9.925154590615813 0.6322208976237628 0.7458320327837155 0.11029338364062942
Ni 2.3482257152162016 5.276808158282295 6.948489138212938 -0.6512612020846655 -0.32994915446718664 1.281292034035645
Ni 0.7071787456928408 0.3399709995154644 9.014556890482343 -0.20650560659784437 0.21937243525818348 -1.0583272534405128
Ni 1.4812912832362146 1.3363212070684825 10.88589124934297 -1.0293784316166465 0.27698340090343265 2.8006715632404733
Ni 3.944133420929717 6.806896169425313 1.677553811809776 0.7958250768723907 0.16040649824693665 -0.14382288285664263
Ni 5.548909927359302 8.055876181012092 7.810330423170134 -0.186398294325008 -0.12760282145335444 0.5761209693064013
Ni 5.180579838116101 2.7922796039617923 4.659556120015449 1.3907945463438627 0.45022818856561814 1.3534029930692821
Ni 0.8489430435852088 7.436929175666245 6.682833741226661 1.1200478703787613 -0.6720696541895844 0.32362809734516523
Ni 5.222954015091123 5.211501534827604 6.754561083216293 1.3612461432627847 -1.5432792186405617 0.3098870936099889
Ni 0.6441168083697982 7.329037649599683 11.0476497453786 0.63511467423179 1.3717706969431924 1.5054109828398783
Ni 4.775949967429649 0.18847942298647366 10.380312804224912 0.9812316967080907 0.2044780346448543 -0.5911596088070787
Ni 8.58573205189197 7.612426983224415 4.539903354817464 -0.95784057147766 -2.0497857700829343 -0.888740631356205
Ni 7.550391188132984 6.529700337127092 6.996602382097614 0.07880945409973525 -0.21076746719799183 0.24688503885615543
Ni 2.5129765152950845 5.125745362614371 2.668635878441575 1.5801298118100078 0.7895862950515306 -0.9803179266445696
Ni 2.5129307053740306 5.212426895232895 11.756220196473064 -0.21187509843987384 0.771827942626845 -2.058428276249281
Ni 1.3629184472324796 3.463000982082957 3.5919064351354453 -1.0016097461438105 -1.5724077605754014 1.0365986035141697
Ni 1.9514843129352617 1.0479752399856996 2.462116508544006 -1.1297620123427317 0.24663229941540107 -0.5224085673846101
Ni 1.163746072473563 3.6447839108097453 8.290215915965803 -0.1630292805817644 -0.8142814838053654 0.4860207727841952
Ni 3.7647875800030057 2.9623260309145265 7.440375914126355 0.603484963141651 0.6179044810010907 -0.733806211967433
Ni 3.7724378368190363 6.882244327575059 6.094627025304943 1.2746812135873464 2.2679731838940813 -0.6220205600519932
Ni 0.8841104037800027 0.5931028802839782 0.09160793152868009 0.5691712774614456 -0.5454932171182153 0.09243707218549886
P 0.1282540359750996 5.56496172369665 8.056542257264217 1.085656537383085 1.7247055136722749 0.22818206313001346
P 8.797410535098647 1.842374242968661 7.665843183570312 -0.7063591715000739 0.04585613910216619 1.092370716178467
P 2.1446281020834617 3.4974775286682553 10.378006732799049 -1.5557665524742947 -0.7405257900794536 0.0014791556486877752
P 4.36662916082726 6.24315928093384 3.7811673753751016 -0.2633868931659206 0.4794312924921356 1.0404611717933696
P 6.943180684561192 4.27428552196645 10.521970823100434 0.7548843727939709 -0.027438298716610812 -0.03452040237437281
P 6.6114618842244095 7.809052326372725 9.956881625739445 -1.0311728045129078 0.6215873291693166 0.4802926120511664
P 2.402968570875824 8.741385001649512 5.736821307324705 -0.8341903069141505 0.06655891886715634 -0.6886249874451045
P 7.086721491192037 3.8865869981015853 1.4248928570296984 -0.27105212302066223 1.1578667409987478 -0.39769926542896666
Ni 5.280885241256108 2.8981646554861866 0.43476546915266606 1.0508103762381773 0.25819892120707794 0.12035411031074111
Ni 1.8606340775008163 1.5798192614393236 7.016837540425621 -1.2839852645970917 -2.6113861771756577 1.6200266480049454
Ni 6.961431357109136 0.7242191201265363 9.00983663621693 -0.377773215929001 -0.7419108433524384 -0.2935513325644428
Ni 3.2364525985021237 1.6067188470822777 9.528394864366451 0.10922894693185704 1.1156510268626465 -1.815851634960492
Ni 6.572450155454757 2.015251723042537 2.5045172552732384 0.30768700063487653 0.30955002198554427 0.09499043473497189
Ni 4.29539473358817 7.001322636363027 10.386092183865093 -0.8291080072952365 -0.14550721253760102 -0.4686645408939348
Ni 8.835762601005122 7.686483301600435 0.0769744103471657 -1.2260367131067658 0.013180246135699883 0.15980948809288606
Ni 7.671741669005234 4.209327053911769 7.724027280499516 -0.06932259765522254 -1.1184064781205965 -0.30204394341648627
Ni 3.2579557754449073 8.603240603718838 12.336395517035582 -0.8119363806119565 0.46752657063474967 -0.19897587387970248
Ni 0.08688401246958366 4.703011411127348 10.366085158943935 -0.13822019195788454 0.38767736241659034 -0.0729841056672098
Ni 8.688850184184696 2.778417521850829 5.681936440909815 0.18268870668390472 -0.15392166185354136 -0.44913932637681353
Ni 3.796387263546108 2.952577679714219 11.774444299266797 0.1321143361704628 -0.3612641625303843 -0.4618405759935659
Ni 1.022880565232276 3.4487907445719816 12.369543575910312 0.3498708330917781 -0.20824212967297684 1.0064182232760472
Ni 2.90585156023906 8.84574916379491 7.925692631162194 0.9161910142576737 -1.2305168603653065 0.7100322494762868
Ni 6.097502055950296 8.08382939483929 3.3212357679921674 -0.20691801154491463 -0.2455902313041319 0.07589999376242412
Ni 3.30539652968851 8.473112941972625 3.587588391976888 0.9473905797889297 -0.06457891232265006 0.38937506183398746
Ni 3.9560348384195665 4.147428688583501 9.654471096694639 0.4532438354634904 1.5070433762369788 -0.9364993867977227
Ni 7.523793947968986 6.399041280296654 11.467527906387112 -0.9087361006415252 -0.1172405043824239 -0.4729706244684564
Ni 8.250146894218222 8.93528923548721 2.0891449580996055 0.20569930864646507 0.6896973945736766 0.8789385576641184
Ni 5.007977217568549 0.3582262530555141 1.509587155272897 -0.4890307632551126 -0.7337969559960523 -0.4557167224840152
Ni 5.983673564115126 5.689610518884795 0.44059798830127117 0.05041161968333254 0.7882647480266295 -0.4305903597300326
Ni 8.142218720214817 9.055668546033113 11.255027593196722 -0.22218059413093993 0.7568769777439676 0.12927403850819025
Ni 0.26326045431357015 5.210090589259137 5.694929966917594 -0.7798374431948828 -0.667653784510076 -0.39770337919402476
Ni 7.485011268804605 6.004205570731563 2.438113026110091 -0.015963979528424117 1.8231828785145827 -0.49156638519277274
P 8.654694307046777 1.8147508605730525 3.302261298691569 1.024412345860623 -0.9841732958349179 1.215573608791913
P 1.989149230025924 3.368082825658909 1.402968228813217 0.17033429888360987 -0.6093619907477184 -0.22929766479169544
P 4.945098519929723 1.1594124539418476 8.04589511541283 -0.4078144994860977 -0.25816241154218766 0.9441255358844127
P 8.757042832665796 1.8540466108532399 12.280973758345938 -1.186061972486041 -0.806678988867759 -0.7541153558384303
P 6.693901418153326 7.750992832428787 1.0421106538923566 0.2114110143192617 0.3876418811929646 0.06092023252414024
P 1.7736227134507023 3.232329705607257 5.971044685078938 0.48466940096262334 3.738941154564741 -1.6514164751701366
P 6.824936116336408 4.018492084784695 5.533547112234606 0.1617864093135988 0.43943752570801736 0.19262679173322309
P 2.2802254684035295 8.4477617316613 10.094851945970113 1.279530314149532 0.5131857632347613 0.554735818762406
