# total energy = -340896.94007353246 ev
CRYSTAL
PRIMVEC
9.02488140528452 0.00000000000000 0.00000000000000

0.00000000000000 9.02488140528452 0.00000000000000

0.00000000000000 0.00000000000000 13.20882618563233

PRIMCOORD
 96 1
Ni 6.4544687398530565 1.8901801592083234 11.465498871001211 -0.032462748514395706 0.15910449160606147 -0.4140054587881579
Ni 4.630711706831933 0.13254843129230975 5.716422974029281 -0.27429017034198566 -0.009037684722236048 0.8457029355394404
Ni 2.719936768553067 1.4629332547479683 4.788925997983451 -0.025172128390253425 0.8370964248173519 0.387976381714248
Ni 3.503729657562022 4.336094457595366 5.066786750155918 -0.32487893903313075 0.17270254200547033 -0.4600549448480528
Ni 5.085917693483585 4.517557745400532 2.62081559501684 -0.4970016972757311 0.07929333571468924 0.17264520640497363
Ni 7.150260011545247 5.95234239545042 2.5445481283343963 0.2271495081004411 1.1718352873636981 -0.10603075170953352
Ni 4.822598732510226 4.720112180746389 11.450705285614518 0.8028837834913849 -0.5622190145133285 -0.02308953482961185
Ni 5.5964281525911 7.994086410798393 12.197016940198464 0.35583913486007107 -0.5096540959324191 0.8969861591944488
Ni 1.7407551999309507 6.428007787953482 0.5144083053303761 0.5256160185783141 0.7726607229407855 -0.6280153441828473
Ni 2.725974414126333 1.5692824556976912 0.5397230973079705 0.15764204812792207 -0.34561848557332736 -0.9586916066240458
Ni 0.4922377819891432 0.06368497720823264 4.554151833996165 0.5189352641240289 0.16350107801186034 1.1118640490163882
Ni 8.581272261222002 2.37558339860758 1.401562257098757 -0.194832026914658 -0.09833569705812098 0.5190314233822609
Ni 6.829299133865687 0.957458679392145 4.693293843548307 0.4006316085844132 -0.8986123819439622 -0.42497429909483586
Ni 0.8088125673688423 7.4064041919046355 2.733420843666694 0.5479884727362434 -0.12287533407069806 -0.5271964756915566
Ni 7.671618377945836 3.8708798776092572 3.7263157193868337 0.23909151095366568 -0.6374443508062312 0.24869818080549427
Ni 7.521561676979182 3.6948134688068013 12.634215581241243 0.1764193287354252 0.8341023751860345 -0.7718086593531353
Ni 8.160252524841697 8.962591544871671 6.772732983007517 -0.46951017672368167 0.03108309455804969 0.06298894212771089
Ni 6.66681517138276 0.8600919427758624 0.5477317769517912 0.9622548984952718 -0.546062459358124 -0.8178440043456432
Ni 1.7890653893983528 6.449423831220089 9.212653857739543 0.09489273281484303 0.36754459622245733 -0.5139969462821471
Ni -0.149317563190195 4.931357576760489 1.3118756944478693 0.8496698906069882 -0.658406297769879 -0.5181708751541786
Ni 6.318635251776488 1.8160949088182796 6.873753894052223 0.8362903839762889 0.6050271108177903 0.8727776802690453
Ni 3.290652210649008 4.330896125980716 0.3160910517433358 -0.2431299426890974 0.2664423921627927 0.009702057779112323
Ni 6.193063053710089 5.597348690481195 4.729050423161579 -1.1149486014789831 -0.47967914683688356 0.3913851502854808
Ni 5.119463177184375 2.8242282965719907 9.39254501122653 0.3035981752774836 -0.2504138779450203 0.0026487504767567288
P 0.21487430077495281 5.514581504304182 12.358177855086412 -0.4293706283903186 -0.7150957800421233 0.33415033703272773
P 3.945452471588174 6.293816828269043 12.634492645096397 0.09746666418960634 0.001520550409584478 0.43696746690097005
P 2.3354136520506197 8.434311094532823 1.3797671688185822 1.179661468276336 0.15431298375468908 1.0248414629782414
P 6.478168078082348 7.911228975808627 5.71378139127996 -0.15169765761902906 -0.6044205875820429 0.5710720940285842
P 4.761680783901041 1.015398417180436 12.497280155160944 -0.7188210514125104 0.09490893076475912 1.0184628131454072
P 4.000675720112559 6.207791659951599 8.073089318995422 -0.1202983173721412 -0.4188026230664852 0.5732696159005353
P 4.796426576811465 1.025343836345965 3.661314914488642 -0.6211476705287368 -0.4147209967979439 0.8750248244320092
P 0.22988267833600076 5.462462814938547 3.434056671627538 0.23153401032138188 0.24534649072444195 1.3789967823779863
Ni 1.45144458088434 1.0888970502875763 2.5893918609039037 0.22068858296644572 0.3097947910064987 -0.40696783521508617
Ni 1.9213701488962258 6.482012677505684 4.806374703441377 -0.32382607228858423 0.15771403901643807 -0.3772649088340148
Ni 5.8874986234864215 5.579632848537516 9.320688906511517 -0.15881138584567486 0.8801534039078261 -0.6400249670492139
Ni 8.705427552928159 2.4492174049338518 10.170650420055704 0.03764197872249001 -0.259474702595708 1.5411264339636168
Ni 2.2792969402799668 5.3260336846978005 7.031546723248178 0.37861448088337374 -0.8105664968476234 0.2852055317029088
Ni 0.5205894465159213 8.853742451808653 9.070817921126684 0.2986071498207954 0.4851951915591064 0.1056006061506504
Ni 1.4002193547649724 1.1376223842936484 11.443506137821105 0.36984779043433724 0.041955004275547096 -0.5847858440702509
Ni 4.169305626744057 6.963878163444969 1.7865727171900776 0.06628792459395681 -0.43143728111136015 -1.533284826432011
Ni 5.715222664819647 7.744485269363696 7.80546548965368 -0.5323785341131283 0.6330097120736453 0.5071416139232104
Ni 5.145770706102268 2.761099252050325 4.9320570050593355 0.700710972075361 0.40742806268095644 -0.35852516633266646
Ni 0.9039230836662662 7.375954242481319 6.985883531458861 -0.46155904019740507 -0.11239603180592903 0.061023590871223936
Ni 5.3140215677201965 4.383267512022063 7.365572019062058 0.2500696072317241 0.506892731137198 -0.8500131328790199
Ni 8.007741056168125 7.026339366752253 9.03459926759211 -0.05212371727843281 0.5295238382731525 -0.2107080747149661
Ni 4.520788652897137 0.22358240871761978 10.367343195013166 -0.1474378539014106 0.7509714108928099 -0.5838065108761171
Ni 8.230078031269736 7.1822532156666625 4.728152447474674 0.27609817008500187 -0.9746121345090442 -0.27388804980756054
Ni 7.180258716904792 5.963000780236708 6.8956807455990194 0.9305521680753521 0.1474064864428429 0.3712055900138123
Ni 2.401575056680832 5.237625947723642 2.5239686915620227 -0.9152749302013077 -0.6246448850487178 0.13996211434965572
Ni 2.2705608552053462 5.282831578032294 11.449833482083312 -0.45102163100119097 -0.8507111873873091 -0.03135511727251374
Ni 1.1503745415358375 3.381018346859936 3.8601213166408113 0.37319073876464115 -0.08596637685949066 -0.1693541943585277
Ni 3.572038983935787 2.6584773270673567 2.7372654430900294 0.021667971891736876 0.11074281247322218 0.49072023514239355
Ni 1.1689116476755805 3.3438809604115223 8.231687167601146 -0.2907058926958477 0.2834178436748667 -0.07766145653822108
Ni 3.8664396360217435 2.69197768636177 7.052681190218992 -1.2525632986423847 -0.7727465977863723 -0.045629367803340766
Ni 4.145155044450994 6.654748905117503 5.9103685751265 0.6281505842091311 0.7308440440153154 0.0275614545580364
Ni 0.7672899911086947 7.283656781677448 11.258423872624489 0.02899870122519522 0.554906025791683 0.30986035413711155
P 0.15492833187913277 5.477200446061332 8.010598333579928 0.3389343886849324 -0.03648986739591781 -0.9260427102407729
P 8.57455774955308 1.6153003253211327 8.161060251715849 0.4667305570960156 -0.3513890695085174 -1.2790037522221003
P 1.828531195215829 3.221178674590712 10.439899630515152 -0.323727599037507 -0.11906213097219495 0.37820233304661965
P 3.950100285445023 6.041968491396762 3.745454785107648 0.8512215513648244 0.8018681977426771 0.9740007261772903
P 6.725937168618133 3.927817853575975 10.413600223990407 0.8472592242829665 -0.08614146898477423 0.713943411605235
P 6.264242292329443 7.90226726870212 10.102044175087977 0.29385446562715845 -1.0740436357345051 -0.1515973845957389
P 2.2954875772880965 8.53407213215148 5.730648894383748 0.8133039503834444 -0.6542467670755507 -0.0120355910082954
P 6.841997141820223 3.9771207799836747 1.4612131123768706 -0.2805793457848071 0.44096861764056317 -0.16616576932821706
Ni 4.965155757136992 2.79722585179589 0.6731523570127627 0.6114001042236696 0.16567031774903726 -1.4417903206654394
Ni 1.5415580204195556 1.0885631296803853 7.068267160181668 -0.513534919044064 0.4845878969924106 -0.32692116627414014
Ni 6.853603139140432 0.9431993669769582 9.293755953321236 -0.8105544126627654 -0.7812968013492286 -1.1464284172548191
Ni 2.777551610615442 1.6229173251175995 9.140520689169376 0.012119151861037191 -0.009732396796415499 0.891018114536472
Ni 6.176863391820684 2.204796545351253 2.5505586992638354 1.505658065853678 -0.26813469226355113 0.8143210787940491
Ni 3.9350377585963225 6.808144812156068 10.315908591648208 0.552012763404288 0.694748583844339 0.10020668882858871
Ni 8.084082526877028 7.16836392338377 0.13731898353450453 0.07994665302797199 0.48924313637623473 0.3301766970969604
Ni 7.6806613089838205 3.62981627386112 8.347594620309682 -0.9657474850295625 0.7693054333153073 -1.018202360395169
Ni 3.086346948335717 8.355415582422973 12.382442150883547 -0.0672366616604713 0.0020075173483320263 0.26064995385073175
Ni -0.011407449932149486 4.95845929523062 10.130508650630698 0.29275763301855384 -0.8956864665464187 0.6256594423561612
Ni 8.730309150604532 2.345404195622526 5.792083066201887 -0.16783724349336904 -0.0854776101485302 0.3638465785455798
Ni 3.6870520709099273 2.601187380730897 11.506248014936054 -0.5334231733275587 0.07132857234165779 -0.09667707840877543
Ni 0.9273697252198456 3.2074789048146015 12.829706242012817 0.7862538882441878 0.5994897259393289 -1.434905163509832
Ni 3.0574041540853973 8.466159900553833 8.095028805376003 1.091013173709308 -0.9564411200269721 -0.6936658923031215
Ni 5.75481481897498 7.745649479048226 3.604411233070772 -0.41221237144347717 0.5083510608502794 0.10977324947110127
Ni 3.2361058282202806 8.434645015140015 3.564876838155602 -0.38832013820691186 -0.5596484255726748 -0.00295471175294975
Ni 3.37312157574393 4.416091005220819 9.358123211553893 -0.013738689742331176 0.23775068065505506 -0.5812377217076764
Ni 7.2340379844251075 6.120078838835649 11.246536299008486 -0.20215735693147766 0.03477982668334655 0.8118008834753568
Ni 0.6546251782424228 -0.09861036525603749 0.21177335156871344 -0.1834798351266324 -0.30432656880307585 0.19793946219538813
Ni 4.63927631916232 0.3854237996537356 1.5726956657960605 -1.0735723525250414 -0.8966357178335655 0.19435508727823947
Ni 6.066209322502579 5.823575389412516 0.23755924234888554 -0.9573739162538866 -0.3827652698269537 0.4952872856877857
Ni 8.028967576927949 8.790008740241532 11.10274467062324 -0.2871428579349377 0.1432310149089146 0.6166083878974865
Ni 9.264852868548529 4.782302637615409 5.80365476897325 -0.6899429349255795 0.15917931070805488 -0.11066876470217715
Ni 8.134991882151756 8.943413672161372 2.4419947924491217 -1.0479469386474531 -0.027360908511456103 -0.45385935756030216
P 8.556923131540879 1.7327501302396402 3.5435718009286834 -0.5290612968144371 0.5384720486053758 0.46820508475901296
P 1.8102558106330737 3.235699708562886 1.6541542441881343 -0.5792577151631702 0.006484579283079155 -0.3559260381469225
P 4.781057203999399 1.0004351640257652 8.16139056237053 -0.312580581281752 -0.35747384225001666 -0.011196640046767814
P 8.426468472704471 1.394235858479359 12.512958178912628 -0.12942984735976418 1.4158530319743874 -0.3754885336598824
P 6.407385934239113 7.835104102250336 1.4651759377449138 -0.21829540014392085 -0.3069784046036262 -0.3664883870438011
P 1.9354309139233532 3.147842489346529 6.112146870682669 -0.5457549554200343 0.20959787236992286 -0.5943097244002862
P 7.024299743584004 3.893857225336514 5.98901409802502 -0.48215897583594375 -0.11682989920756653 -0.31243505684282324
P 2.357425337481405 8.49413703250768 10.20635375286945 -0.11282643447512826 0.204761370213228 0.24455484806108208
