# total energy = -340862.04556699726 ev
CRYSTAL
PRIMVEC
9.35055676864599 0.00000000000000 0.00000000000000

0.00000000000000 9.35055676864599 0.00000000000000

0.00000000000000 0.00000000000000 13.68548499967718

PRIMCOORD
 96 1
Ni 2.254774495470184 0.8277411839585888 11.789689381781022 1.960114947788663 -2.431838844334212 -0.6896598564675219
Ni 7.276472167522169 0.8260618240095702 11.695710678531544 -1.1431672300050442 0.8973358292243836 -0.46627187229204214
Ni 7.930272429188811 5.901463482315415 7.170373272925709 0.7549226822310741 0.14009118372835228 2.1858071546172875
Ni 2.9877552696551413 2.946940090493303 11.998009495189653 0.9628891896451611 1.983718446140216 0.004715403197798331
Ni 5.791341978308778 6.981190943524072 6.017466486366221 1.7301171716061492 -0.7309492021346121 0.6018700532460474
Ni -0.07884576259529269 6.909790094021255 9.948389014694149 0.5532546062311892 0.6781158603836644 -0.2714979523088292
Ni 6.689715396025144 7.526758513598898 1.8115338054960823 1.7444199613820666 -1.46816006890822 0.4294516181398991
Ni 3.5756341079332477 7.144143091806628 12.473224413146323 -1.1272307612804457 0.25562190450852107 0.05971001426612297
Ni 7.96955411708317 4.050502120243432 1.5393157291274644 -0.4932466011086732 -3.10315182286343 0.964014818609172
Ni 8.833695147420043 2.0236661407934387 12.91321297956659 0.5034623652994104 0.7738267182244286 1.6373499697747413
Ni 2.3763410806438516 4.875174451555763 7.648092269915491 -1.3431805440103255 0.4417114093438586 -0.1956072145177857
Ni 7.313481670184838 7.855056552630316 9.010482379113332 0.10453694077282642 0.7635788152441754 -1.5587045520566962
Ni 4.838342609466764 8.97599191637419 6.669388221230202 -2.37190360143116 2.088594772530332 -1.1212277496194754
Ni 2.0054699578269006 9.445184140883404 6.769292372139441 1.0674276730798842 0.16963650148563686 -2.885977937918462
Ni 0.2634575399753241 4.704676404170435 8.88859881007401 -1.3846169567782411 0.8773750698317406 0.5834578692874468
Ni 8.036251636661955 1.2566212892461497 8.31643638717625 1.4490629430674526 -0.5121516655432922 0.893711859318551
Ni 7.122711616287972 0.2065622087849376 0.5374017290755055 -0.2749578858329716 -1.21392013234889 -2.823754413201866
Ni 0.8215791672191498 7.534799992196648 0.6832395537796161 0.879051686203215 0.1999796325538685 0.92474918824033
Ni 8.594891284736379 4.0211881255876785 4.521807570523683 0.8770904487117862 -0.612734506764377 -0.6581237335324537
Ni 6.101845908303546 1.9344524811409531 7.291146930907412 0.5722727992049047 -2.1480327640819907 -2.7888349756168616
Ni 3.4338609701436047 2.1693945639863936 9.56942498521865 0.3975005191545993 -0.3377750782695086 0.38191474890120036
Ni 6.890312884812983 5.541551211727026 0.2315094935509822 1.0085650944157212 0.5700056004372829 -1.6246458919445117
Ni 6.436829595238908 8.115516304188851 11.236919078027304 -0.9917593357122919 -1.1633779006249643 -0.0949482686431268
Ni 3.297894527946058 1.0482254363297947 2.9835175974452572 0.36450786627866255 0.8835873692900396 -1.4108728051509767
P 3.2508331770362 0.11729992623860536 8.463815183593047 1.388575427205357 0.13683513868489983 0.799294780588546
P 1.699931173338418 8.170871598722202 11.266985792482032 -0.0004324595517282875 -0.7329981142438409 -0.33740998162060604
P 0.4671079854633554 1.5829650619671845 6.435133404288173 -0.70016512687422 -0.2620319217999229 -0.33820882337281755
P 5.065402173175108 6.353067310031178 10.58564066145114 1.0047912291955858 0.951488146897071 0.8998809642437405
P 6.446030542843777 4.035447724263922 7.539689398195211 -0.525909638559333 0.8982477995156917 2.264850321994383
P 6.290764552011629 3.6635386896744713 3.293467039439041 1.8545845327543158 -0.04398823265549198 1.8414472240414093
P 7.454964940722702 9.385901612616266 2.4779760195629086 0.06469666884743697 0.7124796825755149 3.341747368017283
P 4.586831340487354 1.0503854148833767 0.8469575126402598 -0.42075563302779795 -0.5625745980805344 0.3664868443819043
Ni 3.2107192896125376 8.582632705153063 4.498322712795648 0.20128780984233077 0.6459521311669262 0.08830710917752534
Ni 1.9242977767721658 6.829422060826295 3.067026482571594 -0.2621941584094 0.7713006093684651 -0.5017052733989875
Ni 1.2106352523348276 2.6909686060590943 8.419747880877374 0.2585979564177095 -1.478263475890809 -0.7247063065486938
Ni 6.059581392882811 2.956141038098171 9.257724183990726 -1.160576426620427 -0.3476355160033562 1.3450535926633223
Ni 5.008382479583151 4.214651139759141 10.960704573806733 -0.38395954724537096 0.1297167824725637 0.604940464641255
Ni 3.8232368442918907 8.086249062315643 10.207797763701072 -0.5161813555279755 1.4296218036237056 1.942039835454507
Ni -0.0054055567178599535 9.282194590374813 12.520138025263337 0.4881144220884303 -2.7483753249399188 -0.1012811528396901
Ni 5.351052323968921 7.575465562454343 13.579038991959472 1.2568087041823 0.40874292483763797 0.9043001763573587
Ni 1.132838622179846 1.2841867298347174 1.555177078133702 0.23594422357393563 -1.761376386730747 0.8157827509412401
Ni 2.960750862457114 9.091938817085941 0.23764813389914868 -0.46390285783923324 -0.3821322642286451 0.9035360444978245
Ni 9.131482320562553 3.9802513891912232 11.947086364441573 1.4604246479371752 2.0677395263478777 -0.9384025173577063
Ni 4.8341255084812 0.30497681604229104 12.440625567988953 -0.16868416487469656 0.3786563898649027 -0.47214581457431587
Ni 1.352716958489268 1.596626225026851 4.205275336747555 0.31646397549655825 -0.6122742792985069 1.5020628923032517
Ni 3.013057875568528 4.907443222068364 2.5314181902345174 -1.8517465490848883 1.0007114026992572 -3.5004715934657904
Ni 5.081859152630969 5.503223280596585 1.2844083380239812 -2.6709624940773935 -0.39558967528513167 0.9381870589127908
Ni 8.97883448555293 8.512755996361216 6.894090509642623 -0.8420763945304466 0.24870255168086844 0.01958589255172756
Ni 5.042409154719446 7.467662996461941 8.382605600312276 0.27084386366459806 -2.034054732500923 -0.36128164603188107
Ni 4.242992676537957 3.023399591067496 7.366486234811825 -1.6953183187594094 0.37965217811926877 0.4912398550912894
Ni 0.47197495012629626 6.590113268091146 12.218373125381893 -1.1636062145856865 -0.08084396803126076 0.403144347703938
Ni 4.695662467695747 5.3514543978988085 3.702293006181723 1.3660240242674022 0.26632360719674136 2.1104144395085846
Ni 4.324800695435305 5.000537362672089 6.225526654303902 -0.4650770806529926 0.31555123387430173 -0.3669730399897035
Ni 5.649363128275937 1.8275849707994525 4.112652464191883 -0.7463619371452566 -0.8604914067025243 0.48768247675733434
Ni 2.4507902115686067 7.260669727021937 8.581086123106473 -1.283049125936068 -0.8908759325316529 -0.3924680989370144
Ni 8.312728891520427 6.348775404593542 5.068022199108932 1.0670006128447946 0.8147321981895388 -0.919252683902133
P 5.008887409634638 7.429204157540374 4.20327805787723 -0.5086865898128271 0.07733569776768617 -0.8568162718437825
P 3.591258887859807 1.5597850323813431 5.128210796301793 0.13329035875643497 -0.8403727815757784 0.7747438307220593
P 1.591006540564935 1.9621955823031922 13.336586542125993 -0.14958961013709074 1.0740300088877504 0.6855890288322579
P 6.848020317722721 9.152782888290083 7.007063933384509 1.1268037010453562 -0.1370436551512801 0.002915888095214333
P 0.9131435567780009 8.849002008425295 3.0944937423168177 0.16343937153598947 0.49639003183366126 -0.5795006844119116
P 7.612615323464649 7.515266679649322 13.073825618610591 0.08994670166347736 0.8694290755117864 -0.1638224659070211
P 3.168436073078784 6.758675750279108 1.1435347237705051 -0.2899651578750813 0.5045586836873827 -0.9483812258369732
P 1.1455273273625757 4.349439411836552 3.40122565781585 -0.7337049105028783 -0.20172849692417516 0.2977113774794034
Ni 6.978507333805985 5.567704718282734 3.3238479325924724 -0.2348643602461955 1.4788586862726467 -0.03400823862464466
Ni 1.0852910423315192 9.196403234404626 8.7689603096525 -1.3708931794342456 -0.07567913600086966 1.8508921715043931
Ni 4.843709828902936 8.709089631380944 2.451850564676729 -0.15764924721677367 0.5389407607116783 -0.44119307494654336
Ni 2.191910704060095 5.227484719702325 13.424926859800536 -0.07028958955418217 -0.10666658552131952 0.21338793553997443
Ni 6.922011271378533 3.358579639689547 12.192754470658501 -1.1742264133036937 -0.033467278519510105 -0.5490138286769641
Ni 5.404313093844254 0.2797621053600887 9.084191881018224 0.2517446809413019 1.694375752340482 0.6993084353008795
Ni 2.384017887537751 6.119032231167111 10.855230296385077 -0.5167266865084843 -2.0298476363981104 -1.545777302472067
Ni 0.9827154374276552 7.779429251585426 4.981379942496425 0.3288168406349563 -0.45224341922343403 1.254838724940123
Ni 7.647689260929953 1.6367401124505137 5.340007446620476 1.178741527565228 -0.3888667547390013 0.1387891770874771
Ni 3.2119348619587087 7.148678111713498 6.440826958146511 -0.030091677179057853 -0.5427254245650911 -0.7699353535898223
Ni 2.12607343568014 3.083785485002697 6.13877499618024 0.03741675008556137 -1.022411256270194 -0.36999100088042086
Ni 1.7279734923089456 5.314416843566611 5.314265364551165 -0.012025820816282515 0.4822425366886856 -0.2827370155577582
Ni 7.397674080991984 5.826939546938587 11.62113905531652 0.19257048457399092 0.04415741124350459 -0.5957515990531352
Ni 8.57359071700885 3.2307668827678593 6.9926528556928185 -0.1104975292316355 1.296952109170405 -0.11489642963027953
Ni 8.232463714447066 8.62318606873265 4.335137735656018 -0.33142162524765506 0.7183909058536273 -0.5422556840175242
Ni 4.11223449431593 5.28848775036712 9.049431187195971 -0.11278658237612835 -0.7829885872293547 -0.9358219011147237
Ni 4.986202959543774 2.9164572762739236 1.9670008332931734 -0.3162433748453199 -0.03838014244009519 -1.8264628348174354
Ni 8.902823811691169 6.093907285827395 2.2292558917014387 1.212376442010854 0.8906591885351564 1.6228353210983342
Ni 6.882439716232394 5.545852467721172 9.297576255832137 -0.4529964953393747 -1.139646361335979 0.03453145811796634
Ni 0.6570766966673999 1.4518889608238514 10.44084822896474 -1.782620383711188 1.7152011737262656 -0.22614960608101697
Ni 2.8046807237651916 2.9448642669483025 1.3227652558796001 -0.5091840982745359 -0.5838489340782784 -1.2057715350998266
Ni 6.649536054705918 4.641494693839039 5.751215000106003 -0.2753849460680612 0.2069316383916694 -4.714530051164758
Ni 3.312677757786806 3.40152674573544 4.003948504552013 -0.09682080307549132 -1.2825043091761912 1.28718448826068
Ni 8.893968834677134 2.019542545372964 3.008999734043617 -2.3970073384773234 0.08884832639297602 -0.3537634832779649
P 4.923376570359721 4.088989010834526 13.096776559561961 -0.2911614921760276 0.8356753761001091 1.4654719805530956
P 7.988264580657704 3.3156699358696904 9.94702102827688 2.282236635791631 0.9122816519009385 0.7444279533473372
P 8.448966499856736 9.341729583667693 10.041970319291995 0.2663575457584703 -0.7471132134889843 0.7522986143446656
P -0.3094753687787768 5.407632541404954 0.27881208881877306 1.938283196625552 -0.07575986864013402 -1.7089734476489988
P 6.983332220964637 2.2427777314691215 0.31438721611296094 0.2203700232847624 2.0685946752593214 1.1235556264217037
P 0.718255517794565 6.57389005254801 7.040580068135412 0.6824970201704956 -0.5173146978014704 0.18339473161199382
P 2.093047270090309 3.936322474711884 9.990185067233785 0.7503216931239529 0.7462344104284566 0.2195624397818025
P 5.283260789278582 1.9648978931342966 11.045937701553333 -0.6427076560876996 -1.1055154810905412 0.2218103552757148
