# total energy = -340896.8888591229 ev
CRYSTAL
PRIMVEC
9.00476706288295 0.00000000000000 0.00000000000000

0.00000000000000 9.00476706288295 0.00000000000000

0.00000000000000 0.00000000000000 13.17938681233908

PRIMCOORD
 96 1
Ni 6.31333236646886 1.7121574400993032 11.2896999250663 1.1216252421682102 0.7557873442242146 0.6269017994036945
Ni 4.6774092859059 0.47633237702357184 5.992258385411945 -1.0024021601381188 -1.4462689252620835 -0.17089865602751214
Ni 2.6613049320586963 1.6544008629594376 4.806258500482504 0.231926103553478 -0.6205838276054668 0.1739940071233842
Ni 3.176845866641109 4.358028201091936 4.721370559619155 0.702102710216565 -0.4364493896139709 -0.12784913313620563
Ni 5.037428885317962 4.471776420990718 2.5992647871381265 0.15357610558866452 0.16620099344152667 -0.3601110227625476
Ni 7.308683319186695 5.94508240979053 2.5185541578019355 -0.12047726615216672 0.545908193168447 0.44010395564742266
Ni 4.822151914678304 4.621111481060492 11.257950916697148 0.8864222676356734 -0.546795995090039 0.39800908335990165
Ni 5.721422000841358 7.668252680236272 12.397638383184423 -1.2641939409027778 1.192693618869946 -0.6491924924810949
Ni 1.823726506323646 6.460866473088685 0.44429701705587826 0.13558326855566974 0.4421130156576515 0.18961448726946054
Ni 2.7912167091707705 1.5490901099736671 0.3548454601503594 -0.5611787461742722 0.15469324991224329 0.9498364702262609
Ni 0.7310115077179405 8.999472446602352 4.574235364188493 -0.06061324280668271 -0.07201222867224372 1.0291514032075049
Ni 8.54831559785562 2.202322940571934 1.3924809989195488 -0.08450110516787382 0.44032532762960946 -0.7999632674104804
Ni 6.689092299033478 0.8497240558015065 4.744065274518689 0.7751359239541553 -0.5853023786953532 -0.007324558685871257
Ni 0.7554882660561979 7.604156746952584 2.6040093990020177 0.6902681794754821 -1.2998325160419937 -0.4648431102653156
Ni 7.5316683705921355 3.817679132736476 3.8035578567354253 0.5962899880551086 -0.29570231746917464 -0.4813619338559451
Ni 7.446735405892539 3.8015696041266818 12.464299774657562 0.732500605782132 -0.4814262114349774 0.007801755432605918
Ni 8.154501106955262 0.025746430520471486 6.812728653849204 -0.9349520969152608 -0.44772881918253216 -0.6313068704499257
Ni 6.900119019531256 0.4027679309767784 0.4459737047177808 -0.21254718480623394 0.8646478520730593 -0.3065855400405817
Ni 1.9202936303099138 6.626617223854745 9.203877961741394 0.3495090788769852 -0.06721249329075522 -1.2088108361467829
Ni 0.03936253907881121 4.678228719725626 1.4119339976091734 0.2644212479677059 0.1070252544123189 -0.4724615460425218
Ni 6.426414233591159 1.9169168425912595 6.872167321511322 0.00552658624518403 0.769054750757082 1.2218512142705087
Ni 3.5133360092295876 4.251816971381191 0.38935172825138303 -0.2707893562775788 -0.13259410402035873 0.3759235643147719
Ni 5.949080526449416 5.575157566403746 4.648975832838104 0.14562496906238792 0.47633337029310224 0.8373558491263257
Ni 5.219748407823553 2.920417109670115 9.284140153668549 -0.6028802396781165 -0.44408042379666746 -0.7236094739400892
P 0.2911979642757103 5.448262386320337 12.381309138253737 -1.2720010956520222 0.7719870939125286 1.2056926022327752
P 3.911796960030813 6.26631847665794 12.60682182782618 -0.30024365698295385 -0.9951704182763699 0.10334112069251235
P 2.4262895116075964 8.460753241119097 1.4191035932934204 0.10756544318650507 0.25979583338055257 0.41435461459746065
P 6.408242613281174 7.837371213953736 5.929920182695408 -0.5264300298391772 0.06656508951474342 -0.5760569488376853
P 4.638634758128497 0.819628322699408 12.622926854052348 1.1969079140616097 0.9070461145336121 0.02214876818289734
P 4.041744756211886 6.070329717467235 8.227298346832377 -0.762914442187299 1.1409707365743575 -0.1891033519609969
P 4.780892071139971 1.2358862954930299 3.7717431135653503 -1.1411620266495572 -1.1785391817464348 -0.811129568439945
P 0.2949448479283293 5.565621517886267 3.5051767896245933 -0.20848561314235062 0.1265558682460788 0.5218452386819723
Ni 1.325078515101756 1.0950157166380157 2.5071145014878597 1.0299965248166196 0.15331848105190368 -0.07294065402378405
Ni 1.9858213215863096 6.475130024412281 4.680263797124069 -0.32959742755472266 0.4506411077333206 0.06784986976443799
Ni 5.935960580566537 5.658973939964374 9.217676867074905 0.22177615960366967 -0.0786778136178774 0.12421719281057318
Ni 8.521832577374118 2.2772786231588125 10.151844928714345 0.31136959169278633 0.7839121274848886 0.5329256648658499
Ni 2.504117714947144 5.200991477642335 6.797585336765307 -1.0807537007648291 -0.003237790211007327 1.3664485133993305
Ni 0.5166098004549571 0.045538908935411446 9.03000220948589 0.39475303831644915 0.3713781110359346 0.0009816471869789544
Ni 1.4089579220331325 1.0291818632751286 11.42791229662919 -0.5426112675847301 1.6111141760066638 -0.6954651502953894
Ni 4.076539176864901 6.830953402285963 1.5860204614183222 -0.26819717007037036 0.19583707114040466 0.42297860882104577
Ni 5.717000660121733 8.014368919014727 8.083972167948358 -1.3308315355266693 -1.5215228008000763 -1.0363003555474606
Ni 5.114815855062272 2.93118681130081 4.953010993305051 -0.3795408493523851 0.5185740241298682 -0.26053682531163513
Ni 0.7531965527911377 7.398109662743915 6.893570752787241 0.10248391489853963 -0.9840025745850085 0.123265113309949
Ni 5.048585791940396 4.6013820360163 6.965306330605611 -0.007693511989515783 -0.6174349975638399 0.12305016908566549
Ni 8.166648537975169 7.170874361196595 9.29447312408763 -0.20786829127332587 -0.430807103726529 -0.3805368947170672
Ni 4.658445246077935 0.2951123365991746 10.49995212153172 -1.0789007067164904 -0.7233467071970059 -1.2015909213595757
Ni 8.11571757441061 7.182625582457512 4.7760385015923585 0.10419061317700119 -0.3043113992944243 -0.23232462454347733
Ni 7.173593800906018 6.125114721414685 7.115471630215813 0.35002921304651324 -0.2952904267427366 -0.5581646419382968
Ni 2.3039687532870574 5.170762473984939 2.46662816745628 0.0010310123676756436 0.1545335844059274 0.459041415981874
Ni 2.325508156548448 5.162352021373677 11.543574930045267 0.9669391913448185 -0.3556020791486004 -0.28254212593813277
Ni 0.9766750654418642 3.3125747233965184 3.669879385482783 -0.18579331375115746 0.2425596720079242 0.13590979865715302
Ni 3.3927351614537504 2.8395542997674026 2.910904473547484 0.16426443854044612 -0.6979136118358819 -1.4479427134200806
Ni 1.095853159992242 3.2574745525953275 8.242876594174437 -0.12928329447957088 0.7645010699481286 -0.34330732094164745
Ni 3.672423232230836 2.4943205281794216 7.005529725433498 -0.4585688472208296 0.9353151366816344 0.19038607532816243
Ni 4.210755232722353 6.878606630571615 6.113588619335011 0.40744246085865954 0.5916005529992392 -0.5019328160287614
Ni 1.0052832109943048 7.289845346100228 11.320210777938613 -0.3271399671531656 0.03453608610365665 0.3315003010043904
P 0.22346680645330183 5.61851552071127 8.10932959252364 -0.23424318172242883 -0.4508018016809011 -1.2093541102447625
P 8.435810035837303 1.7608732309204247 7.967835883774945 0.31818687172493587 -0.33623910124095635 0.4045016330627808
P 1.698019955517203 3.239077813104098 10.562329945224155 0.9619944457450335 -1.007449235643723 -1.9199607441672806
P 4.037233367819764 6.140323773299505 3.766576178117447 -0.4262917323546787 0.38891817680222696 -0.25086562077045826
P 6.837869063533767 3.884413462824338 10.282939932243037 0.010431222635653003 0.3878447412323901 1.0263625276084583
P 6.189453783414114 7.655087710517143 10.25050566108618 0.8379096647472666 -0.4988793739144183 0.11159898982593038
P 2.415582843347649 8.292643241333604 5.824880473203856 0.7096643246139068 1.2791001685906487 -0.12015099316099953
P 6.91693091998653 3.9560463862960606 1.5520175598065595 -0.5217889315227401 -0.1999598350595266 -0.7594737919368663
Ni 5.426632935386449 2.802220534749959 0.12952187069016008 -0.35769752822504847 -0.09994186520297627 0.9058909178832464
Ni 1.51931134467876 1.0787531069849758 6.929339489256678 -0.5500841789230075 0.39717913125943854 -0.2052082279426595
Ni 6.9391636903261515 0.5019572431861717 9.2195876786853 0.45134944665425497 1.2968464368304762 0.1779509348886032
Ni 2.71701742703287 1.6295567101173905 9.173130283490414 0.3303757004816439 0.14819787199588672 0.6186259325481475
Ni 6.3771941758040525 2.0162214158214495 2.455767517676362 -0.22864049082367074 -0.09112606668355919 0.3547739268203503
Ni 3.9701028279729127 6.787253266822949 10.504446400866069 0.4834211303778191 0.9955529984267694 -0.7949226196627793
Ni 8.114925154892632 7.098340960999897 0.30708597561116074 0.42000152847059274 -0.25237742942929436 0.45578434249715694
Ni 7.6539891289126745 3.8018217376096746 8.211021329551738 -0.3685085027976234 0.7772000055720357 -0.4267249632373554
Ni 2.9063516632260127 8.368283286231463 12.314067839769715 1.216467838471408 -0.43364868694038217 0.49148565255350846
Ni 9.41412396891862 5.104775539578807 10.229167964611184 -1.3633197379623616 -1.538861034968208 -0.8902714661784344
Ni 8.630493103776793 2.4886025009758335 5.761118616785135 -0.22095674902616785 -0.4474429125109971 0.05839386655786072
Ni 3.623365260254224 2.5514017477755564 11.45651143741438 0.15147371453368105 0.040165516475292116 -0.3814126124538012
Ni 0.9525963178160455 3.3443705565553685 12.548068422951768 -0.4344516424576517 -0.6983607266756295 0.6987813591528159
Ni 3.0429359728701475 8.504543424254608 8.005463204204728 0.7864454354297037 -0.7739935828195961 -0.313792342201666
Ni 5.707725749854496 7.7719425751170865 3.5551793616857035 -0.7384717357639025 -0.0028333556837370558 0.7645704897334832
Ni 3.3051547951827285 8.500131088302233 3.5464807565224494 -0.5951767003862717 -0.28750101260530486 0.671572917058824
Ni 3.1431320180580626 4.3436746020958426 9.148458121702836 0.3041705028411858 -0.5679698009541766 0.5661849411396119
Ni 7.312033092603601 6.009502514695207 11.417935914993196 -0.14101369554262166 -0.4559288384948213 -0.6846747445481047
Ni 0.6383848698801614 0.030094832625373446 0.23509286144944788 -0.5340386954243705 -0.7126074664026308 0.9413292040861981
Ni 4.665685078946731 0.3813681016077589 1.6691299607498455 -0.21389444286274778 -0.3330321642678845 -0.2569305960176156
Ni 5.833432300660938 5.5992453187968145 0.2996111183171473 0.5118868419176797 -1.222983528102739 0.6578262568966928
Ni 8.088009905583144 8.51365624871135 11.330714838935439 -1.083328917691173 0.9733029287793173 0.16512961475421886
Ni 0.0016190571515041876 4.911263091381782 5.805256383936486 0.11641903692239305 0.41374140649349384 0.01927633173110874
Ni 7.73930029383676 8.67406717249831 2.6656758460817227 0.11546592898050437 0.6991659961857442 -0.21489511621312024
P 8.432775429274137 1.5394099851801912 3.6645683737588834 0.08431984239500318 0.7043783936246192 -0.6654742603602539
P 1.7332736192999556 3.202068219707645 1.469119672505405 0.5956734375170322 -0.415837112680258 0.2925447456767994
P 4.77987453244075 0.9842930985351487 8.195839291968667 -0.0936218365222194 1.1239001542453162 0.27886184887306814
P 8.373587094141563 1.4799334974956242 12.312222762960241 -0.3433906246840731 0.6062291015456914 0.3514566895216592
P 6.191011608148321 7.517215719156295 1.4294491703866528 0.8379292051312924 0.5382483626303439 0.03751522333663861
P 1.6706184487762286 3.2850741642157963 5.943955913407587 0.7475351315177513 -0.36551548160757047 0.45095606787057824
P 6.7795361812899175 3.9496349920142424 5.826185263978344 1.3872790769914367 0.22099171602916134 1.671552069577747
P 2.3723599605488723 8.63947986149204 10.150210563458517 0.5738092904540892 -0.7313510655587211 -0.4811019953263391
