# total energy = -340895.04195406334 ev
CRYSTAL
PRIMVEC
9.06505922177197 0.00000000000000 0.00000000000000

0.00000000000000 9.06505922177197 0.00000000000000

0.00000000000000 0.00000000000000 13.26763048129484

PRIMCOORD
 96 1
Ni 6.431913221161116 1.8893214781206058 11.294587666903404 0.3186635542510383 1.105643007807341 0.7164893179555402
Ni 4.8051158532727 0.39857886207065363 6.0339453440707675 -1.1998605689320303 -0.8700772506187467 -0.6274676992094935
Ni 2.661456013246549 1.79283298953941 4.762733982672957 0.578089662996998 -1.0838932748350754 0.2631526656679274
Ni 3.457214092269768 4.237978563616051 4.9148610842158975 -0.041599677818657387 0.7826810832912648 -0.3778539485682654
Ni 5.281530031907119 4.440863650325535 3.010119940642772 -1.0985552477226241 -0.007157694090703801 -1.0237472014727982
Ni 7.30253055786035 5.903157391543247 2.632629125451716 -0.45825517263515264 0.7040086689900262 0.24029735833630875
Ni 5.200189257006794 4.758158847367909 11.494743264331435 -0.16775188286841433 -0.10112457265716777 -0.007084417650607154
Ni 5.805300079044749 7.859097988658894 12.320480400155374 -0.5994298192356708 -0.1877496661465799 0.08471604939215732
Ni 1.8834926451482543 6.321355760926592 0.5543056985643263 0.6686218048503002 1.0339148860344194 -1.1870860428751815
Ni 2.798963894051525 1.6728659980058183 0.21491079405181931 0.4990930325871211 -0.08668654285496684 1.1134977279650695
Ni 0.7575570136596317 -0.15989313763534097 4.62614439235025 -0.3555074625522652 0.18466665634588195 0.018148645884568746
Ni 8.621904578017263 2.2800436535083093 1.3239382773910953 0.14185624604857505 0.3396591826660989 0.16531113463740563
Ni 7.0690780920174765 0.745543090894068 5.035265011595939 -0.42404535952266326 -1.1083678629376719 -0.4055771255151467
Ni 0.7723856372617662 7.560186731380017 2.3742957920206424 -0.36005163027952186 -0.1774896789814685 0.46418336519412967
Ni 7.438751200279519 3.73426949216709 3.938668443738756 0.6582998540990018 -0.6656593797878665 -0.23165408083901393
Ni 7.839997909230053 3.864470935373753 12.348660949239587 -0.0649676631206365 -0.5415745987900995 0.7190964165610841
Ni 7.930639434720788 -0.3084921181940837 7.413036347258259 -0.994682680006674 -0.14210924259964555 -1.0703193928053825
Ni 6.956245301960153 0.5480045760152105 0.35407032861661236 -0.3606761512373982 0.20604872156608386 0.14963203333925199
Ni 1.8921316464276494 6.488578905313789 9.311886108951555 0.014686655477897286 0.5296863319929459 -0.9332220015980315
Ni 0.0393015635328613 4.979001816065306 1.354027927912287 -0.3797881894765008 -1.2461463393724472 -0.08068687362810621
Ni 6.333095012402789 1.912627744950957 7.094679631800548 0.9226583671495723 1.0370979117480912 -0.581982570293501
Ni 3.605572848763553 4.348227811842706 0.6302989951281204 -0.3929977461882393 -0.08307774245778594 0.08181661635717521
Ni 5.8589652286502245 5.6393188477480845 4.87412905436416 -0.02797411661542279 0.949354902604152 1.0176752842471053
Ni 5.228272809959118 3.098555030759525 9.056258695648392 1.3035511025441615 -1.022375260825936 0.7647622940293152
P 0.21093213963258906 5.6455374782598 12.499116453892789 0.27283955393838816 -0.042035479804495346 -0.3370646824660453
P 3.982905931927053 6.154386438192934 12.663582007315462 0.25896742394198624 0.5133500567267675 0.7150315024630912
P 2.3290674928776354 8.641929293469712 1.2103086686428397 0.5162587457331302 -0.3393971872539639 0.9433354358829495
P 6.364015928839323 7.671133989153904 6.026900886679143 -0.008608567604617432 0.22475889638107743 -1.03811478304838
P 4.829627772957363 1.061899147818346 12.561858447130016 0.1841807178483989 0.4187553147683175 0.6884617223943628
P 4.03588213704435 6.252415986813476 8.21325987437196 -0.8999149028054695 0.708547180290328 1.4100703638543393
P 4.720520722171637 0.807374952202174 3.738910802403239 0.0001483526524061961 -0.0335040452947165 -0.36622639163166604
P 0.09643591123867723 5.64127690050396 3.6625032326406326 1.057301897499792 -0.001452416175810402 -0.9444070716805735
Ni 1.4955443778313746 1.1864802544109219 2.643389350549976 0.10506530247247066 0.25650147889999697 -0.9121135017541904
Ni 1.7760898254648636 6.566012639761419 4.905162377532976 0.4667107596016737 0.2673242805471138 -0.7751127840257038
Ni 6.128569150004354 5.752623020876266 9.053591755274416 -1.168634521038213 -0.06657588814802082 1.1712251645835248
Ni 8.718701278606328 2.234809008823964 10.234066408061416 -0.09614640271628602 0.7559850620573174 -0.6329508338112518
Ni 2.354766935298501 5.284539631513372 6.953047149125557 -0.9926563936052647 -0.09552908084726128 0.809145962351013
Ni 0.521850067629785 8.966349626929299 9.33199966198274 0.7537350896808761 0.3542681908285254 -0.18561796451555773
Ni 1.4754562069655413 1.3120222572633256 11.472453190621147 0.9337611619309532 -0.32130639119052407 -0.9126112673262154
Ni 4.1978928724749345 6.7915694391674055 1.5668274697102018 -0.8271539688926592 -0.7040307804772132 -0.19978602848582366
Ni 5.454799570683988 8.089613375367954 7.956783971541252 0.6631448408961289 -0.8928196865215848 1.263334678226276
Ni 5.19967254864066 2.5657471197440813 4.8931946865685925 0.09746717841023858 0.5024184974159283 -0.20000200115137168
Ni 0.6750731348124726 7.520490837778264 6.910524770110462 0.9772603707651687 -1.0475396759067055 0.22903155561450234
Ni 4.8565328682325415 4.646649555932612 7.19292674183841 1.3328729914367303 -0.2563598111158101 -1.1931145084574484
Ni 8.16485336552428 6.9532719625901205 9.207350567447252 1.125741321219113 0.8148802937316288 -0.1103023825016939
Ni 4.736248599632025 0.39795518600767105 10.40913264154298 -0.8434529631629989 -0.8040587776360927 -0.05579345282053617
Ni 8.14287966237501 7.196387781385601 4.808653945821859 -0.5421785509226856 0.2724703435244275 0.35599314393943204
Ni 7.294462655301419 5.862373690854898 6.9818114880129105 -0.05308813807423115 0.447790525658403 0.07204848122681785
Ni 2.1271433024279793 5.227275653463071 2.6952396753326453 0.5611085550579692 0.0655747005770161 0.26648970046096043
Ni 2.319848327818722 5.49733282776995 11.453109261103727 -0.5437824050746957 -1.1770422854859341 -0.12963013629602835
Ni 0.8882189618662875 3.373525467074202 3.8179726214571437 -0.03817573973877297 -0.08250335801155469 -0.3737496965919047
Ni 3.9031515423613476 2.5993422286018335 2.5671540169094142 -1.1618707199518183 -0.41730572680598454 -0.16643650649110048
Ni 1.0417203263619628 3.418497225045953 8.120864259954088 0.205863087917839 -0.050794714054364136 0.20529770233267225
Ni 3.6658373613610533 2.741056296808319 7.1007958271449425 -0.9493998969094745 -1.1734057171746113 -0.43724000383606626
Ni 3.9612585709037633 6.918090468397747 6.165083207877809 0.43203351993446243 1.0458653735280763 -1.2405680739537215
Ni 0.8662071854689876 7.522013767699501 11.49640126363259 1.0110624069162781 -0.4561512389182725 -0.3768249930831188
P 0.24214404446478713 5.524781826588425 8.05274849970907 0.25155467641768287 0.22556493722214058 -0.6204138776865057
P 8.68378267112655 1.6154479139515814 8.030896268351139 -1.5815248923853213 0.22116552260286426 1.0270929780165794
P 1.7778937722168044 3.364487603196388 10.371545280677415 0.13259641801320388 -0.31631870816794555 0.6350912771930223
P 3.7866836636229784 6.217805591341567 3.837171510029684 0.26477117510795695 -0.9019597011496402 0.14655802239961854
P 6.843077104717796 4.0008456837968565 10.369966147390038 0.544382757662856 0.0011963343009463265 -0.23764500831512622
P 6.412604645374009 7.8869911753710635 10.076791259481153 -0.2284718264562904 -0.5769033559983806 0.9311869734458736
P 2.4589607240764293 8.809922967876583 5.920892273078408 1.1124235210642843 -1.903288168607606 -1.569671335480845
P 6.927608780405475 3.750196800926688 1.7052753971391792 0.6294204520604901 0.7691498815740496 -0.4354875399213339
Ni 5.5387238874149824 2.9938535986745176 0.2591192740511407 -0.3318980506634413 -0.8904074775356664 -0.5526154299852934
Ni 1.3275960287197794 1.135253605691236 6.903771301114503 0.47196506602207755 0.8233790752312593 0.8538517898988197
Ni 6.887278332669874 0.8329746789734346 9.215311502309335 -0.008614995362520647 -0.17923468669703327 0.2977296323118485
Ni 2.6364817755500822 1.6879321261551934 9.179767405754765 0.5391240803670779 -0.5536700965020529 0.2705497294629469
Ni 6.298937869883629 1.7766246639491075 2.4910900128849915 0.5698351362976894 0.015604282196160224 0.505343127261891
Ni 4.070574118047754 6.911799317413592 10.528408875576583 0.8031072123561007 0.31247773715530053 -0.668581438530668
Ni 8.001111203814194 7.240326122625084 0.33064349650083025 1.1687106256917874 -0.011357076884032055 0.08358784932498507
Ni 7.648997114941646 3.722557435868057 8.329948940551272 -0.18210635181787346 -0.04606979777486904 -0.6558902162162445
Ni 3.3656116705192054 8.483807468373714 12.517252917544084 -0.7331706352659632 -0.6902105867646694 -0.4420243125985871
Ni -0.02698033526533389 4.756844413804937 10.220041855197458 0.6575298087021967 0.08876605109181487 0.19530690966854752
Ni 8.647993817977493 2.4449189476002666 5.9431687492001135 -0.5377973911358543 0.6356877731264406 -0.33201914962233786
Ni 3.8192362906894077 2.795482911374413 11.307828998665011 -0.29162840451011707 -0.48233201107869833 0.4738113752021969
Ni 1.3903806277345636 3.559078160870566 12.696631399618104 -0.8833749961689173 0.2484888930081656 -0.4467654268279983
Ni 3.048035456646127 8.535704931463469 7.986462974887253 0.08935303394353643 -0.34317336646694446 0.3559661473562386
Ni 5.507295327671371 7.6251922698632715 3.4955565725546123 -0.0939527374990769 0.9114252174379143 1.447869951200616
Ni 3.103676789125588 8.314182083336947 3.420939351955364 -0.5600492605555193 0.57709001808789 0.388166386237867
Ni 3.429393426030037 4.374598068633639 9.352432305092664 -0.8581825560636899 1.1854765322962164 -0.10473800104003896
Ni 7.425144546637996 6.196829044688346 11.426919398987987 -0.5069063579839528 -0.0996940108582283 -0.20517711759440793
Ni 0.5915304570676919 9.158701115016898 0.03228248830659109 -0.13858734548931617 -0.7678977543345032 1.4881503959872178
Ni 4.640458120598062 0.10510029468342612 1.467002132890868 -0.25209615074344965 0.850199023637581 -0.2816653797601342
Ni 6.04845215807645 5.434158431215801 0.5134104976495997 -0.00036561086953485416 0.4003881251150395 -0.3754502242227792
Ni 8.078644653911429 8.803749662660142 11.379301550278088 -1.3457465049652886 0.4119305785370002 -0.6139316123962716
Ni 9.025308771022882 4.903281377779067 5.639963373446894 0.5031026679671464 -0.3191875450753084 1.072313540417276
Ni 7.606817395158829 8.658962539434018 2.8540132781746963 0.8990173306918645 0.529496841689959 -0.4032780450683249
P 8.635112369060367 1.4977743823588996 3.7618245521765092 -0.21175322815002884 0.343596312936976 -0.7227797789499424
P 1.7488855832408716 3.308338627409848 1.561520784139417 0.6391338226935122 -0.5691270544870715 0.7498329264129925
P 4.77482042591096 1.0785516613023423 8.32677798289384 -1.0285219971536224 1.0055453337527906 -0.7550178130480416
P 8.500523437271095 1.638464098892173 12.356993551522924 -0.3622308973190278 0.9373722763209793 0.6035641531190187
P 6.268234514864415 7.563939665828778 1.4776426992096021 0.12100357096928192 0.2680076797673836 -0.8027811964752497
P 1.6928816483992117 3.3896612721920643 5.992750089701321 0.5461503910862401 -0.5147595354797845 -0.5753473243651703
P 6.6267576004888324 3.8968422612590827 5.9510227163653475 0.7855098109893117 -0.11790024945360984 1.3543075071614226
P 2.615106366298442 8.590240326738222 10.175330264420584 -1.6015471011435194 0.28553231891470826 1.1071031372926352
