# total energy = -340873.0689409149 ev
CRYSTAL
PRIMVEC
9.16946970113532 0.00000000000000 0.00000000000000
0.00000000000000 9.16946970113532 0.00000000000000
0.00000000000000 0.00000000000000 13.42044577181103
PRIMCOORD
 96 1
Ni 8.520729460790825 8.833325842870805 1.8705680943874567 -1.7260538001700532 -3.1029412495145205 -1.0450953281312712
Ni 0.5686208056113479 1.1971842667309893 2.6130548775052227 1.407902409668743 3.3461925482728305 -0.05151488004984031
Ni 1.8513158763881277 8.563110748461286 11.757799742582165 -0.720617738301617 0.9654903747134339 1.0170656756875645
Ni 8.895082219430854 0.2773746161345497 7.015981016798886 0.4934723439662341 0.1185157715504217 1.3093409697530611
Ni 4.1545857311382886 4.255238996988275 11.789083221410662 -1.734394973045897 0.9523533231108438 0.12450412792337266
Ni 2.886182195403304 2.1054477214307084 9.788000567052139 0.8469036407157609 0.38407293289478367 1.279544712327235
Ni 2.2859028796640826 2.084843923638513 1.077520856874425 0.7979662915851096 0.13337983314644772 0.30260650078817564
Ni 7.435926211301108 3.6082595734806313 9.17788057672877 -1.0507846652065644 1.6916953772948413 1.5995544961935226
Ni 6.280490538850432 6.762685427367631 12.203976038261128 -0.13916275837681197 0.07082257923951674 0.013996057168775895
Ni 5.376793479923083 2.4546302865061724 10.737738448896442 -0.6416923274493078 -0.08945664940093627 -0.6943775736581655
Ni 4.250406686602656 8.132411600220442 12.874997810594378 0.10800510182708495 1.4851586603487454 -0.6539333496001898
Ni 1.2713469354195834 5.382249314229427 1.6676376496527696 0.6838892725323319 -0.15557642384814496 -0.39141420375120334
Ni 7.462820265117089 0.646416418085108 5.249313097383898 -0.7867907345842643 0.2543114132272136 -1.3704815458181236
Ni 8.163716168828607 5.548207541305944 12.911246557115119 -0.236512951593212 -1.6491233082605856 1.37931997004536
Ni 1.6582251892906479 4.7141342637030865 11.187390890433445 -0.909397388374608 -0.30105895379539765 0.20723682833691406
Ni 0.25553660775809617 1.9022614484991354 4.966974130504046 0.010536637865265725 -0.09413117205847014 0.8233428226766852
Ni 3.052140422479821 8.35927344320072 9.777761020548116 1.484020175868928 1.9039692538350304 -1.1855009577762488
Ni 1.3960058722174864 0.982169378244485 8.567035281374086 0.10694914975874484 -1.0379463757913157 -1.1167990244241606
Ni 6.974619374128199 3.060979791003041 5.416169932463813 0.25025164133554323 0.21387233137556072 0.6841872633887248
Ni 2.3560951680927658 2.6009200016715823 12.108556705557461 1.0162418942346885 -1.3640746138505153 0.22983271135955904
Ni 9.0951508727588 1.099089282849859 13.158464622213188 0.9002931120804946 0.11649025647996067 0.47870984094507874
Ni 6.474864951667052 8.642793437742181 7.112218266175033 -0.9179139104860513 -0.5241198936487619 0.5287558497588765
Ni 3.799773111837453 7.348275253092123 1.6000797497891501 -0.09863523057641077 -1.1036036087798091 -0.5003055648379835
Ni 8.793447820352666 7.73712494288901 5.418611762171006 -1.673407634729247 -0.6068322823473291 -0.028043279290461378
P 5.0437125031534 4.635863672713245 9.41446939287236 1.4428023068697216 -1.8004265586546735 1.8616476102486843
P 0.7054861401043864 4.117220143241896 5.165046590338731 -1.012956024394565 -0.927614425603267 0.14340893524767562
P 2.2379007072376744 4.21128973004658 0.15923792293681954 -0.34550612836517913 -0.9490977922880234 -0.9512315508015746
P 2.98577180280029 0.9067605786613828 6.8442524426148355 -3.157255032465737 -1.155987264587848 2.7729468436316953
P 2.7628344927328086 6.2540641279749964 7.172932991008695 -0.6191270405542821 1.1447736552602155 0.7539837153565724
P 8.460531894032588 4.660529545459575 10.972233875170893 -0.4318663982289789 -0.8596079756563066 -0.8871881992674205
P 2.691642732137081 6.178443513648236 3.142907166398547 -0.060550507889547335 0.6653413343268154 0.03951477026517066
P 7.0866611210008426 1.6714659031366332 7.2466509404303014 -1.3320831485455833 -0.5940122477645253 -0.446838703268095
Ni 2.2490966294024584 5.668565996944728 5.263109481076883 -0.7333274725588015 1.265410586918698 -1.5050158042839887
Ni 6.67353984564279 4.775780606630067 7.179455234608867 -0.7983064485333478 -0.5361814527989862 2.2548911538991425
Ni 8.895870793801182 2.696053246929268 7.546142316811745 0.724410629685146 0.852328411275758 -0.7418522222003612
Ni 0.29892745401196574 2.499294772062817 10.187325458717208 0.15264228092048548 -0.2835489699360923 -0.1822485338226926
Ni 3.91889368910421 4.475507991453831 4.362664832953668 -0.07474479711205836 -3.18234617110641 1.7529963901971681
Ni 8.814014940267171 6.869445559852955 11.231007305635105 0.8248651728584826 1.2389559922715954 -1.3254967535773172
Ni 3.6138346108894672 3.4331868937982213 7.870460031654414 0.789493221117092 -0.5007261973151699 -0.19064884207124586
Ni 2.7685562416524028 0.6692548155755483 4.756662262884306 -0.45718045151373526 0.057049693825140455 -1.165445324676954
Ni 4.815594442862247 5.885368931968605 3.105517737881656 3.1887926980627017 1.5953558847311429 -0.35734400154037166
Ni 0.07535378276656758 5.553773409245357 9.165734697531821 0.8346518199316012 -2.153769923676084 1.7094082211935722
Ni 1.032436409618233 7.631327604693041 8.742507749923313 -0.603425056437993 0.4574208496593154 -0.9399978868692843
Ni 1.6952515068184102 7.998390635142239 6.280916002231633 0.41062034436600897 0.6330858167272193 0.1107268716336222
Ni 2.3926721816188294 2.672671099902078 5.756619494861358 0.5367429817294112 2.1152224024201893 0.9853387768979289
Ni 2.2434849141159328 8.588198416801047 2.8359545927480725 0.9839120717537312 -0.2543558933119039 -1.6214659515546335
Ni 5.131024190993756 1.057056435017451 4.019570795574696 0.7142640281694473 -0.6739005367507362 -0.271939410721622
Ni 4.545351840044462 0.44058567017210715 1.5612140366952485 -0.6013872000723578 0.3201951604042163 0.5991328568205424
Ni 4.784986753930185 1.5301735488064467 6.269576119396916 2.542515322345873 0.5414285601305385 0.06404900796110904
Ni 0.5326077144547636 7.205717511981643 0.1805596901847904 -0.7786387949010913 2.035484522968914 0.7171490630267262
Ni 0.16623514505307405 3.2294046053541905 12.356620195736278 -1.440425064886797 1.1250648639773786 1.588736322532096
Ni 7.684162087505068 8.495669300859332 12.710194936665086 0.8755025353993761 -0.8323627667871085 -1.49088579264051
Ni 3.873275578727633 4.160940173448031 1.812283278950738 -1.120128860128342 -0.6947264723571518 -0.6867725076173979
Ni 6.404975255729309 4.305964501833145 11.789821363699168 1.5233997061078153 -0.15179947330421598 0.342742449577113
Ni 8.796611287303405 4.7593580868944985 3.3451664059715123 -1.1886852690415013 -0.3621709906153698 0.048558625634993795
Ni 0.1966420226047861 3.3549163028083795 1.414984840028027 -1.0522648492965168 -0.6329122672638325 -0.6985525309714614
P 3.63337475022866 2.066495815324236 2.884053961550359 -0.7609544902474507 0.8543259013217609 -0.06399835722883171
P 1.4316659388013073 9.244750766385708 0.826469036610838 0.5604161569766348 -1.0651766722621785 -0.4806967894681205
P 8.320614960115766 6.49763274424294 7.667489241254269 -1.141637423624079 1.9735008821772655 -1.365937378090867
P 0.6503161934304663 8.985639899446749 4.109286718297612 -0.48801440617545633 -0.10540880185481846 2.233043719006748
P 6.69416198237383 0.49592983676505326 2.6418277556058585 -0.1568493770232976 -0.17693869157400494 -0.13102238865786467
P 4.533303157223393 5.973570058342936 13.259293024929143 1.244003581997832 -0.15656012791765295 0.3485580278176255
P 3.8918712627163154 0.9685893940298699 11.69472387937223 -0.33255239641798856 -0.05393608789682324 -0.46476803405300604
P 8.980605860733837 9.151533940237309 10.824125854219016 -0.48582356917172465 0.8460754883875106 0.2839130381437304
Ni 2.4341732002247367 6.3803919082077805 12.8905923272411 1.1227141043570148 -1.000127248061013 -1.0727863662886363
Ni 3.939992638245216 7.810774121289948 4.5017271723203205 0.008407764447721004 -0.6671614182546898 -0.24824052444278538
Ni 5.550133129884654 6.295069995232093 5.874517781854105 -0.1458800224959875 0.44492683095736285 -1.8158284950320405
Ni 6.633524281083316 0.7958439256868722 0.53498169008823 0.1564804237196531 1.2034637129022563 -0.31114487727648993
Ni 4.841351482469846 2.253140365417749 13.25192443930128 -0.8482434425731069 0.4410472933972985 -0.30550284849936415
Ni 6.371112405152284 7.567132149266625 1.1811441138703367 -0.9262139457113145 0.5923420591509541 -0.0825943750634642
Ni 3.9098617617231186 8.106517018571505 7.034205337275961 0.8891882604165847 1.7462976380207538 -0.04542316532980564
Ni 6.719598090551644 6.257035036067863 9.731097590657381 -0.29872619189716293 -1.7703667631548157 -0.38044407789294477
Ni 6.247269551132978 5.115078483668154 1.2478703428573423 -0.04259495185239116 -0.760487320803045 -0.28395726111810454
Ni 5.646742659719351 8.985098900750826 10.887510728548488 0.17381737233620387 0.13974999833884963 0.25051363674767824
Ni 5.898756357325349 2.69836395322372 2.141916535217587 -1.7781428075558088 0.5193083311927316 -0.7711337447732978
Ni 7.550269494998781 8.312564165962876 9.27735281491715 1.0624032232820992 -1.3013625795332748 -0.2948224859673826
Ni 4.441635971407384 6.619439976050468 10.769142047774372 -0.40682822431342835 -0.40354261158362115 -0.2949847225768597
Ni 1.651779052286681 3.1914246630064955 3.495167005412178 1.3467929439519322 0.5083788287644212 -1.677734544239375
Ni 2.965076310313871 5.263412990514766 9.294100850817212 -1.4786604542189115 -0.5612129418463173 -0.6447452553430187
Ni 7.06501200369449 6.972345345711438 3.4461020914797102 0.48379419744652163 -0.5779852762086498 1.0105314741134725
Ni 0.5514656452689282 6.910809036417526 3.2542162726643378 -0.31376637405973706 0.5114245575692804 0.33337334965738713
Ni 4.666168769154368 6.208574390170333 8.018474524018181 1.9080768482455008 -0.8487028987080286 0.6443297650721548
Ni 4.932404313834552 1.3678922789683234 8.748117631315955 0.5019626408254323 -1.2888330796076963 -0.9082164806926294
Ni 7.468835437058201 1.6292313269769318 11.482116893556054 -0.22284959517350653 0.2714871536755518 2.2049544169696995
Ni 1.1550047073878222 4.747107675746135 7.1458775545308795 -0.2608314737339185 0.7976945259809617 -0.4372901403477114
Ni 7.751695229801248 2.463176232007875 3.280493221188188 1.5673887100942554 -0.6349005013384549 0.26866356818382764
Ni 8.116181639342743 5.529290925887476 5.699368078628546 0.9044798964683327 -0.41117056044252415 -1.469385970895521
Ni 7.476473605087084 1.3404847348646873 9.321519398284154 -0.07820884440125886 -0.08847885886869924 -1.5279333323121105
P 1.4780726235482133 3.43556178637863 8.665125680520504 0.9094925191915756 -1.0419552398403924 1.7764631058605405
P 5.051213129140946 3.6670175335395467 6.223865397379173 -0.9055913843649565 1.627157345512456 -0.916267376021564
P 6.557133431325072 4.419748447896049 3.6153200649359003 -0.3137074957973436 0.6103994308732972 -0.34902879680645693
P 1.9638527746095815 6.717324062134882 10.536767519777328 -0.498649003071167 0.35570620882663256 0.8707513938676359
P 6.015153602173645 8.267569579507024 4.991251217746866 -0.6439533555693425 -0.9360558715024008 -0.28814404550594247
P 8.168117514151373 6.32464153411942 1.4677808110684807 0.5586413244643992 0.4222751549961179 1.8084401729877693
P 5.18221733877917 8.123581401166643 8.956925705950416 0.9388681441402154 0.41116310424335645 0.11092998878336378
P 6.920061031064757 2.9918786694356267 0.18510774701831448 0.9839269841520667 0.46460939698795467 -0.735273797651895
