# total energy = -381165.47465878713 ev
CRYSTAL
PRIMVEC
9.31437028126458 0.00000000000000 0.00000000000000

0.00000000000000 9.31437028126458 0.00000000000000

0.00000000000000 0.00000000000000 13.63252241760403

PRIMCOORD
 96 1
Ni 4.073798200751724 2.419351802618981 5.255324212100811 0.3247910073050148 -2.213393291765672 1.4391379706442569
Ni 4.48818522161348 3.2420901323795706 3.2492845520094478 0.8360636126774632 1.2185285776551786 -1.671057646439832
Ni 0.2466929606178554 1.2688035240573703 8.584031468333462 0.26159123471807855 -0.41730855501946196 0.3113587930595089
Ni -0.019331044147912684 0.1517720756306006 6.396475222453484 3.4025405880452557 -0.609817333117582 0.15087773282089498
Ni 4.622982788785395 8.553190656789589 1.5031353838326436 2.7496801597942713 -0.4791736679553747 -1.276023586547854
Ni 3.4963165557067017 7.467237536349678 3.68511604764317 1.6431971725841377 0.41795724434705445 -0.10304055873295802
Ni 5.183223534380775 5.457699398768696 4.097336545970087 -0.6067422937366841 1.323146765287902 -1.264906650699086
Ni 8.046414396791693 2.0364473534156744 6.686983912461431 -0.07565393918988907 0.5311616309868917 -0.15119834938510734
Ni 1.1951175405100363 7.827182062731069 3.6823077649937557 -0.9908617635986872 0.17586525600416808 0.20688947229982432
Ni 2.47034798008348 8.46183531275821 1.7050876980883114 -2.255280161807445 3.1719010645136856 2.3913591390526108
Ni 3.8419076374355274 5.993508551032682 1.6963629274159835 2.00476832483198 0.48956529560234385 1.3353728750404488
Ni 8.365766897348374 5.729697640653319 9.765357220720817 0.25009891780776283 -0.030483513300837824 0.2184308972805206
Ni 5.388456369860735 9.20756242876967 9.560378667550406 0.3693993900430089 0.29573985557532934 -0.2718769329148027
Ni 1.371652801055179 3.787269541178586 11.077310496690888 -0.5912205439520011 0.9253958206853933 -0.036115000555002316
Ni 7.31903659029714 8.842308711309784 6.757381923288222 -0.2945952004479249 -0.4965571535391448 0.5619472489091806
Ni 5.590652720618607 0.935414267438772 7.004512659310796 0.32462774225427315 -1.0434187117597966 -0.78463460747321
Ni 3.6528352344488844 1.3942028915833165 10.94741973979994 -1.2275071270047053 -0.006951748727484802 -0.9125225642671511
Ni 3.4254155688830004 3.8933229615641185 1.1112518816474597 -1.3798532168410107 -0.9117391491339073 0.1884430926691787
Ni 5.8737630062868185 5.4058276704947605 6.229326984309934 -0.9807547570716721 1.230057404230385 1.5710926413084039
Ni 3.6077350533926094 3.677946776813138 7.263448428268257 0.7464812363319402 2.5592629741178565 0.026408571900515806
Ni 6.457354878257267 1.307998394335108 4.785697386659884 -0.5884668924662639 0.6262793353283472 -0.3882090665503443
Ni 1.4206184457914113 8.361603373818395 8.073861051793454 -0.30014261262871533 2.409711159197237 0.45453787168456555
Ni 8.531432287738069 4.468401499068348 0.477120236357856 -0.06387211606361258 1.8381505555680084 1.1517817111469326
Ni 8.795895204039354 3.1515917104169997 12.511029604327744 2.058232872409023 -0.5973922199803517 -2.914358288833368
P 7.6173758714273525 3.484841251480901 10.333219915543447 0.14746485048460412 0.6029422032643036 0.4540115668674503
Ni 3.208223081920955 1.6060303012449866 0.8975737066045665 1.2678662475480424 -1.4143458513012415 -0.8010305323327301
P 6.092250190722392 3.591276561049272 4.676991233609167 0.7279708362325785 -0.4204915807331339 -0.18177519373069986
Ni 0.7594686065344517 5.900178560494914 5.412016138130817 0.6323306837287498 0.2767306614626782 -0.13038295530165286
P 1.5588343868682526 3.714924826956346 7.034095099425362 -1.9436290343184979 0.024950756408066706 -0.13272188784747466
P 7.387627613283181 1.1181622129827862 8.587357629972288 -0.670147240355891 -0.687990439184899 -0.0018313967817839426
P 5.150455579619111 0.8041598867339795 -0.2512486191380173 -1.897142203610868 1.0475517600915636 0.9204495324237115
Ni 2.228882244085365 3.680172911317981 4.734765478350545 -0.7788676230824457 1.8857401324215135 0.5393482805627421
Ni 3.420115692174817 5.899880500644893 5.672751443432779 0.04368355693087961 -0.5329660311854821 0.07832300138161995
Ni 8.282561627341 7.007089014139414 3.155669541740097 0.3060821180416019 -0.5517633663976433 -1.1059661954747146
Ni 2.4629337413142127 8.14544478196111 5.687760619755389 -2.0537506682679534 -0.06832192430485007 -0.09347219831823256
Ni 0.33631303745989616 5.829324145522778 11.88057992962293 0.48350700522340606 -0.17138896540036935 -0.040656597179097725
Ni 2.953214251487519 7.218180588546344 13.776072917089698 0.21877928175887482 -0.7529573309745871 -4.062196441951521
Ni 8.822236243284944 9.041226403717426 1.5889663748312945 -0.6098800680347174 -2.0312098068529596 -0.22904055447556682
Ni 5.618782118964322 2.3528937704346515 10.673174871795785 2.441107928340964 0.5008460107224858 -0.5292389600428821
Ni 2.2385133029891624 1.565736335270297 7.027374781244425 0.04601837571164333 -0.7193090467925225 -0.274000921236341
Ni 3.8927454706047033 3.864755787813686 10.229067558138828 -0.30276436652227856 0.43615191297821015 -0.5617353900086907
Ni 1.5137900920338565 1.1477353387270393 4.760285921571547 0.5986664587070851 -1.9758809523736678 1.1069319018220938
Ni 1.3577278174370189 7.858469032612942 10.40053766410768 0.7249436193704806 -1.3592627942841689 0.37516586021314097
Ni 6.8106210011241295 7.083690395594764 8.336314858418191 -0.7723971848667536 -0.621104218885311 -0.3597117304415999
Ni 2.1891285115888386 6.337879450250485 7.717671148085294 0.2957815074465422 0.11968999436418097 -2.944194398358194
Ni 5.435484625571832 7.753300477407158 5.989912272654775 -0.5038863402107064 -0.363079104251936 -0.7642424169701031
Ni 6.69774946166937 4.15810256645605 12.377730719339217 -0.5338538331070741 0.43105984316728335 -0.2459540424014538
Ni -0.05744917321745007 3.6100543316005838 8.709287394556586 -0.9079079483132751 0.4223288910521888 -0.41206838966644516
Ni 0.9943276596694494 2.7323239595111533 1.1566892429090707 0.3459792113468557 0.5749539455814936 0.011898036989166605
Ni 7.519314180770503 6.956633070153076 5.339613674812635 0.7670192083842919 0.7902370412616521 0.07678908123559679
Ni 4.224122823235661 3.1345091552626814 12.529269935711989 0.05773257882477799 -0.33340497422627097 0.22814838167860066
Ni 8.631077421348156 7.9959863959162965 11.754479190012404 0.0437833157335375 0.3262539650037865 -0.2817900782634566
Ni 2.481813969938969 2.1195035934980377 3.0312183771120296 -0.5051173844043301 0.4222265611463696 -1.1281897827596052
Ni 7.147978179496129 1.9936757649376868 13.373095999861551 -0.13891876068680592 -1.2178510919721799 0.7170539322097587
Ni 4.443029154335326 2.0044618057603154 8.414865737580085 -0.8936902620519964 0.10022211544755642 2.727599525845148
Ni 6.27885428557605 6.6616655910762255 12.792104700082533 0.270175891063296 -1.2768802781211945 1.247915258347412
P 2.4345249118591035 5.596585974508084 3.3000795390751834 -1.1220674719119517 -0.3567760448520436 1.0709914791717428
Ni 3.1912429848400814 5.70395272110777 11.66672664441815 -0.5473811781695477 -0.21200853869394454 0.32892148453362063
P 9.293813497869444 7.037891636765003 7.294285514064005 -1.6850632166903043 -0.5486088799290617 -0.6707712470931351
Ni 8.441902560288067 0.257618716995181 4.2850155191578825 0.2743559905829146 -0.6421744092920489 -1.33182500978819
P 6.379943146584673 6.842764893074811 1.779684627052272 0.27793573751437295 0.5708406947440685 -0.39087067254290747
P 3.030123007163203 9.237154183254548 9.530483264593318 -0.37741480414831774 0.17760049352771995 -0.18061845441843735
P 0.5601028929147457 1.0564451952878504 2.654892667660901 0.5976483018552159 1.383402624755166 1.0988396117322625
Ni 9.319493216822801 2.687158577862686 4.243163259029804 -1.3363822901415696 0.6946999899945907 -0.42906980932044814
Ni 0.21869768920465005 0.9857025527594719 13.386550607778895 -0.45384881603734095 -1.1345992858303748 -0.7616080646710497
Ni 8.141067027913929 5.123984139189138 6.554011961870893 0.6996678755228273 -0.9119970307809843 2.221857877593257
Ni 8.115089249110552 2.825551491975477 1.937004341641385 -0.6853208627725359 -0.9448243617236503 0.9007520539947842
Ni 2.1354870529554044 2.6985779958666085 9.1758740095273 0.005687537303080527 -1.3879257094364998 -0.07715469210513164
Ni 4.634020317606478 7.70957882315723 11.77517292653713 -1.9427065225042286 1.5429801993429038 -0.5864748017368996
Ni 8.331406185263162 8.55434563870842 9.499046333349403 -0.04440192315414288 0.3351368693157131 -0.6173997734505303
Ni 7.791936485466107 1.2278202946795076 11.259236914773282 0.8944178842466401 0.4843392713167142 -1.7281801024844368
Ni 2.8249367435348094 9.32070408496351 12.562996339178875 -0.45940754107204107 -0.4065070935285838 0.967783798733301
Ni 5.641294952011207 3.0098269942508478 1.0381806465407937 -0.5238190745788913 -0.3684030875680107 0.21125906212242973
Ni 1.6734104560903178 5.257906155551617 0.14911002859510217 -0.1951295035504188 -1.8561351650708873 -0.6211026762234142
Ni 6.380949098578493 4.5597754718403545 8.712722534328076 -0.31227873377061705 0.07166564396610238 0.3184794632646902
Ni 7.940761494329626 4.851268690790402 4.251152194447393 -0.4655594196060498 -0.9486787024727339 -0.009424635748009575
Ni 0.8128464684880237 6.809493962316238 1.4998231937492874 0.24863775988120407 0.1843835778878244 0.7034098590637627
Ni 1.8157340344752584 5.004946486587073 9.259836537841133 0.008992947527229674 -0.08658601272136056 1.7048879647257154
Ni 1.9104984380412522 2.401840786430258 12.57902823336187 1.0980163445000186 -0.6058377796445437 0.9893946921348574
Ni 6.760099856545601 0.7998873850713373 1.9876353957896085 -0.7528416313323292 0.23529990512171736 -0.06367979754714839
Ni 3.7972545461542837 8.46651112665541 7.482632327603254 0.3136514457484275 0.6827389609779725 1.543956447213244
Ni 8.29844262872492 6.739282238895708 0.13505930097771454 -0.3451461739225991 0.7053554128259079 0.8935959025659771
Ni 6.502343286869785 4.718510970717067 2.323336479119931 0.5775222205293021 0.3874577902066166 -0.5628126822332694
Ni 6.78626392275524 9.066310002970742 12.718598483882243 -0.15065456106649538 -1.2580785720336591 0.5403540961194371
Ni 0.34369653880713064 4.644713214725975 2.631226715569248 1.1202962389441415 0.46430986346966485 0.36122148221790695
Ni 6.331107903032825 8.236706982289359 3.4780380354041753 -1.0123273896716307 0.32740916165415224 0.48287040008067156
Ni 6.053530353330624 3.270508276204993 6.79637094598204 0.020541314486461397 -1.3852515050384466 0.0063773642812535326
Ni 5.467861376780343 5.687447656912868 10.717575543641544 0.40069485772218094 0.13065060714074275 -0.6179649019253808
P 4.991664194520521 4.890090986255614 13.593465618537412 -0.24082109205026267 0.6203449721217832 -0.2629168955080375
Ni 0.9465728830739263 0.7154330580049698 11.0155413185222 0.2699712312516576 0.9513048272416713 -0.4818794969223121
P 6.5683635436493955 7.755191294580729 10.752324664968816 0.4837983112115797 -0.6523634340099087 -0.4330668462949832
Ni 3.680461656797689 7.095324044115889 9.440344377324836 -0.12008594425101897 -0.03497163097917848 2.2069776180473153
P 4.362664767273463 5.797059166758023 8.00149957170465 1.6579540191783382 -1.1741379673549455 -1.5160687196640408
P 0.9413940931798147 8.016673612381805 13.13788020634356 0.4616436294914114 0.04505421202616112 0.4512610007055067
P 4.10846628705727 0.08306182870455149 5.477520378795081 0.4155105825787747 1.7373612547630723 -1.2595510428141274
Ni 4.362226991868744 0.8123043721357983 3.1496170639106116 0.4222509866264018 -0.6866372675911143 1.1621190885171986
