# total energy = -340863.81068470515 ev
CRYSTAL
PRIMVEC
9.30209138387375 0.00000000000000 0.00000000000000

0.00000000000000 9.30209138387375 0.00000000000000

0.00000000000000 0.00000000000000 13.61455101010859

PRIMCOORD
 96 1
Ni 5.453471943139858 8.828642745064705 8.992233973452013 -1.0590546185248406 -2.3397740678864674 1.3117007282344892
Ni 0.02756860794197075 4.658422200993137 8.741235644303249 -0.48595778075674373 -0.31308503172199625 -0.8643341774873824
Ni 1.4058715663899009 4.869561068984786 12.738195436096532 0.6838800165609512 -0.1624718654163976 0.9752271423852237
Ni 4.521300073357886 8.662349259159042 1.9562204951879432 0.3254942040196265 -0.5932812831357719 -1.3342467318558053
Ni 6.415233765300077 9.180819921122676 5.120936132830603 0.1258742687980219 -0.7627802306022798 0.5710044740154424
Ni 2.877546126531363 8.987271307751355 8.64969190354726 0.521838553813753 -0.4690306659841019 0.9999048476375618
Ni 6.589629372715155 9.20336819039802 2.742950446889175 1.072361877156708 -0.8261139576639193 -0.1712141303854019
Ni 0.9516504489331975 5.364357908627566 10.673562787816007 0.8410893480268289 0.9359563698100589 -0.8269395388890082
Ni 8.246982977000654 8.572221296696663 10.56136561377947 0.9726285284201119 -0.8481634812647909 -0.1661824814987654
Ni 3.5102557715686356 1.8451814315164161 1.0680121692381206 -0.28239248773414594 0.20757184307882962 0.3697742568839244
Ni 4.931996705691101 3.1449347405246644 12.063853351303184 3.0691754659179855 -1.1849628258845915 0.3489634907861603
Ni 8.311009271316738 7.377990911227813 5.705259089629609 -0.27674017454437505 0.15184266783732558 0.45165772192329307
Ni 8.498241764705403 3.4560059751933037 5.042952050541062 0.19846525279187108 0.43931462697690793 1.3091234544256165
Ni 8.214983782979537 4.862082187591479 11.686675874707086 -0.7031584051745889 0.047898366343175576 -0.29879381191030474
Ni 2.309802287029982 6.4368332212643296 8.643306948089094 -0.6868614677867784 -0.3059314513963506 -1.6050625704959454
Ni 1.9977450306851114 3.517827673874795 6.860304415559521 0.5899946419647001 0.7211568986345386 0.4925223213481389
Ni 6.8696316224912 0.9527760019787077 10.614707526045366 -2.455620520134842 0.3836844392071134 0.9778391260867739
Ni 4.261576382583596 1.4015088855771383 10.323409746821696 2.05189664577835 -0.5247181893543931 0.8411929634842288
Ni 9.015019446055131 0.5552120621219488 6.274878230734089 -1.5378660180447903 -2.7339871745390463 0.84461844422601
Ni 5.768654702156558 3.4784147130993692 3.9983485940221666 0.8500385868003166 -0.6057544759021181 1.1390403523208643
Ni 0.3140181371877923 2.5921579659011837 12.316607915286596 -0.18880253289112647 1.2879936144255366 0.003788006287522508
Ni 6.667618106050338 2.175880078796843 2.2425211909732012 0.5127535607933491 0.18684360939254274 -0.563505594535236
Ni 8.795220331076951 4.4152283264326595 0.3771607328317838 -0.8973975357002545 0.07934501488823109 1.0600491212276257
Ni 3.5816679263651774 4.32888631512336 13.875678413679973 -0.003865396492677214 -1.017051020399545 -4.1405538961155015
P 6.801847283295889 5.245309744359475 4.743023791022973 0.8613450129520714 -0.45093318505244273 -0.9956568709944852
P 4.519737322021971 8.773741802299407 11.185687563104871 0.2852381847130571 -0.9483789118441278 0.07336514315571235
P 0.5302359470211655 0.47059279811866933 9.041082975627155 0.049687854143430556 0.42204195593938926 -0.10555689739690853
P 2.0456135924387913 7.570516294557761 12.410602757096237 0.20016166665768753 -1.0296201153138074 -0.640265365194794
P 3.54802226218658 5.386087593869812 6.92328515481515 -0.30516577687491964 -0.24779109561019258 -0.6136629321159173
P 3.52989248627171 2.290528353887031 8.467011853633576 -0.44230867660822537 -0.3851114014616271 -1.0708413267471235
P 7.2547009933336675 9.149964884329643 12.557775794365154 -0.4903597664791813 -1.1911157328598647 -0.9029729729055029
P 5.34010735664703 5.153302759457484 10.993477520669492 -0.5958426161050447 0.1759588441592389 -0.023373641728933938
Ni 1.0718241662467989 1.600796889271433 3.1276300601067923 1.583551693007363 -0.6574295356789065 0.08720796257607562
Ni 3.019886727377614 6.510022075496346 10.823609241082924 1.4865380571947755 -0.7376988621536198 -0.13606483617777856
Ni 2.147369169007681 1.3558728257319084 10.48784653530683 -3.238351739937752 0.2034025421924884 0.6122154010361134
Ni 3.665135591467348 3.0691319986415055 5.3392459829940195 -0.9310108528793257 -3.116469880128575 -0.24623403553571788
Ni 6.401764337119096 7.615705854021302 0.7410613345365037 -1.1895812984932093 -0.35304820237849516 -0.32050112168040934
Ni 5.946278135247604 5.308005839621777 13.218381480957639 0.5573747990471497 -1.9911895577062804 0.4101444331708549
Ni 9.223600238943348 6.870468810706868 7.954818242869199 0.32630461573606384 2.1052341808592256 -0.6011501443608872
Ni 0.8283800654307505 5.596472992467359 6.265565907148467 0.27319308062306497 -0.9726408697152862 0.2570231557314218
Ni 2.157936344707677 3.7329571390277994 9.335851365109338 -0.23192661777411028 -0.10366867923526016 -0.658472375121124
Ni 8.268898704068603 9.065864677020079 0.7845914009147626 1.0339349406390774 1.2440336639048188 -0.4221386294182536
Ni 7.187884071632018 5.153544613830898 2.40182415527803 -1.717191721793733 -0.4386427977208639 -1.6962922526369044
Ni 4.5010587227212735 6.857055195073598 12.6466926245422 -1.204340716190571 2.188454876652779 -1.903898291387779
Ni 2.8074269624234653 5.144484376919107 2.0605760062710483 -1.0071779842602073 2.7047951263561227 1.4847843077284624
Ni 4.6722358065516705 5.9994302848512815 8.675218702452128 0.12466585031221757 0.3773168451178728 0.2771991164586645
Ni 6.100367277387074 7.144694461794798 10.648403421516903 -0.060503199591379675 0.26391036976955834 0.39158569633206114
Ni 1.6954828764635645 8.642619523543116 0.8393165341547695 -0.6430110462607312 0.7094678923323845 2.2660541124944973
Ni 4.405042536475357 8.864334869326047 6.609973046355905 -0.5393747629253033 -0.8289722530483208 0.6835426878261905
Ni 5.11871758405908 3.756761190626646 6.947968254040449 0.9111832766304373 0.3826711674512507 1.305647580061874
Ni 7.660411704738011 5.414951983127812 6.845573623800266 -0.4623506828607651 -1.5498334748193117 -0.7324813225084224
Ni 9.28833349219711 2.5539263707189788 7.6608396009371305 1.7315315354551726 -1.3616582910995387 -2.38965835431142
Ni 1.3803280237207198 8.184621757024619 10.42700341662854 -0.42323571913717434 -0.20583043490769068 -0.7323363122901259
Ni 5.299596749099949 0.753354048169906 13.596144059095574 0.8404925949830944 -1.0306920082217474 -0.7905234621538192
Ni 8.420299541826648 7.303574180946149 2.0063903943255834 0.40215601564873965 -1.6217284611874005 1.7821182472637889
Ni 7.640942427678071 0.5477471338655695 8.256108328551441 2.5365359648339862 -2.631045860388114 -0.6173987450092658
P 7.4599144291766395 3.3871518955001942 8.040903516459027 -2.4016844322380186 1.200715460733158 0.023139671341256923
P 4.171327492934508 6.700975405399094 1.0267164651865686 0.6465265156131575 -1.4280261770018114 2.2577905869341244
P 7.787106188042542 6.30910620582714 13.375560777822054 -0.09851078918340454 -0.5855985697795335 0.13947823273470175
P 2.3448618690839305 2.1834054706465764 12.725288784438309 0.7459551886251411 1.2777683371531028 0.016283567651371955
P 8.65773542188158 8.398876825596812 3.924775563420072 -0.04131145715427725 -1.1919328294445215 -1.1471305855281664
P 2.675486099634076 8.781146266962432 2.772575747214305 -1.3799462907754494 0.6723717588110356 1.673468055653537
P 6.368462850318052 8.057378450334259 7.29053730000993 1.0969935596624592 -0.4709705633192921 -1.442837273872715
P 0.8832549623404492 2.0405532547796383 5.631753964293896 0.7865619064029099 2.2239245303142994 -2.5044799648397063
Ni 1.6065827900508325 8.733677695134016 4.70750282524128 -1.0535951380721662 1.4420885686321485 -1.0663377824498153
Ni 4.93192228896082 4.453385504884583 1.9783166828268262 2.4395179581460242 -0.3453361784462181 0.44642449854881183
Ni 8.532668804551959 2.3106952877933615 9.684819319673913 0.7935432228167495 0.2681560324197898 1.8050591723306786
Ni 5.533581553288069 6.380109068607132 5.956434158512795 -1.3331344726282333 0.901725473651647 0.7592120536350473
Ni 0.48201204538039055 6.933406760342585 -0.02444868652491201 -1.0007211728912702 -0.5435065257054897 0.5432314176672322
Ni 8.349371095776936 1.0687079656662541 4.0990418717662855 -1.0500310748699917 2.3985291744384885 -0.4428948881289986
Ni 5.042049747686397 3.482926227372695 9.64713468745928 0.1834240421880325 1.4956101946993725 -0.6326047633257428
Ni 6.8998820233506954 2.0714827083029546 6.3247216264676185 0.00412122125722516 -0.3034493084044451 -0.3295298075415809
Ni 6.930318466035896 5.448737178675687 9.05390776888207 -0.35689251582524983 -1.1560101474059832 0.8100224514186953
Ni 1.580890413921088 3.942682089144097 3.6802719544066385 -0.5563016205876291 -0.12910434569954538 1.603530450122135
Ni 7.545977377747382 1.8106613707570092 13.4017554668812 0.09649915807001444 0.8136801027759406 0.8152212220108154
Ni 5.8458248514586435 1.5617095016909894 8.554743597380886 -2.1910167238426848 4.3218441797899825 -1.7768891376543656
Ni 3.8132527910017138 4.85315217995768 4.251864999281839 0.37200186066286256 4.377166606511371 0.16504965344590283
Ni 5.668396762284588 6.775243302220194 3.2890576220611627 -0.11464471863078964 0.03445303947154712 -0.061176828619636574
Ni 2.05270178599812 0.7279007357861915 6.857363094295139 0.8595141303909196 0.4982656515898193 -0.03340737181585214
Ni 1.5955877181517166 6.368202391762065 4.318058680867378 1.55356928771266 0.22275549279780343 -1.2322096746866973
Ni 2.9063360990590814 0.125910317009189 12.80662254979965 3.452240269263229 1.0896330055323298 -1.3171990323448992
Ni 3.108089156943956 3.921296581279404 11.356427448644864 -2.016902131981036 0.7892569367365697 -0.17047725221937737
Ni 3.767858585529899 7.641649386615746 4.5386419621408995 -0.004353906093321534 0.08568612661491048 -0.40871747091634125
Ni 4.526527848660173 1.1955977928877757 3.380901820365663 -0.22678312589995783 0.5777752170803726 0.7513763596407124
Ni 0.6015988007338952 0.27862833089321876 12.39879840325531 -1.2133413770272845 -0.9829885314981975 -0.07703616424939635
Ni 1.5099526657800924 3.297768100340631 1.1114706095134836 -0.5595594654032944 -0.82659938194077 -0.1725747581783544
Ni 8.73966824192169 3.4936422365332547 2.7953807542091207 0.14156751116356261 -1.8573595243962915 -1.948957902730579
Ni 8.823517292766555 5.5737386813663115 3.738242587296054 0.9786122568073726 1.1113544563698214 2.247362449622265
P 1.430708150121406 7.7688740891235355 6.534521923523326 0.10918729506064422 -0.2645266631973186 1.2630346304873536
P 5.673531516674022 2.8587838084090986 0.41817458351739406 -0.616475461864048 0.988566025585975 1.1404467457500875
P 8.588332518802643 6.537091161136301 9.850113760975544 -0.39293886792584587 0.031236075196146202 2.5946842910399446
P 0.8234090278479355 5.768366337326717 1.912381599379015 -1.0689464237172557 -0.41916180617811677 0.06396647554963177
P 7.563865299288837 2.7379589447055324 11.508311995149738 -0.30223240527820855 1.8094501023095224 0.10313209000549982
P 9.16642958590446 1.6265915884053146 1.328833506784066 0.026282073624980543 1.480386949991715 0.3792922236766887
P 4.850761542497381 1.3316036695688007 5.614355332754044 0.9785343523815857 0.7966989948369118 -0.24059843451649532
P 3.4631034708439166 3.1353256802270453 2.9734590595640134 -0.2452634440923324 -1.0828167539414446 -0.35312867790744346
