# total energy = -381163.21450083546 ev
CRYSTAL
PRIMVEC
9.36666821784167 0.00000000000000 0.00000000000000

0.00000000000000 9.36666821784167 0.00000000000000

0.00000000000000 0.00000000000000 13.70906573414943

PRIMCOORD
 96 1
Ni 6.856391878323288 5.80533928747219 5.689975653191022 -0.3432150183381573 -1.2375292871273977 0.2571432262490539
Ni 0.1912917214015937 6.286252141463456 0.21969614322596145 0.18980423468276345 -0.4467075770068694 0.46736304847369187
Ni 1.3318465751712618 4.852449381112231 2.4320020516051737 -0.5651403019251815 0.9482382725012056 1.0403321024146728
Ni 1.3357243758753965 1.1267727379337653 3.4885182201150196 2.640493378954259 -1.568755251424479 -1.8915654808540392
Ni 2.1040534487226306 4.128677549689074 13.910452305872749 2.277024752573388 1.1432600468291665 -1.4204967013939858
Ni 3.829421862016617 0.18993542782198333 7.501669155493331 1.836102414789728 -0.4470539046026946 -0.89027840815697
Ni 6.254255602320162 4.867698317214479 8.80588124898003 -1.532464901633877 -1.0110636924678587 1.2440935706084768
Ni 0.6173702254359877 7.034826910723686 6.128281406112318 -5.288562513373246 0.8623683120102632 2.5859700510953982
Ni 1.481282402305957 4.783117301856181 5.946006039681255 -1.4172501694322301 -1.6541025066427317 0.4652071784729537
Ni 7.6033368472875775 7.919087237955158 5.5270433936056325 1.0857269856097043 1.9512006760181686 0.6661849132740334
Ni 9.17751786646215 0.9148818394584208 5.010142863079691 -1.7196584381666709 -0.6966630272582324 0.7320977139167586
Ni 6.39633859478639 6.726457454729676 0.10068419161566163 0.212713278070453 -0.1726367217645414 0.3399342907043565
Ni 7.817580652856832 8.28665403803161 10.446088850143772 -1.3443997611294072 0.48226361973460813 -1.1037640456170732
Ni 8.334180513328176 6.468696107925133 2.2502605852710573 -0.5971723906600619 0.3791443852449148 -1.011410277174
Ni 4.768149365804956 2.853368184783891 0.7636897620048241 -0.9050002877481769 -0.35744298901208116 0.14007010068242973
Ni 9.3573204324442 2.098124347646019 6.895016272003408 -0.29976208936084503 1.359719422205613 1.316510748028623
Ni 4.362628825503496 3.1982114474008485 7.824325590748251 -0.0875280649196557 -0.13981376169724952 0.4187792260277175
Ni 5.34558573732305 0.5534296004922569 0.7273686320762665 0.7173508946248871 -0.12481497429557215 0.048571995371432475
Ni 8.46741200418714 5.86999739921287 10.28063414676702 -0.9304323546680364 0.9271853084856483 0.9223881442073212
Ni 1.9412326524908137 6.550485856109924 4.670664828103623 2.5216577621705736 -0.20465158410824108 -4.6650142038228175
Ni 8.667446573842936 1.59515298964935 13.513753293839775 0.2364903258853927 -0.42587521364255043 -0.32373351257477795
Ni 9.394300039158992 3.9034653754615065 12.801389127821366 -1.7220932728604086 -2.912806885185848 1.8882628988433674
Ni 1.3092822710740144 5.960460682305944 9.593289288624977 1.3730868446514546 -0.619754646835952 -1.4651611341808959
Ni 6.807647736138949 0.9052988010516572 4.650142457710486 0.3904515827276179 0.5115104324148675 -0.02646282217721894
P 7.945323276052455 0.945799338405782 11.135901825400648 0.28061714100127805 1.1454290294560274 0.5855772296232947
Ni 1.7145405446611852 3.445772492353211 8.667941133932738 1.058283801797087 1.0285538788328221 -0.8949303051066845
P 5.374022942486705 3.025377682684201 9.970261160409208 -2.8913037210067496 0.6572631853043713 0.7284441763245714
Ni 5.721020538828181 5.199653044157792 1.9381332219280163 0.5540596186309877 0.019758670684165973 -0.08023898745741019
P 1.7125360776305456 7.0923195211632475 2.064969151625668 -0.14559463004508474 -1.393660040817116 0.7839033857341403
P 2.2656097447248387 1.6914891738088296 5.644310334899071 0.24345595856994845 1.167540773753402 0.1874313635752127
P 2.84710188364605 3.146704138048104 2.109126436310455 -0.5006040699150087 -0.47081526868835044 -0.6300220902002311
Ni 2.3690926968487016 7.316314028503044 13.651693408887068 -1.5348930514593953 0.12211068799053162 0.032053171780802865
Ni 9.27578358430533 7.757165641886618 8.548411205561719 0.9448868395304695 -1.4512494091958104 1.3609260409192045
Ni 5.7462637100785265 8.199272388831435 7.42334975793869 0.7316004625653658 -0.9695396050821432 -1.4849259755126492
Ni 3.2581112916108506 0.7143967330541504 1.731386497720089 -0.7069883204436405 1.2169324368126526 -0.45177882088218974
Ni 3.4461471590879103 5.821131490339754 1.4498984432738953 0.34828471955158086 -0.15951638233249946 -0.06734953308925175
Ni 8.330283979287307 7.374584072417105 12.237466048757028 0.3362912946351305 -2.6549113541518015 2.071709309628903
Ni 3.8136109258123194 5.809039121477343 12.569746735759528 -0.4152568146967558 -0.6838288516080416 -0.5118235927799121
Ni 5.269406623490378 8.303223674373672 4.920170393409074 -0.23619027814647064 -0.2812871704851091 -0.007129926176561914
Ni 6.502978114150092 2.0569953068444367 12.678555575517137 -0.051430804976466266 0.6040092110762372 -0.4153213493861041
Ni 1.2503565603742297 5.331310934731019 11.973306330790663 3.0775706319602154 3.48085536189676 -1.2200457856306537
Ni 5.119689796304658 4.402830566136698 5.0997865626906105 0.10343265196505413 -0.17559374751033627 0.4636385484342531
Ni 0.7785499813698231 7.905514935490687 10.88990595073249 0.7857298974199177 -0.7699070714550482 -1.169565774603231
Ni 3.2840850629938583 1.5136348748472153 9.967176716515798 -0.01677156303138402 -0.2582572852488391 -0.5098644121710122
Ni 0.28269167133141415 1.7932486589530774 9.509184100019745 -1.840395128627811 -0.7318729995004621 -1.1421591004555038
Ni 1.8603702044744026 8.97528212974 5.602333610610233 -0.09395787970539948 0.706131371759984 -0.23219555516478074
Ni 2.229800971555982 8.382222155384957 8.976024906541541 0.3336242893259287 0.027494605875842973 0.12787741527097976
Ni 2.001291730063063 1.2161120208227414 7.933121317170145 -1.7452321728707167 0.6551301981217685 -1.134323149350853
Ni 3.5591279129363924 4.792718136932842 9.873639292864521 0.35459523515064095 -1.3683647565854369 -0.699965095048272
Ni 5.442156088191718 -0.28325554476713616 9.484261268827566 -1.5825209377500036 2.340115767496602 1.6760692407218103
Ni 0.021712873942643658 8.417047428375229 3.7133613476089087 0.4042031279857554 -1.4629109046941384 -0.5513872140051472
Ni 4.581125098511584 2.085957045436669 4.815597161087237 2.10657809648163 -2.596249578644535 3.4694077821814506
Ni 2.5668792660963025 1.6492642328082525 13.285524115731045 0.19442167885011677 -0.09205140671130599 0.4601163942136076
Ni 4.332767886747986 8.08637593499826 12.988242921750452 0.817969474179914 0.3176428262960078 -0.27043377271037294
Ni 0.8357231884180533 2.7717283032929796 1.3347586723667098 -0.8417200396322922 -2.4189313922439246 0.23516800752954337
Ni 7.366041670865968 4.143036652296413 0.6541559421155722 0.8048889868468718 -0.9660513894232265 1.1949885855517097
P 8.519190946922542 3.483023732450659 2.4047759566614344 0.13566065876082442 0.09969889595423476 0.6446005022350383
Ni 0.9035631574031641 -0.23228026217766407 12.698323929106694 0.8829121975998858 1.0518385603923754 0.5724319504905883
P 6.311963646132175 1.0515958576164115 6.726476188066411 -0.994566466143784 -1.154557474119857 0.6596591963403736
Ni 6.748731392107532 3.132804002190771 6.728217451715925 -0.0006101227801731428 0.9633543022070375 -0.9785700907155276
P 2.849246850702202 8.851314273896469 11.069056596596164 0.06768043406610924 0.784336873727133 0.7930446859137762
P 2.7199587272259453 5.256171521087135 7.614687376015284 -0.02491758917728612 -1.08322684489567 2.07342629232001
P 6.8321977739301 6.85760954521106 3.7887058912900407 -0.8392777487393868 -0.38492551070306613 -0.6547687010172918
Ni 7.602999647226349 0.02160796725692794 8.599546658180273 0.18971476029275067 2.1625628393773657 -2.7325990359422683
Ni 4.583597898960597 6.291553675759447 3.6317645527924873 -0.22633472550862957 -0.14630836828265772 1.308148492106857
Ni 5.915659907504311 6.903159653482091 11.427849638412802 0.3996851855107439 -0.6848176978838721 1.419009575325498
Ni 7.597220412843616 6.299196877147307 7.839063106757636 0.7034540820381369 1.2998625979489808 -0.39078993990364314
Ni 1.1391461068471997 8.997134567041318 1.4314592199256844 0.25971458652065593 0.5155632623280024 -0.20400829409728735
Ni 7.016084207320369 2.41364993827278 8.927892407801597 0.679294711183114 -1.4772774578284558 0.0402966427365177
Ni 6.672243178218732 2.2751356464545607 2.2925126896099 -0.36931377230773815 -0.38700167650580447 -0.11505326692311799
Ni 7.0641726827189855 8.725903951124346 2.6796286632361084 -0.8891543218548558 -0.46188042809256585 -0.020529230301603352
Ni 8.070752332161312 3.516013138440906 10.773132632862017 -1.4959382674627526 -0.959907738419334 1.9485149016558891
Ni 3.054301954602963 3.4990313686906735 4.62631646338414 -4.017335833993404 1.7488805682565816 0.3195804096383528
Ni 3.7666745506229025 3.211221749763271 11.733507443914426 0.5209926608736898 -0.07037854972356267 0.25325957492393153
Ni 0.9978780145289428 2.0077078978947838 11.569697527503005 0.5479002838978113 -0.5686395733276917 1.6819105299939356
Ni 7.323704329844981 3.914649177492272 4.126812646017109 -0.27814271131885643 -0.5730726693983808 0.3233599312854431
Ni 4.9044250238833484 0.6150557216823846 3.2633613092308202 0.44502221888464644 -0.7470674478527134 -1.30668784840093
Ni 4.901418323337389 7.847516524959282 1.9506358508649217 -0.24107485993228162 0.180933671666011 -0.7187968830427943
Ni 8.642437569301777 0.8582462791744836 2.172269957776114 0.43123904905762506 1.4833588881358453 0.3326377570429433
Ni 3.779797253005735 6.954367229447076 10.321391330834416 -0.1306017561806783 1.223304144666951 0.1548536867495075
Ni 8.970542595546057 5.783945816920878 4.301260287693473 0.5254427262252435 -0.8142578296562815 1.1978149992569114
Ni 2.7979175080484393 8.453998935084917 3.435396097135722 0.6839872315627769 -0.5063725969676698 -0.35614226792278664
Ni 4.700091153446883 5.578057079535411 6.970004882286576 0.7506266259588814 0.9557788038526249 0.7075845592667426
Ni 5.532516337932748 4.337882087676626 12.98750295494942 0.6522778162746379 1.1215136562910104 -1.0818628746686079
Ni 4.617505238450856 3.449359926337954 3.1020326232699422 2.1638969848077574 0.658134275055415 -2.05370773084516
Ni 4.607838836695622 0.7855112893005305 11.89735763699983 -0.7098604997851129 0.35711774446217853 0.12152010559438425
Ni 2.6286992773216373 7.203286441312723 6.805056915668506 3.0299291188228525 0.1453305777504207 1.5916064449910396
Ni 8.61638886457183 4.203910630016632 8.69722321258314 1.2011877723838862 -0.4909282373881416 -2.113126696233425
P 0.7991744484481661 3.8713470696294348 10.543519061168574 0.263243682719837 0.3841140705453643 -0.904820567637203
Ni 6.574848560533727 9.012664503194593 12.69430750171072 0.819847150818601 -0.013461267711228428 -0.814616498547281
P 5.884178535121227 7.123576093505511 9.399524766774368 0.6271794785451134 -2.1998839444253275 -1.8644403425024727
Ni 8.494931275850782 8.569752222770171 0.3554594445446535 -1.1744385293144999 0.16910479735188294 1.8380104304457183
P 7.744445706243588 5.172527172565584 12.609763016359054 -1.0127855602549718 1.8809308839583285 -1.6357209188117505
P 9.327066093617256 9.053896577348217 7.0029605682707 0.03758464312199334 1.6426839803931452 -1.5337427399050358
P 8.556676353729177 4.524128921495499 6.510737462225707 0.2563297292088231 0.21178331005701587 -0.8012647598307233
Ni 0.6830343173593341 3.0214249486331264 4.185638133365363 -1.476307637716019 2.554590765453168 0.6611054418685969
