# total energy = -381171.72473501466 ev
CRYSTAL
PRIMVEC
9.24333271045528 0.00000000000000 0.00000000000000

0.00000000000000 9.24333271045528 0.00000000000000

0.00000000000000 0.00000000000000 13.52855175213992

PRIMCOORD
 96 1
Ni 2.4937032168922575 7.979565599414028 9.08114806985716 -1.1737235055253463 0.18717271059718735 -0.42637863564153017
Ni 6.249805327506319 2.8258808571728413 4.106361557943561 1.1995090991298825 0.0058608296561511964 -2.212778798110125
Ni 8.650215589412019 1.8661918597013876 10.824680907199326 -0.3732976966561507 0.2909804865134731 0.2292806955108309
Ni 2.625698005082889 0.03677367404324999 0.9842124829440422 -0.2804777872099363 0.37319716652254437 -0.29744398275062967
Ni 7.318380781902537 2.4004934518982566 8.40288064954069 -0.4526239424913044 0.6831565081313654 0.6701744940494007
Ni 4.080136374956553 3.768710016152718 11.029192411902 -1.4972837257470537 1.4631811276363897 2.7919105292183914
Ni 8.611569216202982 8.036042361027807 1.3240851975361598 -0.47097364864308566 1.0610760198302436 0.7728391575001787
Ni 0.4319963880166227 2.3254283486142144 7.855840820816824 1.237399703528069 -1.4997632976357977 0.8731772297003091
Ni 4.375913771827144 7.694288628270648 10.29213000217916 0.7260597352527948 0.3778187244549558 0.26831672636737014
Ni 7.4510873066961585 6.076548303007355 5.962952368170606 -0.8613753519693745 0.3719486388274239 -0.6765811689066928
Ni 5.421177541642356 2.807985765440554 9.804181873835118 0.19946309792876615 -1.3445964505212455 -3.186146004468474
Ni 7.5385939355337435 0.8290132328294773 0.036705273382703026 0.08116689858831828 -1.4258469099623057 -0.08370663429103649
Ni 2.9602789118151236 5.930272566094416 12.31303861003828 -0.6887766825316202 -0.5807875215441353 -0.6991569973246798
Ni 8.105875738113257 0.3092689649968541 3.6870174434616256 -0.7338332085506264 0.6715657179699724 -0.7084813600493992
Ni 1.5324428528947247 4.117257598302042 3.599298217976395 1.986935410415617 1.448895564251653 -0.3125170750336682
Ni 0.03846520389191145 4.0159506740324815 1.7173141246879133 -0.12379630322307067 0.4343793944588197 0.016514452715255427
Ni 0.6296576589988434 2.1148559907871287 3.380136031251161 -2.5304097973315907 -1.1146668085725062 -1.1657034634343473
Ni 1.2591822140095954 1.0583338419791863 12.59888312179755 -0.39399996220050854 1.0579590714678166 0.22175044857205684
Ni 4.709172882010971 8.762642242686713 13.375354479661201 -1.0763074920680173 -0.11300204082104409 -0.5372893411511843
Ni 4.459076034386746 4.19688890784422 7.661435051543339 0.7283721854360553 0.6739090213911684 -0.4435970564023457
Ni 4.437853342952174 7.544389505015221 5.115753802968142 1.7832130229898644 0.6800025358834161 -1.0158055780282185
Ni 0.05249288530354331 8.123918723165646 7.492774736299781 -0.25027298149178184 -0.8955864506334447 -0.39790495368186957
Ni 1.3146237223826631 2.4002531252530916 5.593122937258669 0.14903090942014333 0.4197814420399867 0.40006416611671747
Ni 3.6437031873368846 3.2438088931148044 1.869212580764462 0.12966073242364765 -1.286512659004636 0.6737478132229558
P 1.6405713565539695 2.809926865266887 0.8069900687998555 0.8943528353366598 -0.6650538849933837 -1.0751456105494324
Ni 1.2985588104866326 6.54355843455802 1.8518425103185352 -0.2940413848269839 1.1896823428474477 1.5785881783545006
P 8.307075356778906 2.7400472715189053 4.747276671601884 0.5018196874896648 -1.349451721731018 0.9094058730150403
Ni 2.1145971774769508 7.3842210393452445 6.7509908323326995 1.6095290909077313 1.7891869811851124 -1.4048469106718708
P 4.192664704888819 0.4745360528773318 11.157632214410691 0.07193483846708901 0.2981430657001833 0.15505551834766845
P 2.6521986393785855 2.016488446254586 3.7059163611041024 0.9857673797949151 0.45120726464943584 0.8353545024255806
P 3.1170458311227645 7.146362363959423 0.46041871114038835 0.37302053173536404 0.86291775675583 1.2050135738878796
Ni 1.9178898184093853 3.287973535830129 11.446507614898792 -1.700412445452865 0.07253519105524928 0.056939650609837425
Ni 2.804870762385915 0.13908904588925305 5.101548649572388 0.2942285611371255 0.3480013839832071 0.050451728892648595
Ni 5.470869697196476 1.1644565424845537 5.329979125801736 -1.8887269829639795 -0.7685014493567732 0.7455726084747417
Ni 6.3356758864902805 0.7237751192449674 10.024805431429606 0.4779575361600865 -0.13218067063202396 -2.550734624931872
Ni 3.3960373361618292 2.2384301030644784 6.8209064750774555 1.1796740666818264 -1.0445600244530913 -0.012290387331578834
Ni 3.9943859792951746 5.2011954713238095 3.2687141282199046 0.672946400367583 0.4014775015244763 -0.23934682149758135
Ni 5.258060452902855 5.894223569319665 12.013272715191201 0.8118240234038083 0.12840346297777885 0.2589378562556314
Ni 4.594897562235006 6.641889005760536 7.905720616020823 -0.06328796142536842 -0.41911449787994914 0.061615458818951946
Ni 1.3882191357981961 9.197097357150025 3.064501183157186 0.23888170893570476 -1.7579966716252369 0.29226655231474824
Ni 6.8200542398203705 3.611462443554747 11.309246900179295 1.263984910215765 1.1328537638941782 -0.18327517531499404
Ni 7.451429309998892 4.96517621910675 13.107475308961266 -0.07918560649223137 -0.6755840951007461 0.117652652219178
Ni 0.5501307991139877 5.355466690854737 13.087115020449536 0.018587276083884118 0.20607031883263865 0.083715633152101
Ni 3.4564147840932864 1.9695508037873573 12.821576261540208 0.5829325929115962 -0.3865401634883537 0.24605328698347947
Ni 4.318457216967692 3.3536474132877228 4.932631369685154 -1.939278470659286 0.48863969846428107 0.25789553103404617
Ni 6.042412676061416 4.1754813497595205 2.129082403847647 1.0247383617414738 -0.5533834184995695 0.16928528879380522
Ni 8.64796021628047 2.751638410481864 13.249498188588035 0.3226204820162573 1.1751185861006601 -0.46544834794948226
Ni 6.547791880845926 6.311560031981221 3.5649352050507996 -2.5924597725847995 1.5543241636008136 -0.7686827121296439
Ni 6.244564357975221 8.884876071750643 1.4853536197743917 0.09792714876579263 0.2353050473280399 2.3732313191036485
Ni 7.681893319379636 2.3257795952494553 2.291993366272257 -0.4234424358313417 -0.3231010211971016 -0.6790034051949403
Ni 7.942204049423374 4.666524145826687 4.0393547919385515 1.5436474006132577 -0.2623335122007417 -1.004491952787612
Ni 8.876131879199638 7.613196872192467 9.79503652065334 -0.26560344120126517 0.7298703672481365 -0.12141314770287477
Ni 8.90669957979813 4.117460951617182 9.184574490270426 0.6597661542318831 0.3396846365873956 1.9599018033365927
Ni 6.6703584698800835 3.58131993625155 6.31418051674677 -1.9200173084368288 0.09011305203801255 -0.8981274718877436
Ni 8.865372640162253 3.9941179226524905 6.707740355202252 0.479905918135709 0.2227927737936421 -1.0069820661993174
Ni 6.953666611199613 7.526133923315188 8.155430168013032 -0.031427622381662 -0.07690838042228045 -0.032432923717724785
P 5.821432325832183 1.0729475506717205 7.577422402393154 -0.9053895527667954 -0.585945668706307 0.43299331274457037
Ni 5.49001263881712 1.9254416210670704 1.109922729363609 0.5675154870255775 -0.2945720605194733 -0.11119249841613107
P 5.3655234366216416 5.299507555861314 5.21379505786321 0.306966063308452 0.1643487707241363 -0.1566586011687302
Ni 8.431767912289525 0.5387134348021481 8.77515956356681 0.7810574316449129 -1.1698923047047143 0.5467108915754003
P 5.2663332354960355 5.080237222145755 9.800190602858878 -0.477210630691733 1.0142875987217952 0.11929712980113648
P 8.459340773155956 5.808611823645881 7.774371936772385 -0.7456854799035222 1.993071862330658 1.2954837521549947
P 1.577550315525697 7.322438604872823 4.531564096568019 0.48956709537455684 1.3787252738841544 -0.28980137860370736
Ni 0.2899337620600779 1.165297685742631 1.2006478865799037 0.5815763359940178 -0.7352396019798498 1.2649675858440084
Ni 7.6700248804414874 1.2606981205406362 6.387031841895543 1.8328327428995208 1.0299199059424133 -0.3659150310388343
Ni 6.6459375853983165 6.71614069578402 0.7026485584684612 -0.7641817389354968 0.3460941396581652 0.7195610149023285
Ni 5.969898732549126 1.5518261211605342 12.116969040913652 -1.3533245744228628 0.8815993923257334 0.2670517436120175
Ni 4.287852543039179 0.9581361176103873 2.9546358573199987 0.7869380587954059 -0.30870695725895864 0.021154265480111956
Ni 6.924670277127202 6.40588824020849 10.380850280574828 -0.02787024404770684 -0.49161395060125657 -0.18675722032632353
Ni 3.788121014416047 1.0110819262067416 8.918832378045959 1.4140077512355325 0.15973081233615072 1.49057828870242
Ni 8.663821774861361 7.243722385248774 3.804972533908367 1.1975473474178215 -0.21226024969343446 0.27348181550807743
Ni 6.726354578203533 4.612552327322128 8.373537690499292 0.18899048053221645 1.3454246028494956 0.3390230917439968
Ni 4.241829990490078 8.766561415669406 7.102043357591243 0.4136275066234489 1.1115364904736407 0.22720530103904096
Ni 2.0366389111184224 0.6018509418200003 7.537229619655806 -2.1320865251653798 -1.408068502932962 -0.6404224595979486
Ni 3.941375467371276 7.8906909573655035 2.493731871223027 0.32859778264561473 -0.9592086554697802 -0.06426960861234739
Ni 2.733974402062235 3.4065285185565326 8.993767150341663 -1.193009607448468 -0.3323649629975308 0.17953319177405855
Ni 6.829158922339122 8.519422434447211 5.853588030955263 0.11067185002597067 -1.7803261883603723 -0.5099284326397282
Ni 0.3728797306390313 9.251651505602483 5.422622274513098 0.4823009007304468 -0.3964358253355108 0.2841416092147687
Ni 1.00448218679721 7.767699175036054 13.263202353361944 1.658087716542725 0.012947304189287379 0.4895321283715634
Ni 5.29883279258835 3.670952531565595 13.164944804486227 -0.21228158984967313 0.14184261920182023 0.0510911622488604
Ni 0.966205546888428 6.129512598268723 10.84098337274077 0.33754239343341225 -1.0303819331804964 0.034348652683198914
Ni 2.398533865406911 4.877715806931698 0.9647700573501924 0.1404861051739258 -0.8153209808134733 -0.5251766170480504
Ni 1.3256972347252667 8.591954864624514 11.208621209515453 0.08461809036171232 -0.8700921630170823 -1.8976973047833898
Ni 0.7850084997665122 5.494421708422648 5.26272833581856 -0.7658750674775198 0.22983476824208804 0.9243290699837757
Ni 1.5552461541878821 1.3900400723019464 9.862719898597812 0.2515621326168506 -0.3388829666217067 0.024330863435880676
Ni 4.664573802667848 5.452475465508846 1.0051606474031758 -0.9702011499255421 1.8276026048488332 -1.1918412981719797
Ni 6.181432396956872 8.430520062401168 11.575231187715428 0.18680041485943313 -1.7917591127876626 1.6703912165004267
Ni 3.1940243042356204 5.769715880459173 9.795509779277664 -0.6066602755458391 -0.6983764104049134 -0.1959183180003013
P 8.339168207240943 5.933822005776854 1.8742862459771956 -0.8570345585021757 0.27274956532774314 0.5447313992515264
Ni 1.2714758462430367 5.834049474703347 8.03173866541285 0.75467457077601 -1.3439968692640336 1.2808932559353294
P 9.026391492422812 4.0680738260357705 11.525893051796302 -0.23176566671621374 0.631235393782042 -0.9710933227225081
Ni 3.1528082845898204 5.7597885413473575 5.396403561858845 -0.4937176272078207 -1.4029044422335193 0.5440559704510566
P 6.027521667393691 8.895949584093247 3.7662401977070226 -0.8225092710317964 -0.9516575825953997 -0.2364476455729154
P 8.24667017884993 9.107575681826056 11.651478513227033 1.0567465392169544 2.618511989587161 -1.672469953406326
P 2.4491688408766783 4.163289394183649 6.733349007911086 -1.3557167288041232 0.19029300139372388 0.2536907489240792
Ni 8.144522111322292 7.327476221088782 12.47937145415674 -0.2600172053627393 -2.673489117153989 0.06801313481517963
