# total energy = -340887.2022354579 ev
CRYSTAL
PRIMVEC
9.09993891068126 0.00000000000000 0.00000000000000

0.00000000000000 9.09993891068126 0.00000000000000

0.00000000000000 0.00000000000000 13.31868043170249

PRIMCOORD
 96 1
Ni 6.276391528779215 1.9618011873553225 11.333850817013436 1.4617338536669018 0.5314156559792268 0.5423868102787498
Ni 4.503732567559322 -0.02292001563470318 5.772849150114979 1.131921738998212 1.928393705425982 -0.8342365867710535
Ni 2.4629621120585456 1.528507605568531 4.726746585569723 1.094233994639451 0.4466055042113663 0.26546820117498154
Ni 3.1338732935012588 3.9705125587726195 4.580960107435239 1.9924571115647942 1.1768587087202182 1.0161742742215467
Ni 4.124474421846245 2.6450336858145076 2.2433314512613824 -1.196483167819365 1.182006571469745 0.7892921608498793
Ni 5.781172864055133 4.469343899165491 2.2442641949793947 -2.005736345172204 0.558091108387884 1.4035703579522922
Ni 5.161894734866084 4.905221863546579 11.354108190580918 0.663045082093471 -1.5960811929329415 -1.028747225790551
Ni 5.854718568728047 8.047949397414918 12.23725633261704 -0.3753427521106375 -0.21758166190634787 1.1913684723006193
Ni 1.8682265175766062 6.7791904424506555 0.5595434014998109 -0.25439908784501347 -0.2426738289882853 -1.3948214081150687
Ni 2.8932345141928493 1.6639874931174492 0.3446474388146641 -0.598416290369492 -1.1385587846987553 0.6506006856825312
Ni 7.899975294013994 9.263373611586314 6.994997309000904 -0.8802428782978389 -0.9373136551689019 -1.1928676825539648
Ni 8.841154655212408 2.4782682089726564 1.3331337414029096 0.9929546415719738 0.04541956578537984 -0.2756109460359382
Ni 6.715463571648325 0.9682061791739844 4.5775103206694014 -0.3128009248226742 -0.09204832138751244 1.3723103714967464
Ni 0.8740927930234991 7.635112477853407 2.630066106620495 0.3742346066481232 1.702365712524494 -0.6867516816817915
Ni 8.086442138168003 4.070457185649954 3.3704252903339684 -0.6029270337556519 -0.5328063656791663 -0.0995060632171383
Ni 8.175503238345412 3.9248581662529443 12.130840739321377 -2.0254338236011313 0.9741783894057351 0.30171818464595135
Ni 8.318035578396373 7.391143120976291 9.244668687563156 1.7493261404344322 0.6927107274787038 -1.0626431072070472
Ni 7.106606237319682 0.6788554279385625 0.16184695996784587 -0.6506472226497504 0.28710197739467325 0.5442300341350756
Ni 2.2051608483387133 6.692923023457926 9.10246576529358 -0.7342790378387934 0.48618918004125944 -0.1118599567968009
Ni 0.15762094842984764 5.058828829010426 1.0455774980815558 -0.09886354453713297 -0.4994794693922623 -0.026056844988051896
Ni 6.375471661478881 2.1634831290363192 6.926232712127438 0.7049576631668569 0.8341710236404408 -0.26713221914096574
Ni 3.746881564917523 4.591810874355801 0.5602850465048643 0.059585315762800614 0.5610908144461563 -0.4238460990276636
Ni 6.5092407605498845 5.725335640116379 4.65803567833466 -0.8967951262295651 0.498277221554045 -0.018741285163245143
Ni 5.090633114809959 2.6021638745408002 9.370077672939157 -0.17835434097460898 0.8250142968418371 -0.8027243750953853
P 0.5607700732382306 5.928073174688004 12.186859052040505 0.2702908193746055 -0.6083325210419395 0.9276072265144154
P 4.172804196347341 6.331273259153176 12.572701003411941 -0.06194893089897074 1.4257255538930929 0.7328255932217186
P 2.6882310948818584 8.751947956015602 1.3421235708568038 -1.9943628132279392 0.2407079635111661 1.0547289945662932
P 6.796507625820187 8.08198316819897 5.444889178910955 -0.44866392940229183 -0.9091922143423375 0.28097092479627095
P 4.877576249738571 1.0091650033181059 12.853165664494789 0.34677779598875114 -0.6969394208480707 -1.135219435912877
P 3.919744000696624 6.408022142252825 7.729335973262311 1.939574661743466 0.33169621906528035 1.720760670091914
P 4.662672097108583 1.4235489124607106 3.9811667670169957 -0.8119885740061306 -0.9279358134984277 -0.680304640504867
P 0.33692523082339515 5.778916079254478 3.262330758345885 -0.6705059092468904 -2.5178527866021865 -1.4953931935925602
Ni 0.450561625487277 0.12743554172723365 4.519360802303848 -0.8495253946093241 0.32556105270181995 0.4022809712623781
Ni 1.7125720659024894 6.024505225222387 4.786907190390697 2.2747575538057663 1.5141578757945728 0.5523768316119262
Ni 6.47330510257496 6.076265676618024 9.060431328393662 -1.3870080827182372 -2.0086450341785667 0.6855553473808452
Ni 9.013179896629977 2.564963325084864 10.218118251423174 -0.5397408880154704 -0.05346737579052081 -0.7824612539709749
Ni 2.403139114963799 5.222382027486829 6.859839559282401 -0.9831731367051776 0.07130260419972881 0.09270498113490486
Ni 0.7266601359759572 0.23279645212613798 9.377562372530033 -0.09053034208108925 0.7854532467197635 -2.0741102057609115
Ni 1.5645342629305787 1.2174444005655296 11.573227434822448 0.6844729129499438 -0.27781952365148277 -0.6248904254006206
Ni 3.998312871538736 7.074920250723408 1.5848162063325824 1.5725232031073435 -0.9477289369649549 0.1367423218607774
Ni 5.794031077455631 8.097298365051794 7.892143886758177 -0.7953337390582689 0.31279398284413873 -0.2721885506179506
Ni 5.470528256232897 3.320394737287542 4.521146210279205 -1.1859778974126671 0.08856241972144102 -1.661674662563035
Ni 0.675241842275903 7.975395586061645 7.0940483218966905 0.4484150466162793 -2.195308666349819 -0.023246372122450287
Ni 4.996093851527738 4.569670723468743 6.989283457483443 0.9186991253915082 0.7846019544630617 -0.1917112218974892
Ni 0.8897674374554585 7.827248583825187 11.139357826915168 0.8648573969807041 -1.397992863864515 1.4451055010816014
Ni 4.728282655224362 0.3634406322433333 10.310576358721889 -0.4820376197667311 0.1398088766012431 0.053207437260914814
Ni 8.672951388054011 6.98436676059718 4.746498002544799 -1.6149376635178125 2.3568863020867212 0.6733801454708919
Ni 7.35333287562663 6.429725496081692 6.852314819961189 0.6156447384326365 -0.06645838873355005 0.4255401989006349
Ni 2.455290863724066 5.338843043127014 2.6343148680052737 0.7428310411738626 0.06253308553721489 -1.2382427682546544
Ni 2.707286366545442 5.51884893079528 11.26388775821156 -0.6008382695474233 0.10050365124371724 0.3092623155417964
Ni 1.3733536505235913 3.3614445608187866 3.4403883491358456 -2.2041748584911978 -0.4910534501120962 -1.1260645088864865
Ni 1.5729335063620438 1.1380292354231727 2.5303762780271044 -0.24115764945407503 -0.30415121956747615 -0.8078087315968281
Ni 1.3253605737548517 3.610528083252223 8.24467551247319 -0.42113589918535216 -0.6937605088994568 -0.25373934277382754
Ni 3.527090745199023 2.7728059252740964 6.889459859790981 0.1957843635255983 -0.08233315098227754 -0.629102149489123
Ni 4.057790070962414 6.878752871902074 5.6184450300199344 -0.5401265534896633 -0.7817588285873117 0.19683748738046103
Ni 0.5139527085511219 0.18904394679733624 0.30329549731817057 0.7785428927531752 0.09491535852266235 0.3927534913879171
P 0.25389102005515113 5.8279465490364215 7.983377142306216 0.11005169994346853 -0.06584440929863498 -0.35648139642976023
P 8.705965965702283 1.7404542781170171 8.026795679884275 0.6892711056695354 1.8539026761959427 0.9643156376790425
P 2.2722182967097493 3.3468482591242363 10.317928199207568 0.47564328620461316 -0.646275575944616 -1.4243523276946501
P 4.483958400737466 5.99198204426458 3.763938490039883 -0.949058454409656 -1.3482525592165941 -1.8815348360909145
P 6.769935804780232 3.9539870700710584 10.14806146325256 0.3826115178579088 0.26159714825534947 0.1290102433238423
P 6.585370847817097 8.06743236619798 10.233008481138132 -1.1821996613171575 -0.08158470285202724 -0.8827594740721054
P 2.1789894246021007 8.400808620923573 5.4968725788050445 0.5585384803379477 -0.24789188285411498 0.3292174185074846
P 7.271205928748004 3.9026361159174754 0.9457675502971625 0.11016148604845545 0.46486162220807686 -0.13836854461029072
Ni 5.452473977827668 2.9960092220097145 0.077030981199731 1.1858771101687446 0.4876994460381988 1.2021822750866713
Ni 1.4565270903541339 1.1357997504386559 6.877047543387385 -0.5054038052964973 0.5307109166027182 0.2069439796868436
Ni 7.024333691421659 0.9564945580512373 9.214781758850304 -0.5950617720749622 -0.07772573411725324 -0.7666512835219119
Ni 2.8021805274374434 1.6364510785739896 8.792965929761355 0.4286221802600683 -0.6618196943268021 1.9719980723794943
Ni 6.547897300199791 2.1157812503063735 2.4354402574170257 -0.15182261323266757 0.4045111461444776 -0.6371710425401865
Ni 4.517000278201874 7.055901378814674 10.325067101127377 -0.683025638980456 -0.15235328892515695 -0.2805029840209169
Ni 8.297023819909642 7.313557043515108 0.2018976102284786 -0.47997970879643787 0.06769380380254793 0.6470319944946663
Ni 7.9469218778308175 4.011007286042413 8.273737076744833 -0.48419143288494026 -0.17144038746359508 -0.6634050365360511
Ni 3.257395861582198 8.443569232932733 12.612524155204767 0.47541060136851676 0.07889867137943185 -1.4760587549300062
Ni 0.6061041479152325 5.048573198081648 10.100380514381653 -0.8488324823073575 0.01852454116674874 0.14024544991802942
Ni 8.690077472710586 2.3828098518804914 5.6908059226725065 -0.3699637471869112 0.2302715986691905 0.05432535291544192
Ni 3.8105083363940166 2.6710686104704355 11.807809294923942 -0.38375437321310035 0.6923520585877043 -2.0742199918658986
Ni 1.360158739390737 3.6113652776137553 12.138698536399462 0.23031839274672591 0.2370503121539208 2.2946445225376806
Ni 3.0816851449861424 8.459339426721172 7.63200302879541 0.5370378872620105 0.2910869301843503 0.3397684545504535
Ni 5.735873369145238 7.7819763887314295 3.3656969621790505 -1.2670972305925017 0.8347443796454075 2.726787314356497
Ni 3.360452667499144 8.60161696848819 3.5824984520305554 -0.6623287727527367 -0.48418191980324354 0.18470985087899155
Ni 3.570934249914948 4.612012738297136 9.047845203160662 0.6488603059526568 -0.3015742028689193 0.23931468270806522
Ni 7.695308572435358 6.301043262750872 11.408608633522832 -0.9311355513826481 0.061438309811139354 -0.5866591498335638
Ni 7.720105905426412 9.068707722652512 2.6075046285710566 1.273770271737303 -1.072745742858688 -0.5558383077979653
Ni 4.789507042880804 0.38737620103833054 1.791788852380918 0.4342187005112393 0.20242475166025134 -0.6878323163404799
Ni 6.100571612918612 5.748886281503846 0.15814237491806318 0.6702783666171166 0.7012904987279148 0.39157052682340954
Ni 8.222813819710728 0.18284324855876607 11.111694923223606 -0.8637659636887381 -0.08747175776042355 1.4518309927308932
Ni 8.998083098306248 4.893009745794655 5.672785314040513 -0.6341062875719338 -1.5838211446186656 1.4006009909113233
Ni 7.2463266963085395 6.294127309329514 2.5340917830033414 2.27816426549447 0.015804828242740522 -1.5294034890997337
P 8.46369829736437 1.8138725836479597 3.505037043729732 1.237551398614585 0.6650582558687579 -0.30375526968063815
P 2.042808841772334 3.4370741514568213 1.1415718415638765 -1.0201548561358496 0.44080098171444726 1.462212078854901
P 4.764891708663998 1.0726370758364903 7.656030506971401 -0.9652769731510473 -0.49265113361651935 1.8478940081080175
P 8.673288085786368 1.8725034887713934 12.414860746459127 0.5510545132560768 -1.0131426864840745 -0.1031328613364482
P 6.290068736663821 7.912123712194932 1.3632199587735594 1.2291145807011412 -0.8425199098257684 -2.2761773169714283
P 1.5845450281589555 3.333917246214039 5.9785687346026295 0.030391724917979916 -0.6066574473323617 -0.8781366305881135
P 6.805807763184171 4.028588367634602 5.8140300127636815 3.1844938135770318 0.20691132667669526 2.5758959546888476
P 2.623175633027531 8.694672941760302 10.11373922441133 1.111985147975285 0.042493136167204244 0.0038844226560707296
