# total energy = -340893.56843544974 ev
CRYSTAL
PRIMVEC
9.06190749694974 0.00000000000000 0.00000000000000
0.00000000000000 9.06190749694974 0.00000000000000
0.00000000000000 0.00000000000000 13.26301761343689
PRIMCOORD
 96 1
Ni 5.9845651219228575 2.0733553227330757 11.269095188239147 2.0671057494186207 0.4542715053970563 1.2264061806310427
Ni 4.66497018446076 0.30522497323572223 5.992217902617039 0.11796041326758393 -0.2245922888962261 -0.6285586182808272
Ni 2.737529692678204 1.3972373589988045 4.838600858813475 0.1977610276359949 0.9576179139438926 -0.4768583895586368
Ni 3.2170858256990402 4.160675044577737 5.004958446386855 0.656556903265966 0.44921774502323286 -0.541881588507557
Ni 5.213460246126523 4.304695936907672 2.5712745046570378 0.21956038289927346 0.9178414053769031 0.07352789398582175
Ni 7.499598213596224 6.223427935798448 2.61846438679434 -0.061050844564733565 -0.047809920394427344 0.10409291125687233
Ni 5.148513556682827 4.692065287214582 11.514102881438273 -1.686174190366296 -0.1408080072897188 1.2405832434623731
Ni 5.622215697603673 7.951107743599308 12.530169234706625 -0.2197071928897829 -0.24550178535538364 0.007770130863722103
Ni 1.7463473367884441 6.456137714633955 0.5052756382502344 0.3743263950309811 0.5712505285879775 0.42026120988988264
Ni 2.702306059098234 1.583803905987334 0.35890499336375564 -0.06340083285414888 -1.0516385285664276 0.6849524236895236
Ni 0.563980485962547 9.269243713990045 4.939996351700791 -0.41506141085649806 -0.04658401840712622 -0.391997329948183
Ni 8.620066800585914 2.3083758879238427 1.2917286663991276 0.3945149541637141 0.560310484636706 0.2843462690264071
Ni 6.86468474224377 0.6851535914786981 4.924704383173341 -0.06471595212114661 -0.4427874160168568 -0.36528331099210637
Ni 0.7809760113915654 7.485470700153679 2.723029734846634 1.6918802396121377 -1.2520562770989794 -0.442755791447973
Ni 7.631439902547853 3.8492354153324593 3.3206217410848353 0.7165335409299143 -0.27774650432170234 0.573919076559076
Ni 7.635698998967349 3.957987364546047 12.46364214863408 0.1754921889354655 -0.8387439877231038 -0.19431317829671052
Ni 8.209018686568053 9.02476251760363 7.0478213573285124 -1.3872528517391916 0.01038648544064663 -0.5054398007407553
Ni 6.925027982791497 0.8161135568524174 0.38904761553433775 -0.4734249383970557 -0.7201793652126177 -0.6048612746638873
Ni 1.8108228070538117 6.612509986580433 9.42706045395624 0.13326850437956403 -0.4060643495642104 -0.3653303621799579
Ni -0.04996463814506776 4.915649725423636 1.183687170715941 0.01625040042059137 -0.4427611907646117 0.013378478189435024
Ni 6.206962450278816 2.253841329939727 6.959423358046484 1.2824518586717009 -1.0496448951751665 1.321327709801292
Ni 3.393022755453378 4.237420337294167 0.28082306932418577 -0.7126316347723468 0.821496770606882 0.4253535368111255
Ni 6.194792308807785 5.417924059984216 4.623275442895337 -0.5610851580192014 1.5885352622648836 0.06222738137133799
Ni 5.208394639959503 2.86485855180662 9.183339551590242 -0.16232865497031398 -0.6028650701694649 -1.1945723239498975
P 0.21001423206395306 5.878178330508182 12.282309759287893 -0.2048899253712923 -1.024010482436514 -0.07154094546278
P 4.043441150154257 6.213024866246143 12.781410613920583 -0.2666398528855795 0.11136450521762112 -0.1998222810403978
P 2.2753361739972746 8.560675060302115 1.3088882940160638 0.55706729510906 -0.4311400615859156 0.9743264849478254
P 6.558564452569226 7.700156345418167 5.82586031504366 -0.674512202192806 0.763598355628201 -0.6360243305302531
P 4.708757320416101 0.8709797806428172 12.661672008326148 -0.21505915259481026 0.06016252842250929 -0.23733390483261063
P 3.9281102562586376 6.161698223437564 8.220643301221099 0.38515202489157535 0.31279835371951287 -0.09931631580383542
P 4.606683996864576 1.1649263040834197 3.63274010718505 0.6652446608479511 -0.7464030747958371 0.7477127947461961
P 0.2750080434254807 5.535746978380605 3.784588675019584 0.47485370042378217 -0.5536112182396594 -1.0799546019023014
Ni 1.3043074998882853 1.0231346409432642 2.6882945380688157 0.5122041160477824 0.18638543880920158 -0.9546922556566655
Ni 2.0866310168917215 6.516635007605367 4.908509848681248 -0.028670628461815142 -0.06597039335353799 -0.5639357400941191
Ni 5.883189565231548 5.690533416553865 9.123855379852234 -0.36731448248952225 0.06412948349005729 1.054838266450648
Ni 8.492991674861212 2.510220810578909 10.21154161108198 -0.20800096019644823 -0.7001080483840394 1.0806426291082616
Ni 2.2172221626393265 5.133443604883628 7.487530471677406 0.6939631118285661 0.003859740065722385 -1.6645465847941914
Ni 0.46382103722761314 -0.05230079784069837 9.139638503754018 1.1907133552151234 1.1502135953288644 0.12474812561337871
Ni 1.540424555859391 0.9558681032370347 11.531530741510565 -0.3597896348673868 2.1066382602956044 -1.3838158010331845
Ni 4.125687020586931 6.684117177871639 1.7226142016338415 -0.2574602432688404 0.2027983329495862 -0.16172136040361826
Ni 5.847440341029597 8.004428006008503 8.00688378288017 -1.3239157822434424 -0.2534030424803313 -1.406686534983771
Ni 5.460922810006587 2.8987953945534644 4.895472482683949 -0.6375011721860957 0.13029399513227238 -1.7889414408332092
Ni 0.8568839838757365 7.485162595306312 6.942804726293897 0.3491478388828245 -0.3837618294122681 0.08289930789839271
Ni 4.958539732558701 4.48210995754792 7.074095451283172 0.2932543701493143 1.2938498160959975 -0.14134048275442113
Ni 8.163500726323086 7.208448194740849 9.214534261195512 -0.7575197535342889 -0.4112908880704723 0.09714476207381334
Ni 4.7278507590456345 0.32394324890404874 10.37609587910753 -0.6211494703009496 -0.617325468569169 0.08371434760052035
Ni 8.424510841580062 7.268320216110249 4.792047122566915 -0.6534870060913908 -0.3904513256173018 0.5789823500145964
Ni 7.023893391167487 6.072664984455521 7.188183957691318 1.5278664836299172 -0.5141015901808114 -1.6171038179311956
Ni 2.2507965290951506 5.033490767634575 2.564603128520796 -0.1139410076955457 0.5180752301165787 0.5382596754842537
Ni 2.304089605782519 5.553970473911687 11.536995071597705 -0.4252437507061386 -0.6433825706675371 0.06547237067119692
Ni 1.1610478077694946 3.1634574584424775 3.8457175829281 -0.9564953703036752 0.8393235143756577 0.3468700985922414
Ni 3.5639484504843493 2.7350014205483317 2.6098302015422186 -1.2760824648102476 -0.29961862180444526 0.15836221412339824
Ni 1.283247627379963 3.1842545356398095 8.374534422955536 -0.2704733676990568 0.061678707956719585 -0.16938967558215343
Ni 3.826544399514542 2.5766536528157906 6.806660443767849 -1.6283822190584925 -1.1633663306607385 0.6618590322051698
Ni 4.366280658752147 6.982779517858425 5.855065029811225 -0.021467425845156575 -0.6963215847584137 0.47804212545409286
Ni 0.5764596384716739 7.8193838594422616 11.182593846149887 0.2512487151414899 -1.4290150232776422 1.0807387883664936
P 0.20863229120443533 5.750767914214286 8.088702837480167 -0.37270994247348066 -0.6270630075719071 0.5458701408416599
P 8.721397047740846 1.7472625894232723 8.174713930385822 -1.1706947460013517 -0.5326086478460634 -0.4061615372637069
P 1.8783883877001335 3.2050425509298663 10.448206912443256 0.25214165926940446 0.14467751754745406 0.7746558989939433
P 4.153896737935644 5.909958439323451 3.844192463933629 -0.9375833638905209 0.15978043462716354 -0.26473723654622794
P 6.612111262660308 3.989115016037479 10.285177763412177 2.8986691602328856 -0.1844601967620307 -0.46468395897963194
P 6.238298525637586 7.793575547521564 10.087691618156638 0.6361852815881495 -0.960298031879217 1.79509717602196
P 2.4815398740518693 8.529628965976164 5.801297109182619 0.6030558460240323 -0.9095758229340012 -0.20496603002486638
P 6.82403302620576 3.738000503525377 1.223581311305717 0.4378218444814653 0.24881208067553923 0.5113857339115451
Ni 5.024193250769886 2.666874001650927 0.5513228138800923 1.098984621950559 -0.2142633961663923 0.2766537854781558
Ni 1.5167820397775436 1.0388117405299242 7.064891272063421 0.20369050574655242 0.6111872168819151 0.25791532852838805
Ni 6.92034297673005 0.6885064971706428 9.146733977150754 0.11740711186727522 1.2864656078167844 -0.3560481655470836
Ni 3.029531530817478 1.6161005435173088 9.172596660515106 -0.9291293195858965 -0.23163351201372367 0.44024973719666766
Ni 6.428254225947161 1.753651234052518 2.5539535750905973 0.19927412184641166 0.756276110935175 0.6041305671454499
Ni 4.20707200982843 6.934823904556341 10.597946774454774 -0.2728200135543624 -0.11455730112330594 -0.5363943401407407
Ni 8.108476825346093 7.323670345749162 0.27788791755764286 0.5992393004914196 -0.695754399401034 -0.8995842589389281
Ni 7.931814943009712 3.8888812596628854 8.1969826613247 -1.036439709338802 0.06314089432454287 -0.5176615396179277
Ni 2.8800644322149522 8.208955253217125 12.398546843911065 1.056702059132264 -0.14941040424674915 0.1251291631018813
Ni 9.177990307725498 4.789136437950018 10.151433980123416 0.5775494742228118 0.81140750469168 0.7548568619901451
Ni 8.467074620053209 2.3442791645494765 5.886829733384126 0.7386028620251279 1.0111781065585361 0.1732609856121016
Ni 3.7113403723207794 2.6271375382477458 11.668272203726067 -1.1724806342571807 0.4079409977616329 -1.0359272884787578
Ni 1.0640582141995396 3.367567857916425 12.529585647878083 0.048505403799555175 0.22293469868814506 -0.35246739017436074
Ni 2.982137755766477 8.248863892858541 8.14211281277139 1.5488585125005518 0.09834958101519192 -2.046055099395909
Ni 5.551324396987234 7.770957026961851 3.571730816452571 0.9674904358625982 0.052451532931496764 0.6639989613663081
Ni 3.2389522079548843 8.425571084731299 3.394682896866254 -0.9796247572322869 -0.23843330854437647 0.5101945418169214
Ni 3.5271571069457135 4.424267803408238 9.592729336576681 -0.3991678795546932 0.23796562487933856 -0.0756307992614375
Ni 7.228030976363261 5.9836317454734775 11.345410040359988 0.0662393307442085 1.6524780836654316 -0.4920399823950817
Ni 0.5097105356708769 -0.04007990968892399 0.17218348776081463 -0.09545503307621625 1.0875434699931528 0.5350257419279882
Ni 4.787242499329432 0.1498322934657297 1.6074781387446457 -0.5633225319901524 0.0777740708566854 -0.7092915146555203
Ni 6.075102637512638 5.719259662617282 0.4485879710974539 0.147574636589591 -0.20423917916117085 0.10385919797951144
Ni 7.628250111186867 9.03407815828287 11.35178962308196 0.27183322416106087 0.07737529275636996 0.41695682810699797
Ni 9.357234833635403 5.05845632217865 5.995427630174031 -0.7999038749274546 -1.1455359873475368 -0.5027463130689922
Ni 8.128530826146832 8.850556412138918 2.74142631280668 -1.5719773579062024 0.6172017985071112 -0.5009557968274727
P 8.442534975151084 1.7356089766669458 3.6976895152009273 -0.0721441262644177 -0.09719155615134874 -0.20837788391989273
P 1.6305089760853952 3.1865109505514155 1.467645659957459 0.4844341450233656 0.333598835404632 0.4179629007740092
P 4.721280876270878 0.8485995882444506 8.069856788919257 0.7512943414498674 1.4103927801907647 0.43790591955483943
P 8.483630724645593 1.8035279716970132 12.378002593926722 -0.056018167236832554 -1.0374303553868458 -0.33386802990561854
P 6.529330739698379 7.803887998001112 1.4729903728685643 -1.6706971777766195 0.40809089307593593 0.8748394478940804
P 1.668858967675421 3.092856138858854 6.099025166529299 0.3591885109482782 0.2391632447318655 0.037577958253773996
P 6.963867317374402 4.1351838994116825 6.043001737179814 0.8043179448347502 -1.05437058278561 0.9061385151176782
P 2.507783157521793 8.603800677026344 10.122480280187382 -0.6384398819502811 0.3576057398421906 2.0391905110655912
