# total energy = -381166.1278351311 ev
CRYSTAL
PRIMVEC
9.22611430059980 0.00000000000000 0.00000000000000

0.00000000000000 9.22611430059980 0.00000000000000

0.00000000000000 0.00000000000000 13.50335086886125

PRIMCOORD
 96 1
Ni 5.303797782480023 5.312027476291425 7.4165400930922285 0.9230982829004682 -0.024842512964976568 0.1065979370669132
Ni 3.8020908625246146 6.2662198788211025 11.776082920580981 0.3383366071999334 0.35721133261724936 -0.4417268359628264
Ni 8.025547583861417 2.294737560716541 6.176216367567341 1.5811574817435738 0.47991748809993473 1.076202848169353
Ni 0.0853489366709683 0.838782018161753 10.34237799749363 0.42753614628474107 -0.8129095431585032 0.5879565284887487
Ni 4.817064904997687 3.7548992887069987 0.5755130060013545 2.0106774912275633 -0.30894324163948084 -2.721300065989681
Ni 0.6112780374586347 1.9992435770937436 8.416692383202054 1.3850635573973564 1.1518261912316228 -0.8569139737639113
Ni 8.555098857059797 9.193499824862327 8.149433999288238 -1.5584636396904838 0.7006387240765287 -0.32779225602518386
Ni 7.240885028623761 4.721611528122407 2.143657173866959 -0.1745660775767703 -0.0914867924570876 0.06377132881969017
Ni 2.015758321401375 8.66972409911455 10.96422085825208 1.337005268437549 0.7897019946937883 3.0132328891140947
Ni 2.647110538002212 1.968742043752387 10.069556266754393 -0.8047509186071109 0.08695753712816637 0.16530727798266368
Ni 3.5537330960346036 5.95879652961743 0.6402314288475776 -1.4563941866215435 -3.3123036088348696 -0.7533463388828896
Ni 8.603508277943675 4.712957433060642 9.066972895569114 0.026487504767567286 -1.3185061811920968 -0.2089414697328466
Ni 5.7320924530101065 5.981529674854303 0.8080590580810763 2.1589126442192885 -0.2992638095681878 -0.4242366495978629
Ni 1.2338082437203906 0.8740543751240458 4.283668187426446 0.5005207661725832 -2.5306267984384028 0.9851546859115807
Ni 0.36046151155075556 7.144592075361892 11.17959987975459 -1.074215128315363 -1.4502271385788832 0.650140458216661
Ni 7.716352820743183 6.250553937014199 3.908855455333501 0.0676035580815868 -0.018875496748264265 0.7730060220953461
Ni 8.690067680789593 6.06771080702055 13.498908427644361 -2.269304501110995 0.542509194789227 0.0610726989416045
Ni 1.7027993037146971 4.483845340663211 8.513633009676436 0.11473470724143464 -1.1173101597326243 -0.375603719081508
Ni 7.632902618361886 2.1902425919856863 8.44171452735665 -0.17273030991961222 -0.21217231796531846 1.1266507204072598
Ni 0.9723862996104881 0.26133521863700215 6.559697956504673 1.343369777202996 0.26804521787353836 -0.18932960903919005
Ni 0.30001201171634295 7.887155871786297 4.275957923841035 0.5209834049023092 -0.5940713831372348 -0.973984271117058
Ni 4.528167592983803 6.594817159972268 2.7395460529428406 1.3679968317230569 -0.35482046378756954 0.9194133778497132
Ni 6.005093170363627 -0.06817267997961818 2.3920776779331114 -0.2858246533441464 0.7027079479007317 1.3080093954258312
Ni 2.4760214774208102 3.3515981613776824 0.4223779635331645 -0.11957455183223921 0.08669939837077327 1.8820961079110234
P 1.2339374093183275 2.312802292199413 2.9693464134549923 -0.4779963598178219 2.2176142718255547 -1.9229013148528433
Ni 7.238393977806409 3.6492141512522984 13.322162836484742 0.4757900961951226 1.080627716709926 -0.025513570890072192
P 4.308549172034725 1.6606544143307538 1.4965356829808685 -0.10062809263672347 1.3690031615003844 0.26181106403836846
Ni 5.206554539461906 2.3204599669342367 3.891638603739942 -0.6723211080787582 -0.7982982210032316 -0.3250758855352853
P 3.9252041295866418 1.1895874786553204 6.058710732678597 1.1714851031131308 0.39943733116599595 -2.0542466340677654
P 6.416660895960897 8.277374369267445 4.528551399331958 2.050299219384243 0.7489070721646134 -1.4104940816553193
P 2.237535653058824 7.115428328570595 9.439166333858186 1.249726600524538 -0.24614276137349222 -1.5862037859182294
Ni 6.161226699926778 1.0598959922126558 5.896292374164409 -1.8344481670157569 -1.4273281224935224 -1.4968834049848414
Ni -0.040939036266062136 8.938093307170623 12.404502155497239 0.3707255650536002 -0.9044295028463715 1.699436197582525
Ni 1.399472349188448 2.2852900198388792 12.297015157951321 -1.6479778818022326 -0.7850992058144544 -1.290761664088977
Ni 4.24833955116791 8.252233208240465 7.114955951526712 -0.7708514376461886 -0.021851548657452688 0.055277946636698355
Ni 8.29548523132101 2.7793207536046443 10.70021744740627 -1.0372583485853555 1.3228364331363347 -0.6666885923833293
Ni 1.6136473627959045 5.3778834790109045 12.884059884014189 0.811821452300647 -0.9630812510513093 -0.4319702707966947
Ni 3.3440512000125193 0.6071142921480013 2.9138070515650045 -0.7010994657630312 -0.4917013681087403 1.085796405395059
Ni 8.12037358497529 1.5467395830646529 12.49381278557921 -1.6901635140313473 1.0190410542463806 1.819134419476822
Ni 2.323845950823008 5.278222994088542 2.8946453351110835 0.2901219951679197 -0.3886173577323565 -0.7061619678876032
Ni 0.5632376611402913 4.655626359804989 1.3754244826868613 -0.20418518599478383 -1.8192755730403765 -1.3888939868870402
Ni 5.434679437646533 6.549784496863025 5.066551947858231 0.36932919892670585 -2.605404762781242 1.368377354990927
Ni 6.607539971369041 7.5467122600815 7.102451799035018 0.21867052409515245 -0.2725348782137758 -0.5408526330224105
Ni 8.048456025266919 9.041222811009003 5.638391115209697 0.323243717422553 0.46122659655865084 0.06984890247233777
Ni 1.284468836454023 2.4042976661093447 5.951655517274354 -0.40911676323728896 1.9410173077272637 1.7108899479454212
Ni 4.114127268797458 4.612152909985125 9.570728876248106 0.5955402543732775 -0.31202933676397226 -0.18008520762278665
Ni 3.969747808646554 9.014550115035059 9.366113039499384 -0.8240547611420452 0.35503489379122083 0.7813844759670285
Ni 1.3075156695716 8.934476670428394 1.7882893999319822 -1.6831562294755786 1.3559296161458776 2.7269480083040776
Ni 3.2861850121368423 3.748634757207064 11.809004463660823 0.7064270486235318 0.18229327101769896 -0.2853834520416698
Ni 5.008497547254132 2.0905082981502163 9.529908856854426 -0.7778391818179313 -0.06982499121293781 0.11006506967990722
Ni 5.742259630790557 2.6419808185412945 7.3402327482768355 -1.104419162702569 0.9311622908555253 0.6669436458169289
Ni 0.13384508302774584 2.2088147597461676 1.1054379368223366 0.5983129320224083 0.1601830693822209 -0.10104666823138081
Ni 1.2440492304139494 7.4252227891078215 0.28782246971676634 0.9518990091822443 -0.5644653873453439 -1.0388827715626558
Ni 6.904187219259131 0.7181293557404215 10.394109742078724 0.393926942870728 1.08025156431743 0.9504908159808083
Ni 1.902959849946013 5.523047158863568 10.606044655173392 0.210607801691676 -1.0839506104355718 0.813785003784921
Ni 3.8417077966346524 3.688379005769557 2.474232533889386 -0.31230187369906864 -0.5174082859565412 -0.3971017410542838
P 1.1224213677281953 3.5478283829860646 10.499151819377982 -0.07089971233435531 -0.8378114486065055 -0.8578436846670323
Ni 5.634996827818202 2.7014708025053196 11.840223788682142 0.4731166631280175 1.5118400262946738 -2.22200314492187
P 7.390080520354879 7.55394553356596 12.394023135058912 -0.42346968952485137 -0.4338865139828012 0.04352800518962181
Ni 2.50433642171138 0.7541859324044733 0.16112854775764893 0.502751969495947 0.6382393359037009 0.2892642751533147
P 6.519301415749944 3.645855845705942 9.588108107450498 -0.539549855050587 1.217889144298967 0.3625581987514595
P 8.424982969366768 4.3218532286222135 5.32392547308423 -1.9007474044636232 0.31439860832709726 3.554282725748975
P 5.208722676284416 4.738864361561105 3.6211529251005325 1.1314604830910773 0.3197385324827719 0.04606234157570132
Ni 5.521709372313508 1.2830111104201651 13.457196243013506 1.6317315951466993 -0.2591684842091988 0.14677450928579885
Ni 7.537366206459361 2.742443975393694 4.020960123005659 0.34193640873604986 0.22894002434196056 -0.6604420972529851
Ni 1.2290014382543146 5.283841697598791 6.156555518338536 -0.9902608967898945 -1.455967640607086 0.2688887968207563
Ni 2.920286551524362 1.4093627435447502 7.762454790481061 -0.5343197169998992 -0.02678189607953452 1.0776647774268602
Ni 1.5698417728670597 -0.26148283646321563 8.899950706099894 -0.45842563677474596 1.2555342083452508 -3.1603796941376476
Ni 2.5736429911186 7.448223491654706 3.531476940898682 -1.1834073084720134 1.553289294578396 0.698657689090758
Ni 7.7981054181230265 5.6150038384804155 7.0647502062201 0.45837652870436535 -1.3252111040160983 -1.0261486118254393
Ni 2.715291521484555 3.110058493235905 4.313888324286583 0.15342183939898738 -0.01085108378189099 0.9811810459758135
Ni 5.684356538458328 8.279930002883766 0.33431747191693767 0.5345210343774278 -1.4788687135749758 -1.3645646661130564
Ni 3.19791877817533 5.5888847093547716 5.006299886866378 1.2242245995986916 -0.3854163342965556 0.3898170344674125
Ni 0.24484353961471694 4.38372355003393 3.689493520357469 1.6777810812065943 -0.5346426475569566 -1.7370511797218213
Ni 3.1615494362419883 6.030538793157173 7.532979189186579 -0.7203272036443917 1.0323236302878995 0.3428643198669579
Ni 6.900173859608953 2.4111157644575787 1.7874655079394282 -0.6759206525045585 -1.3330277718470398 -0.052204192807381054
Ni 3.9539065706710215 0.8471012052802953 11.701301575044068 -0.2538581277398789 1.218067321748044 -0.3205610283840673
Ni 7.859929608964051 7.468539394987334 1.6741180826928355 -0.09485596603963664 0.5930941068256301 0.38402125372124185
Ni 3.4635293781040395 7.939311095010341 1.2560653214677253 -0.10150792413851549 3.3592812631359887 1.413251075575166
Ni 9.018471213543853 7.139453129786837 8.936733377946632 0.12496975470588155 -1.4375487717802662 -0.11137041875489206
Ni 6.012344896076363 0.18868233763180542 8.281672815844498 -1.1738546317865717 2.244323405685625 -1.3499633712601138
Ni 3.5771028431470215 3.5874176387536876 7.078510032846022 -0.4187576287611627 0.36187917040656387 -0.7643072087697675
Ni 8.835240586756393 4.731889419272519 11.762498390123687 0.6969499623710319 -0.7375623365757557 -0.509785993524593
Ni 4.385587225089876 8.531415422066674 4.820507168182702 -1.7201731730195602 1.8934650118695973 -0.9546883990019236
Ni 0.2110981045423196 7.375918435152525 6.595009063146346 -1.4336877461629631 -1.0690268992462042 0.7748590161436848
Ni 5.144213686229133 6.923562058949647 9.286065428012305 -0.06581792693607375 -0.38839444308827303 0.01173528615905721
Ni 5.4309244091922295 8.416107447565684 11.344812828241283 0.7545660702226038 -1.9095336352966856 0.4024131259648682
Ni 5.807073082612407 4.007445711015817 5.486411182231628 1.012771933408217 0.5564417457099191 0.13808649459349764
P 7.018212763894892 8.067323428679828 9.402936306248332 0.8596503988584678 -2.2497222081036936 0.6889738861440908
Ni 6.069685195446155 5.531406018272905 11.942039493867222 -2.274838029334715 -1.337347482268316 2.6787436806847094
P 3.3354432355214465 8.185159358454722 12.697902733822048 0.7518988078030857 -0.3067758016745168 -0.8254128178318365
Ni 8.419945511047235 0.5070930661628287 3.074766761433922 -0.46776079813274285 0.4456480253941035 1.0362162804740864
P 0.529830824456771 6.368980338093948 2.5268822768312447 -1.1372716904562155 2.2783848661457085 0.9002193214197658
P 8.156097098918949 0.3792172789825898 1.032783210594312 -0.7980508808791158 -0.0354151462745003 -1.3502631618887198
P 2.1265085955180245 7.429706680579055 5.803037580288295 1.473429030616643 0.08022613194160377 -0.32542529845490403
Ni 7.427473960957577 6.030686410983385 10.529643203993787 0.9064344490915421 2.376978444850906 -2.7541268827117147
