# total energy = -381174.64048296 ev
CRYSTAL
PRIMVEC
9.17582202696428 0.00000000000000 0.00000000000000

0.00000000000000 9.17582202696428 0.00000000000000

0.00000000000000 0.00000000000000 13.42974304276312

PRIMCOORD
 96 1
Ni 3.018001326451837 7.694596745371644 4.6797151984660434 -0.2013024651303501 -0.7083564044357608 0.21930044436966747
Ni 7.680502682480411 5.725795631963603 1.6394900306583666 -1.3927357292306337 -2.6473440833275053 -1.0500480441508562
Ni 7.513842223956006 2.7624546783262716 7.280371686448943 0.790525004815716 -0.46999328700768733 0.3726878309862936
Ni 0.6081395445301419 2.177725408961758 11.234302288860697 -0.05511905246133088 1.4081453789174845 1.1701807824794104
Ni 3.1917271680662482 6.4368300938397285 11.741504118919009 -0.33167436468840944 -0.2781339695681081 -0.18486643106151388
Ni 5.433096079771236 7.124016593831534 11.969983926734313 0.3651262165889518 0.2068866440863469 -0.5320805432567353
Ni 5.9382709707067125 0.7326949077492036 3.7173797413938914 -0.48465474567460404 1.494704909276284 -0.6582841703697179
Ni 2.4268673331953443 7.275913154444482 9.489671099583056 -1.2758922031763122 -1.7367022810228347 2.49988463215954
Ni 6.185678664545478 7.682796638029114 1.8120211802230128 -0.6697163234660595 -0.026715304507657217 0.5298285139977649
Ni 2.41471854460941 3.930004646038777 11.320024654969087 -0.29732596911552667 0.4746755229747051 -0.9360494437444976
Ni 8.19492680218826 6.250799474662072 5.993735145545484 0.7009639686264315 0.11971544828547769 -0.9403658117316643
Ni 3.565164779750783 1.3000947193165917 4.621214744063007 -0.20578055550636173 -0.7256373030033955 -1.1760195006483745
Ni 9.209680978712724 2.5018062730603887 9.142056086719165 -1.0425995582926106 1.7593251606286733 0.09749674609659338
Ni 6.237980851055918 0.9108893747724889 7.825793568695312 0.39777999806823106 -0.5754787077367121 0.27995019684124045
Ni 5.3646903253088984 7.495068491745417 7.908238331115715 1.254767248272239 -0.6318676280494021 -0.39481037391694584
Ni 3.539775279737733 6.284291225673143 6.514821829748988 -0.2611919423971308 0.6495663308807458 1.478197912760196
Ni 2.5748182902645227 3.0742032373950727 9.02492212849127 -0.4434918982830492 -0.3050035402654424 -0.17654119902527016
Ni 0.9709946804773976 1.4218487040195769 7.461122537535703 2.4095090704887596 0.05527511842322093 -2.2231981936712355
Ni 4.504264302279007 4.785429845972494 5.11231392375164 1.3604563003716377 -1.0024258142872027 1.1744948364737322
Ni 0.9691319885718505 7.44486756851759 11.679848099263175 0.05621022864298061 -1.540318593350341 -0.10540083143501848
Ni 5.605885987521774 3.269822590766309 8.619948133505378 -0.10921583430573449 0.21884767310296502 -0.5965843793670758
Ni 5.349174009977468 2.2788980244817756 13.085807949570212 0.0665432351378725 -0.7442361490515053 -0.06966198327251229
Ni 8.55028804414901 4.6534081162335115 7.874570404318503 0.22121025979787065 0.02935068524797526 0.9055224788002341
Ni 0.5989591344242305 4.509723916484922 1.6835119552202058 1.682577217043657 -0.8506515377939673 -0.9675372299401336
P 7.50916255463665 8.350649680656446 6.894145731371496 -0.6071917225692769 1.029610859342427 -1.6943916931800818
Ni 8.755092395537256 3.3620304280019933 3.3968113820314354 -1.0998587970253961 -1.0296640811778655 0.8983537289659368
P 2.3692248181675235 0.13172993859318674 5.881717625773416 0.4316437406952115 0.516640297442265 2.599701284638561
Ni 8.540020299113014 0.29912905080427343 8.461987272003878 -0.7038268919965234 -1.4142054690686354 1.0859545282394782
P 8.262717776563544 7.3128825420673875 2.742568836465671 1.286676181165694 2.4906469156113555 0.19030174314447226
P 3.9166630005675174 4.351973181311682 7.560864642375549 0.649328760948643 -0.709166559041882 -0.4925914840231775
P 1.3679315728028503 6.167354547622436 5.9005858689526125 -1.0685481598375726 -0.13176800857463755 -0.2048079071804473
Ni 3.6147142196027775 8.47684476330172 2.622479345908825 0.44297304966510165 0.8194254899001502 -2.5013496467408403
Ni 2.1901769996801206 7.47567080362558 0.274947088992061 0.025461891716530342 1.3223615503824453 0.02889894242253733
Ni 4.561649894285374 3.1682554148919144 10.671381196106598 -0.02624273574661287 -1.0286209846253318 1.036689620566079
Ni 4.384428064414739 4.505291994364827 12.800398588111625 0.39562464228812505 0.6217287398431872 0.4081937372023874
Ni 6.884995601478828 0.7005171344764305 1.0169618793445372 -0.23785301056087424 0.32498538270400806 -0.034040120303844595
Ni 7.639009614515461 7.884490385693317 13.159496224870104 -2.3393891737432226 -0.02516364374982118 -0.9926877610638323
Ni 1.0978871256094787 1.4719028140922863 4.867153388768384 -1.8092464709391487 0.9686610591319318 1.3409871359034322
Ni 6.182301961977787 5.289008143846074 7.012971711212116 -0.482271333044092 -2.0374640152927874 1.4853067558908355
Ni 4.925150090532925 0.07336253361197577 6.090724503726886 -0.016767706376642093 -0.7338409218601104 -0.9726814931452343
Ni 2.045061371669139 6.619346373116771 2.484999837128368 -0.8324152172915987 -0.17070119530472538 -0.26512058802757565
Ni 7.487379152746162 8.279647168512977 4.5000388361582955 -0.0832003840785793 -0.7288828065238867 0.279157525736616
Ni 7.792255020991048 6.407834495704117 11.4005764452707 0.7212042069327063 -0.9365621217148581 -0.7341617955346388
Ni 1.3339626790376495 0.2830264004345946 12.537108463635855 1.1631421304650742 0.9499038331290866 0.9151003522966562
Ni 5.603904009927695 7.002859037571212 5.806470378282626 0.6703752972062971 0.6055410743397314 -3.1590319218605014
Ni 7.535809142290391 1.1447021704474187 5.592078210283019 0.6138213120706525 0.25930938066243725 0.3229382703669922
Ni 0.1082435041033412 6.313039076609495 0.2500108745954348 1.8532789265690148 0.5492506272781187 -0.9513310524939165
Ni 9.116766603168038 -0.5644415264917798 1.0601744963887936 1.989261230335316 0.9541482102277373 2.1911645622744587
Ni 0.6774170021009865 5.144470592633366 10.209975894622602 -0.64716723452095 0.3110664586300707 -0.6341052591306693
Ni 4.521322155739166 3.061448844544281 3.581672083879253 -2.4750788859697694 0.07991194313529464 0.9920025620713496
Ni 1.1319202501300432 7.554692984367317 7.665335048392382 -0.6011925675630485 0.012332810533740052 1.528633700813245
Ni 1.6458396996171778 0.6243963487126936 9.862507694913829 -0.614212119751168 -1.8869719479460856 -2.2679076207634683
Ni 2.2081707870041507 5.157472732683416 4.306838229517612 1.2935371699515854 -1.4434093443261011 -0.2093135083602847
Ni 3.421352118491465 4.104051641430006 1.6811088073873839 -1.89342695954281 0.5362686131961538 -0.17087114522368638
Ni 6.579927040967851 8.14361560447486 9.673578433504833 0.7746440719194014 1.7571746899445735 2.4546627842072626
Ni 5.541040452071026 4.608529169878677 2.183851187859016 2.183887568997071 0.4280575660058499 -2.452899521659253
P 7.681236748255995 3.9649186494900435 9.980770279271688 0.24112936731930085 0.06137866021779752 -0.10095745095168418
Ni 6.630788623393704 4.00156688333613 12.057626792428076 -0.23524925438944 -0.5942338768570282 -2.477022639959702
P 6.445638883146749 0.24487424933077803 12.017081586895852 -0.572807331552136 0.12406652616532184 0.5990670365796135
Ni 4.503319192592942 0.8451950757687191 9.462261083522709 0.6161201354071583 -0.39107378969264905 3.379954218104308
P 1.957872709174018 0.785058572268348 1.4878136897780936 0.9753394995933717 -0.40876246522166376 -0.4313624620093668
P 6.446207784122828 5.619145050593281 -0.21246157500981755 -0.31457421467301305 1.8868223097420989 1.43962390914174
P 0.1741754569019567 7.64405631672261 9.781916448576778 -0.9322215853579752 -0.2544116862505038 -1.5079584318520804
Ni 3.567330273788759 8.909870164319376 11.457021515502097 -0.4973207711780468 -0.7545758404146166 -0.707827014294852
Ni 8.563950843397087 0.02311206094429715 11.235430914990657 -0.8905969678386534 -0.2319638987699489 -0.9331741790792316
Ni 4.043757313787884 6.481883380816265 1.0009427289568311 1.26425024806201 -0.3884039561699698 -1.0147038603236074
Ni 7.329674296683897 4.08168098691905 5.371669455670274 0.10432611031360098 -0.39019781484559896 -1.0276732760000817
Ni 1.396936346760657 9.028385083787592 3.3037171603717317 -0.2915589847247624 -0.9061698825762459 -0.5116083914453124
Ni 3.419746349607373 8.53004618038725 8.036022666165131 -1.4900735811518595 0.99818555095361 -2.4108115913502677
Ni 5.431701354797624 2.4470449662017395 6.039758316928013 -0.01683326950725488 0.8225506657926931 -0.5524488225004421
Ni 4.658583279951387 8.909126922721596 -0.007708608225863125 0.7878847389793914 0.17906062301301423 1.1839143300154191
Ni 7.761268269439162 6.759754804341813 8.206647079877696 1.224713366309652 0.5346783858908986 1.6279834409581768
Ni 6.636211534310839 1.747425227135962 10.285612196974453 0.35051463732336413 -0.15703166823743278 -0.6400653333688461
Ni -0.27269534222545366 4.289788634297428 12.66649030932939 1.0568285574077994 -0.9972237012609729 -0.252178683154927
Ni 1.9204628820857619 2.8367788381042636 3.3148767953250644 0.9374303832524242 0.42560164826618957 -1.1260529389222609
Ni 3.9099004196099396 5.19357959302001 9.556149013802262 -0.8736613684255792 0.5525915187258935 0.17911975838572375
Ni 1.8431841075610396 5.158215974281196 7.714689043231628 -0.31363036270250505 -0.581540854770392 1.7049815528807861
Ni 8.417119336635677 0.9619014406823372 3.1406664702987674 -0.22225592745356562 0.042074560572546896 -0.3767002945797964
Ni 0.5582606926613533 8.195009384588014 5.65895802551436 -1.247079392709678 0.9284492627997365 -1.9326933612426005
Ni 2.640434594779637 2.768639182485576 13.342879619344558 1.2259801488372177 -0.8421913228417559 -0.35465514185429886
Ni 0.6817901989590349 3.8606629577125684 6.061393988081164 -0.9302688325069784 -0.2866088398083387 -1.2792680616270806
Ni 4.235100734016338 5.953741406927168 3.2425979263142963 -0.5198387497749046 1.8019563650356385 0.7481359983265438
Ni 4.079331976437178 1.5376659317625172 1.538954217198669 -0.6035980916807476 0.09092680618855954 0.836558550036011
Ni 7.592185393855327 2.991565782708579 1.247158483492491 0.06730916676961957 0.7975615999475232 -0.7204141069312431
Ni 3.872114383811696 1.5577242790803802 7.625166051570146 -1.4110466117246796 1.6706447272721294 -2.4467167898873092
Ni 2.9363089814514094 3.0957297162641053 6.038818712735263 -0.30276410941196247 0.48693120041360655 -0.08502946686751807
Ni 6.206957396215252 5.6559125701279 9.659705507928491 0.3763578236387131 -0.7254791801589764 0.2725582752525435
Ni 0.6254047715719037 2.041528680124136 0.47664542456736186 -2.6298646955958187 0.7122066314197864 0.8796178431193303
P 2.121927234195095 5.049987151493367 -0.35592280227907386 -0.7279610660405657 0.6421726095198359 1.8621492324754512
Ni 6.811084353699602 5.991610025125165 3.8495152513280892 -1.0797262879415792 -0.40524802431050205 0.4648253696535027
P 4.493014744268166 7.601480501738672 9.805149630374046 -0.10218386715961757 -0.42055200165742407 2.022985876281271
Ni 0.10182042856697149 5.621539940186128 3.64820321786719 -1.0841614408947973 0.9049900033355318 1.0682501689811796
P 5.207948930577087 7.890573955808478 3.8405036763505622 0.7542140861998237 -0.47228953924103173 0.7326379026909446
P 6.38281202857886 2.907955690869435 3.0000974621853165 3.68893654051184 -1.6713085861083732 0.2236587213383632
P 2.6979761757633143 1.6857453503424233 11.22128913782401 2.1081945490391307 1.6673696560652833 1.0154299398563544
Ni 7.78919029637798 2.077011584551481 12.297320372547663 0.017807974715698362 -0.8851853099047786 1.9110187044826443
