# total energy = -381171.54434666934 ev
CRYSTAL
PRIMVEC
9.23973613152764 0.00000000000000 0.00000000000000
0.00000000000000 9.23973613152764 0.00000000000000
0.00000000000000 0.00000000000000 13.52328779532705
PRIMCOORD
 96 1
Ni 1.1026978394694047 8.750159554789798 0.03460281213655531 0.05728674953661101 -2.722208179626247 1.511306779499023
Ni 5.568197675494031 4.876104473818053 3.886106468920933 0.5844174049872386 0.5640696945688222 -0.6555017225285744
Ni 4.419384312560395 6.040348196235814 11.566738837264086 2.3781686085042657 -3.371292171553936 -1.6633574495820969
Ni 4.501423930440361 3.245374188960167 9.558909046086626 0.383753601882152 1.6306874701529013 0.43067083525898087
Ni 9.055477398378672 9.248051980635037 1.8837124145605448 0.7333956067925755 0.8334971375018678 0.7523520932904204
Ni 3.485514933266995 5.548627914184225 0.2581933409296327 0.6918339813007054 -1.2974581022725462 -0.004221494280515311
Ni 5.384123650558262 7.232468202823399 5.773402977160455 1.308677368027133 0.7467681714447397 -3.342565235932889
Ni 2.5903877679358325 3.4531019386141155 5.432629493782101 -0.9433179523814529 -0.41924896657528443 -0.798491053740328
Ni 6.390598877053011 4.181987769910324 12.699489842756284 1.3341413166261926 1.3183272324120714 -0.886357732946325
Ni 4.826209898240644 6.773558224082065 7.641725687076234 -1.1303770202189112 0.23175049720756216 2.771987050821587
Ni 7.3186195033203925 2.4443906959546013 3.1804613461339573 -1.5643062145141897 0.1921583367372368 0.2378751220480613
Ni 5.610820578667845 0.06560859496342812 12.369751376343132 -0.9128447234932603 0.8060963768914116 0.6248994242616851
Ni 2.5897687056092233 2.5139751494126514 10.700856361036637 0.5070482828784557 -1.398368759146695 -0.32551168752112325
Ni 1.632633670518802 0.6467177810828116 9.42044420707034 -0.055214954609246844 -0.3900265793750573 -0.7419810344687415
Ni 8.100522941035708 0.6004276266040591 8.098353450971713 0.30654517372094947 0.6348084558452809 -0.529400682431727
Ni 2.2658697524858735 6.944983050135339 3.527468879538622 -0.7346161094632381 1.011697983617748 1.2579119645488077
Ni 5.225421941277228 0.20644157837239735 6.939083478560121 0.37480667710150933 -1.7381690953763484 -0.25697301921977683
Ni 6.903302600055766 5.570572287702068 10.300499514682638 -1.5556680792232176 0.6074902276463021 -0.017922645916691713
Ni 0.771249097882295 3.358487039741398 9.679672398456391 -0.8618126966171094 1.0393234586445004 -0.8124583145536975
Ni 1.1810138436535016 4.200347125775568 0.6343032715002548 0.44935298504951643 1.4806692571188242 1.2156188602075515
Ni 2.24454444129464 0.8590875742127028 2.4244550410905608 0.6788517101084244 -0.6018625970468795 -1.6528269823644182
Ni 9.088768167972265 3.453120418086551 4.826556388348821 0.5996509341075414 -0.32861886569153725 0.7096679241583327
Ni 4.317562419437607 0.9559153899096403 9.036910148448523 -1.0768564225929518 -1.5536194242243049 1.8341949133543702
Ni 0.47520979740357544 6.118405487805806 5.1259072102880845 -0.36664830966043305 -1.0888087098588215 -1.0249695039156734
P 8.758170406090837 2.906174232659744 7.791699541525709 0.8588286742881209 -1.188193417006747 -0.5525915187258935
Ni 2.7680863748811544 7.433487903983051 1.494052410826169 0.3832249830721916 1.1501020094516645 -1.3985680196416945
P 6.992253540626825 1.3203490658215267 1.1800141041947099 -0.15416385977133448 -0.5908017112470277 1.9585943973790785
Ni 2.4252459625108247 5.314982704438679 9.062117072824956 0.36623256227925316 -0.9839601513828473 0.10459041971858116
P 6.754247175386364 7.916162484277179 7.934491349012903 -0.1905722231970395 0.8415652592219829 0.2589831076712701
P 0.746133646894422 7.516433016012385 8.56681362106801 1.489594841743228 -0.5957634261276772 -0.9244023464238724
P 7.630257326482405 3.71804213493016 10.90588241182043 1.2426511817349954 -0.5485312326135908 0.3318484283724285
Ni 7.312419640318088 4.822015057997653 5.558801787733907 0.2550565189233543 -1.8362376548160118 0.2619930981421875
Ni 7.751528864344164 1.5331217114505242 12.747335044840533 1.1320068425128504 -0.09080545011934685 0.1272896610883098
Ni 7.4341346855183135 8.237123201283193 0.5242820364575794 -0.17397035297430039 0.6078126439827274 -1.839355374509387
Ni 0.1852400796464855 3.388211271154829 12.18899903657775 -1.209167448155253 0.21284131900788503 -1.0518208197805627
Ni 5.025547967408612 2.338854428872162 7.461392831335149 -0.029928155018000068 1.9341064395400431 -1.308782269036114
Ni 2.281106077509419 4.851868645718137 11.586793684725338 -0.7436177987412161 0.9401048447607938 -0.008958494744868442
Ni 0.8355086913578894 1.850691445264518 0.4955270533734209 0.3120596757812755 -0.14089336791467347 -0.17478025047010545
Ni 6.569794321265656 0.3575463765349603 9.933233859619921 0.09330044862705866 -1.1483348902489128 -0.40169887350666306
Ni 0.19275106121812927 5.675591129556296 10.533275265250067 -0.4201267411945474 -0.43719655219264064 0.05222064786761329
Ni 7.9123095142742565 3.7196313695596626 1.1133124484366876 1.6862333257390054 -0.5483342861114363 -0.4269602191766131
Ni 7.286973406773609 2.4640158956817158 6.125319582417765 1.309479037992822 -1.5115944859427708 0.9681671502146488
Ni 3.470361765869412 5.783409611484592 5.035558297627236 0.6456340857058752 -0.6549743892701946 0.01816690071701387
Ni 7.6922836757140995 8.812999000808679 6.1088617642661935 -1.3787862090290772 -0.2745333967010434 -1.0426664069748044
Ni 0.27255466293333036 6.467344126080041 1.9152901370593145 0.9874907902439253 0.5878719391947423 0.6368170016348774
Ni 5.3071751273344345 2.2399984910753648 0.15812237782016345 0.23182197387544595 -2.124687661598147 -1.0536218775450434
Ni 1.1041115191107647 0.7522512762443854 11.815566781563113 0.22872636566925766 1.0985251658156372 -1.4843749881051853
Ni 4.827595858673349 7.983640277877517 10.416001761249854 -0.36390314281512814 0.20366530893557183 -1.7754521480975227
Ni 8.336912352438013 7.741189599516178 9.758418050374628 -1.1496281551390393 0.29971812349678706 0.22847953976577426
Ni 7.099480679437167 6.683988221184397 4.534818185079597 1.5091959038036074 1.4464926112371153 -1.6047296126365589
Ni 0.7204970747838515 1.592560934541168 6.167525773488144 0.04664032556635839 0.6910487663952485 1.6307394064367595
Ni 8.124768008871841 4.861246977979447 3.256015593162482 0.5371394458368813 -0.4815437108494481 -0.14316853710209534
Ni 2.865888982749095 8.126791511103592 8.269801376365532 0.8026292442784178 1.3498790390764235 0.8031992578492747
Ni 4.308110169286554 3.559063233562584 12.011506475750089 -0.26542089287681386 0.27871915264761676 -0.24269619758578848
Ni 5.029114505588775 1.9906364900229336 2.524595302221665 0.1650972188543866 -0.43658874340531256 1.7075117755018077
Ni 2.5527173633748883 2.663307766168594 8.264649299450353 0.12306019638799454 -0.41940220432369707 -1.7050142058909346
P 3.029552430379216 8.95391421786999 10.83842864153426 -0.37496891371098645 1.900138310124715 0.2741647005077149
Ni 3.5212172740134973 1.4529023216055112 4.71279860397957 1.9642317981705137 -0.34979472843820403 -0.08708223563148874
P 8.325639874252005 8.846363688292017 11.811469882524035 0.3619197938365122 0.45637466778298824 -0.1374131226755569
Ni 3.706529423602483 4.50911139097377 6.973012713926382 0.9879031951909955 0.515504641175925 1.7070703170890147
P 2.346717444393713 3.059600052560279 12.683600268382122 -0.2643142900761964 -1.6492585482868691 2.6583617745942476
P 2.4787809941581416 2.816576510553422 3.2747454624500687 0.49507105591192163 -0.7513398499758223 0.24638907305634342
P 0.106300393267671 7.945221454682912 3.790307035865063 -0.27816507991635964 -0.45507188981116464 -0.02502326151721497
Ni 5.734762400296616 4.055578938711335 1.3736817472456686 -1.113802660799998 1.750148636335728 1.9809426831672916
Ni 8.146647704236157 6.55804137679631 6.83979512110832 -0.12297277888051078 0.17787868688977107 1.384314595046474
Ni 6.103464834341238 4.6951811989326355 7.490805683638032 -1.0410990624876844 -0.3442030932830395 0.5096530674911545
Ni 5.390240355934604 3.1448366191716866 5.268699941748899 -1.5140529747855926 0.039716087642699335 -0.39489033522526185
Ni 6.695824323279705 7.460846762924664 11.654613348565745 0.872679207017968 -1.2680058584497003 1.0158783402476828
Ni 4.994197542420807 7.039560990063184 2.83807830070642 -0.6819555458447287 -0.17945605867921996 0.5278593060865361
Ni 0.2597770317174045 2.331527318051257 2.758696954936384 1.7223897210549048 0.8114262737447574 -0.681657812098652
Ni 1.5793481117493724 4.6180848399293195 3.554338956434301 -1.5221583775015461 1.2336304662936237 -0.47164547789912964
Ni 7.084789498850484 6.435577912962424 1.9368593772867042 -0.0782093586218911 -2.291730177104363 -0.5593542913710239
Ni 2.1643435309220633 7.0290554099832745 10.66119202139984 -0.5518361286171077 0.5263438978832742 -0.5142080338516887
Ni 6.156140570520276 2.1430182197308296 11.256378869621027 -1.055676703191543 0.8429019757555355 -0.27344119207812906
Ni 3.6829958154551385 4.945134543103021 2.544920873954107 -0.22696695977598974 1.013760008353099 0.7742576351142602
Ni 3.3314885305122885 8.194472578900726 5.566766440353857 -0.4841981177531597 0.3770155118273701 -0.10439373032674279
Ni 6.846247228909376 2.8421151414600816 9.04503742042591 0.253668380326576 -0.8441643874077267 -0.4279372383779017
Ni 3.2569885373862415 0.7089390887487067 13.516580043937134 -0.5503217488551103 0.8926926740254175 -0.7315454409577143
Ni 8.602037343478418 0.7564433445665096 4.286017036015601 -0.8246373731183926 0.04196246047471482 0.3453032683257537
Ni 7.141798671315783 8.376301347935511 2.873117228392467 -0.568544185400408 2.1929697338039977 1.4661180987775264
Ni 3.421261807606754 3.0623904528981263 1.363620598477846 -1.4321764517247593 -0.29921470149780727 -2.1077451202065376
Ni 1.6336777607114406 0.2587042983424902 4.536955336066829 -0.9454982478622231 -1.2283748743216394 -0.5019695828039678
Ni 2.133575209315994 6.43846995039867 7.0239957304302765 -0.11073844159784799 -0.31978789766346866 -0.9341841084009848
Ni 5.959971730875094 0.7638175780421265 4.655500227770646 0.2114341542477133 -0.2460247477383892 -0.3387621247731262
Ni 1.0726871762332146 4.443832654593326 7.001465557636211 -0.9890159686391998 -1.2327015267214514 0.2106221998693792
Ni 8.778414668144562 1.4486428032089955 10.076661360958916 -1.1390058995385028 0.22931077741781797 1.6126951473405389
Ni 4.992968657503807 9.125468400230316 1.3274239318436791 0.6608192780867458 -0.4449738821452143 0.18813944538583083
Ni 0.7110965671556189 8.124768008871841 6.192962767296405 0.24034132420036672 1.1889040699205267 0.9371228793143345
P 3.9094617501592697 8.822673004628966 3.3069311595919846 -0.2352096594007562 0.5711651679630227 0.49594497387644265
Ni 8.159842047555518 4.801456644912518 8.513491103353708 1.465783084035611 0.5711921645462162 -0.2781987613677725
P 2.9951436527032396 0.7067677507374676 6.920069025397019 -0.41376351798068095 0.888886927126082 0.6129450801132863
Ni 8.63877453468134 5.785220599783327 13.358574086793316 -0.31164572817230846 -0.03629754887945361 -0.7162491769202761
P 1.5176266738128732 6.506668443424014 13.272553066576998 -0.057205759787030505 -0.16383917807756945 -0.05906029649726603
P 5.801251542121624 6.08422770353528 0.3129692691510321 -0.5253707353367275 0.01240762963573347 -1.3742600390239492
P 4.709419632444633 5.443387318660763 9.226384799203736 -0.20529256012634964 -0.8368233736616233 1.4866463006378654
Ni 3.5245897777330817 7.636549586846889 12.58965340243797 -1.1305235730991048 2.8889938419266503 1.7016884839518112
