# total energy = -340889.5828571175 ev
CRYSTAL
PRIMVEC
9.12212886530198 0.00000000000000 0.00000000000000
0.00000000000000 9.12212886530198 0.00000000000000
0.00000000000000 0.00000000000000 13.35115767328909
PRIMCOORD
 96 1
Ni 6.36627888709114 2.2895539603322543 11.262115326142112 0.2648395664520471 -0.15020256113074132 0.4312434199329993
Ni 4.792547487991579 0.40604692934151454 5.944335736276673 -0.6780451550467291 -0.1916204619558958 -0.38257732218586366
Ni 2.9014298650262695 1.686490031962623 4.600114358635308 0.6363395477778266 -0.0608011904477727 0.21236463648178266
Ni 2.8304232152239823 4.551476992831629 4.797737979221988 1.3786553398781676 -0.11512577203226626 -0.0716918692183475
Ni 4.0817147311578905 2.4756909964596527 2.112927655587675 -0.40831637882318067 1.4805365881957018 1.1091402223273221
Ni 5.057736891434833 4.599897251972243 2.615492179854431 0.2916713419329106 1.1500824690676388 -0.16714381697077021
Ni 5.146568180717294 4.827758904774316 11.316854483833348 0.4995653442378493 0.004752427083320847 -0.5570086739569826
Ni 5.921383548254122 7.929036365364372 12.33052823032033 -1.5287758828180638 -0.6325631114545299 0.5573269765283498
Ni 2.1311025848099354 6.884735071766499 0.05683268622793035 0.20110269041471815 -1.6802827645825253 0.8024438677404889
Ni 2.952185389114133 1.8878792672767413 0.16289202777357173 -0.8715690046729248 -1.8262314355329194 1.2460905464338476
Ni 8.090251745882847 9.02520608275153 7.027942458017929 0.34132268641145086 -0.8167790534162386 -0.9269860479906487
Ni 8.910978787167737 2.2415533191118486 1.1245386254318832 -0.6015723194999704 0.6040140961722437 -0.2629595758205149
Ni 6.9265144212133745 0.8304384594991133 4.780074801419808 -0.7207349806057716 -0.6192406833140109 -0.32753540281937144
Ni 1.061314063623729 7.647937969467984 2.310644321887096 -0.15833264643704345 -0.17513609114762743 0.234269406974674
Ni 7.62057158336741 3.948285354660196 3.8926102665643194 0.2739710964396701 0.5236074727887176 -0.120399875947012
Ni 7.908055469353933 4.065541196972451 12.78796558390724 0.14903708006773042 0.1067930837968548 -0.9589317476593098
Ni 8.351190237351814 7.266359325938993 9.064982212735844 0.515302552467448 0.34658419192070633 -0.24737791933217398
Ni 7.052126133415005 0.5044008087741045 0.08254431818228886 -0.47345707718657165 1.9021566261063239 0.32115983831033074
Ni 1.8040195381358848 7.015418687525437 9.189307704790748 0.03659091175015634 -0.6468355622131441 -0.335742364110196
Ni 0.16350229818361453 5.165533086284991 1.4557038246992695 -0.4714991821292525 -0.7476680575511898 -1.0525489561958388
Ni 6.661160819453516 2.147604515628581 6.907822267293812 -0.9648565977841771 -0.5649868070664528 -0.8178895128715978
Ni 3.6561035723930764 4.6055438496376615 0.44161228471781944 -0.3350111423711263 -0.18611238765347302 -0.04902939462382524
Ni 6.034643898195694 5.842851142274177 4.86137030018304 -0.010495757325001277 -0.744279600694931 0.059998492040819244
Ni 5.5030244818059595 3.2424059137107113 8.771149325173988 1.1158885967947492 -0.780213852697695 1.4689884783467861
P 0.4771530103466338 5.631838061181357 12.573892940848378 -0.08544007204237543 0.6994411042240019 -0.6667610974924775
P 4.1993719471329545 6.470736382837028 12.390809081196933 -0.44340602343746216 -0.6903787369114175 1.3855564378733751
P 2.482112975064587 8.746680127148597 0.9723459424107656 0.6927912030076521 1.220048613844131 1.577957229638721
P 6.666360432812626 7.8886891901234275 5.672373152273527 -1.3764621888815907 0.35523492561716885 0.549771532778595
P 4.927874267258913 1.1214562581440888 12.617711998272615 0.07258507045657822 0.3585377647381567 -0.5060987744809929
P 3.9716471262613853 6.365959612586633 8.251122309936457 -0.3379576265939599 0.5449072627077582 0.0816078427804788
P 4.953215540788045 1.0692047049493942 3.5536511205354904 0.08665748938924431 0.6887226893652332 1.4192402032790654
P 0.21456341358293396 5.675350615081269 3.6765216330627135 1.5039277134261326 -2.2234905281006743 -1.5574441972870339
Ni 0.8987230660972636 0.22450014837605212 4.442304268760613 -0.4799817656789669 -0.6944189684190621 -0.3268718010934435
Ni 1.863897190923939 6.8489945715191505 4.654560695995269 0.2531132791540544 -0.12421230771456672 -0.7510698841438872
Ni 6.204981407414362 6.052185751686162 8.996170347098822 -0.546830190762084 -0.5730829538110259 0.8751320394338348
Ni 8.532647621456015 2.510838558341489 10.038001368244684 1.1923694027613079 0.10202857252867589 0.35274815463957315
Ni 2.500439331623271 4.914592447871435 7.117448784824203 -0.04153282913646396 1.579488578681583 0.40979836268534586
Ni 0.48560375037449083 0.22018629371373175 8.962952115437076 0.5514185814637148 -0.08253883923518042 1.1687558771074258
Ni 1.7236535842872016 1.3006969649741427 11.473156685833901 -0.7465635116331013 0.37626963480028097 -1.200581249148139
Ni 4.174395558751832 6.991609931617938 1.596678113844892 0.3641581962487277 -0.45094964011267497 -0.4203560835965341
Ni 5.897118685911614 8.213400483335429 7.706768401881257 -0.22304602745502877 -0.9004738606327332 0.7677458021376713
Ni 5.398594352446173 3.1822454749329516 4.503131535146357 -1.1987570514552066 -1.0801024403340753 0.37879471521497987
Ni 0.8444281560737263 7.44099335777545 6.850505196031902 -0.5631219859435721 -0.42361469974314786 0.6376716363256889
Ni 5.066393791571314 4.984331121784396 7.1691046630147754 0.8902185014533119 -1.2715418966274163 -1.244827620561024
Ni 1.1162292783988792 7.56560163582006 11.408964266170658 -0.7377999065078583 0.25787470509843974 -0.3805302098488479
Ni 5.1186453447660085 0.2613727047950944 10.498949829168298 -0.6966069772093164 0.6122709368643972 -0.5306348119491442
Ni 8.31324218195902 7.113253517834986 4.582638184471482 0.49017978925789124 2.872804890871614 1.096313759986615
Ni 7.745143372897219 6.199371298263745 6.743176054171194 -1.0130987206200166 0.3264735372137603 0.8998233715329277
Ni 2.201698738820714 5.111411496706758 2.6616063648596366 1.408846004528935 1.5302907768006937 -0.7097340015095777
Ni 2.5548893178347116 5.437472864966387 11.286721356098008 -0.7312675047059793 -0.7984267761612959 0.49334121770500844
Ni 0.8781207384278821 3.3589775963704533 3.6337707769092686 0.03122579078350106 -0.2050501050982404 0.2128138082040593
Ni 1.7292728155665191 1.4056014450263399 2.3783487610999137 0.006543200435156473 -1.1691317723896058 -0.41428545192242205
Ni 0.9836117713555016 3.338242997834919 8.023097371030651 -0.3964024009944141 -0.3006820300719531 0.9237138049972802
Ni 4.0245554727224935 2.7422669634653363 6.8789169780815165 -0.15954440735695746 -0.2216506897693989 -0.24700485226347138
Ni 3.984226541738949 6.828953254764831 6.059903072566523 -0.14776386978226164 0.8234567225467302 -0.37065023173097456
Ni 0.6097057502762401 0.1369030831067274 13.348206591306695 -0.04292122484355834 -0.3028594973392461 0.24685495694916837
P 0.43208878235482 5.550733214907959 8.190467451783148 0.0008412649543727447 0.47954673502407724 -1.2949818728179117
P 8.509440926042728 1.827773561271182 7.8120560113388615 1.3202910410066615 0.37675454485649956 0.8058837466599734
P 1.7946876004755892 3.331811897101284 10.302607867663994 1.1107934416600287 0.230872465477983 0.22589223865457225
P 4.021946543914239 6.364490949865903 3.8969359799939505 -1.0845643327601708 -1.6733654686374018 -1.2763586012897694
P 7.0712369930419054 4.192229320360705 10.48139246805904 -0.22323808886117683 0.7011611722389021 -1.1091067979862255
P 6.547015623028026 7.766534764699168 10.235357710460448 -0.7353509307467336 0.8205061245588385 -1.5097283792683096
P 2.3722369348707857 8.561920532454927 5.877018987533613 1.5376770419624355 0.5601827008095901 -0.8887779123520435
P 7.126398505291961 4.179275897606434 1.525063018058302 0.032976454926020624 0.6895248735515543 1.0860622574619359
Ni 5.91646672088472 2.9397519276957724 0.27930042432957985 -1.6313215041924742 -0.08162455495102716 -0.6875502663236869
Ni 1.4240372671294261 1.082413547307271 6.871119382468594 0.6797035165857584 -0.43976868379519096 0.680990353717982
Ni 6.97643070946082 0.9642911027684968 9.082699211097355 -0.17129743412782755 -1.0423547892716563 0.7643041234459741
Ni 3.4551430771278673 2.0193382639751944 9.424020988459533 -0.7490736796494647 -0.7583391641117907 -0.06290898081939489
Ni 6.700915056328949 2.1330912088665768 2.388001797690456 -0.7178268058200412 -0.27695794698213594 0.5441523868196049
Ni 4.076378285868278 7.158316833613929 10.238254898535628 0.4491390692664974 0.11153162692310468 -0.1780398950579837
Ni 8.147912721396755 7.314560653990802 0.11857490212230352 0.47364913859271973 -0.5221889951746361 0.7076835467384521
Ni 7.67115378700997 4.278606757022814 8.185060766102543 0.4862498580758658 -0.8992682703604061 0.1635481291997119
Ni 3.325234842308446 8.574591169219492 12.112958163117813 0.3399558879709113 0.7202354152615339 0.4610695021554963
Ni 0.21263225893710352 4.9404445606077765 10.335197584658298 0.2897239883985526 -0.4074386042039177 0.06011187769023195
Ni 8.983554443106458 2.260335782105542 5.595270183860902 -0.8376893212063444 0.8024412966373278 -0.03826547123910184
Ni 3.8105594555447113 2.988053599163284 11.813330899405598 0.1473020996544947 0.3657993313965765 -1.8170878213604382
Ni 1.148311805037451 3.3869734093513393 12.587191180067517 0.16036176105193026 0.7367426688879376 -0.17205616667072304
Ni 3.3369385334307915 8.397630994564487 7.871428298196926 -0.07082772144583932 1.4346521669587615 0.49210117465032027
Ni 5.530600676866637 7.798662901981241 3.647349065479503 1.964795641093784 1.6398531958125695 -0.288778850876464
Ni 3.373436170360256 8.649876097382169 3.2704591961024088 -1.8498513889447044 0.1222256163018411 0.4016741909163147
Ni 3.6162216257158413 4.473738212048602 9.172525724621007 -0.7886391006469128 0.14768313714299727 1.4250555244092618
Ni 7.597757139488233 6.26362757282789 11.296213843223427 -0.16244589727446862 -1.4202743009705348 0.9332307433487799
Ni 8.202362707608197 9.098429409827965 2.1400039579955816 0.5373009111154101 -0.8267269086575697 0.404410101790239
Ni 4.762973546745559 0.3632185350941175 1.455396408962073 0.13805204181113645 -0.9522743902437923 -1.3556951315375685
Ni 6.065239517856135 5.655938725207262 0.22454667123242308 -0.12641600023410485 0.6790717965390305 0.33917864348525456
Ni 8.07789126149409 8.670975581065711 11.39140781727427 0.9472309142826139 1.5834159387604472 -0.5653189935948909
Ni 0.38049402242653935 4.927883389387613 5.760383449972969 0.24248845245035658 -0.6423800975449517 -0.050347599214616526
Ni 7.479981335840066 6.315632828547679 2.556132663976548 -1.2941166966041389 -0.23750128364841033 -1.0346149974252374
P 8.448295297365346 1.5530150448214275 3.5009270410741262 2.0171854675494094 1.666708882552833 0.03966697957231878
P 1.7638639275976438 3.4077992291738752 1.4311242489166045 0.9889450061919485 -0.542669117405859 -0.2939290276188357
P 4.998807940031599 1.0632570770368697 8.185193949181567 -0.2573391443099439 0.7487350653631235 -0.6103534081267102
P 8.546458524308104 1.6387083218310223 12.166202203915088 0.3976290743126636 0.4830755741129422 0.27691938043471664
P 6.4162590302394875 8.00724949683981 1.459748576564934 0.02311935962628276 -1.5807587036432582 -0.1021285884416499
P 2.0053814070639024 3.0359082863244864 6.064443156020609 -0.5081908811233312 -0.01387495820987933 -0.515222591159132
P 6.712199129531085 4.0354929050340225 6.011812122271986 1.0209192451056996 1.300703091572405 -0.4550130115487713
P 2.5379039141949558 9.111373710453535 9.94476956407725 -0.15529128850755836 -1.09935048993041 0.17833531481121545
