# total energy = -340887.21061547566 ev
CRYSTAL
PRIMVEC
9.12477879137397 0.00000000000000 0.00000000000000
0.00000000000000 9.12477879137397 0.00000000000000
0.00000000000000 0.00000000000000 13.35503610795584
PRIMCOORD
 96 1
Ni 6.686254678329457 2.121273831319429 11.188555594671541 -0.1891735430773 0.47607034643970264 0.7786603921676462
Ni 5.248746147860538 0.6186235048570249 5.919887317214061 -0.5997990296496315 -0.6572415880378165 0.14100135424744747
Ni 3.2353728260834758 1.6053405872987507 4.704391955250294 -0.2857824872523014 2.407578686235267 1.1743595964474485
Ni 3.8848107090144604 4.838350095667937 4.651559485884517 0.40394858877278816 0.32665968508263743 -0.09139963205992
Ni 3.9858858839997287 2.8095376481280265 2.673530994865372 -0.6480961740931225 -0.36941275977944765 -1.026366127152884
Ni 5.346892268844699 4.736481064925359 2.310727964040304 0.08221642289875518 0.7605094322902322 0.7003289061455938
Ni 5.5201900681875005 2.666597987918202 0.14649376156007884 -0.06667024763404002 0.6696258206347823 -0.15061265208496644
Ni 5.593808783704441 8.023189896648189 12.650384398128475 0.06565671876786111 0.25657655511230654 -1.1576168297714708
Ni 1.8849329351116615 6.74543799375371 0.6195624445975669 -0.804141567157886 0.08878379170362774 -0.690729692492933
Ni 0.6422493821768639 0.6878595891068869 0.45251146883469745 0.6055490447595313 -1.1692114765876056 -0.038266756790682484
Ni 8.121792256573332 0.3160558764541161 6.74759235403303 -0.5484900949630103 -0.4232897123035614 -0.5282740250264515
Ni 8.789872062632861 2.5831883847277766 1.3225691665450738 0.4481833902214475 0.9722019824056547 0.1044243264543621
Ni 7.200645834729614 1.4292688551947748 4.772542190820618 -0.9082203373473713 -0.6827811270698176 -0.4230223175747876
Ni 1.1293282506140434 7.873397527544806 2.68563136405811 -0.326462995690799 0.9500596419806606 -0.145613141987846
Ni 7.981225038856616 4.116370221120731 3.270901977373549 -0.4824659655534014 -0.35293301695686957 0.7604328134160258
Ni 8.063813411953273 4.084990106759953 12.530883557272688 -0.4668303158986734 0.1519452548534609 -0.7633021645440209
Ni 8.449983176379702 7.153598475135496 9.05953573861211 -0.010360003078085383 -0.6217847898921034 0.6216750037871164
Ni 7.013669991936156 0.6860902944937567 0.4195299557910707 0.6912050894674547 0.29671173257029543 -0.8736243445400568
Ni 2.007478714659568 6.668461359631139 9.262024617876857 0.1504020787360571 0.678626995692128 -0.4954927168303725
Ni 8.828342130136509 5.310703396045964 1.2847186715232815 0.9463631669656799 0.08860150048949257 -0.9548938301445103
Ni 6.539473486236559 2.4675318131887063 6.803482536781271 0.8001350171016542 -0.03745377397108388 0.5473485251593992
Ni 3.8420702450232174 4.277413442508743 0.2938023658687525 -0.8844332622301028 0.9399040416038973 -0.3526460818440701
Ni 6.421581343886675 5.858746736732993 4.8001601588740535 -0.7339702483491231 0.1278020819483541 -0.1752538476724143
Ni 5.56641619768785 3.2819274476213325 9.094552989810401 0.4873114665711607 -0.4265033341448526 0.44659547690903734
P 0.15828753818447713 6.007508005829755 12.287701814383828 -0.027732947138894175 -0.3216051533778655 1.8738153559594697
P 4.338531211042762 6.156114153686583 12.259762654115939 -0.6781204883693547 0.5251431927069536 0.32700729823004326
P 2.54470919244531 8.840113094813857 1.3678627436500548 0.7268878875810448 0.1361684516351784 -0.5919026576206903
P 6.719204254647215 7.747375207266613 6.075366248477849 -0.7901251982741361 1.1949744444843227 -0.42301768958909725
P 5.09961076283217 0.9654563477919401 12.311300317367206 -0.7896626568154206 -0.30239129945357596 0.03136308769231373
P 4.179769184359662 6.422366074865164 8.033240840518033 0.02535339116312408 -0.3295871431420775 -0.29642016947180566
P 5.233142776078935 1.0615767678781385 3.7275104718982695 -1.1266247522653308 1.9880222157218925 -0.682325784699954
P 0.3891426173658707 6.0284767475573116 3.3709049908475084 0.15683549306622668 -1.8566606985570537 -0.2517318254254955
Ni 0.7225446983561424 0.4853269109038066 4.802057200390659 0.21731426717757413 -1.4061072654415332 -0.04563836666440527
Ni 2.216490898302482 6.620446773482137 4.605284082578542 -0.029138826347485297 1.1382332830385364 -0.23750334053093936
Ni 6.3810855754850655 5.662116877948344 8.994830107046205 -0.1252039822038747 0.5048487041239756 0.4785584029688791
Ni -0.13977062452576036 2.4964117381529 10.050065153644688 0.6639154005135662 -0.5484607843869715 0.4768959276647916
Ni 2.62591059916138 5.4361052313644205 6.6385211353681015 -0.33605963824029866 0.48503012673615176 1.9160716935255195
Ni 0.5121464608105233 -0.10899548300072516 8.504793897793578 1.2741911613248056 0.4858680492564148 1.0529004259979866
Ni 1.6092824917488397 1.0641043316111816 11.600411611475286 -1.3296501136240584 3.378313854287408 -2.304751271954379
Ni 4.315144402927997 6.958875695124155 0.9489569227302482 -0.32107190658221485 -0.20561754756593617 1.2485454357322432
Ni 5.410272982525991 8.399824267208082 7.907530587675472 2.6000177874377157 -1.3558044034219232 0.3842464823581705
Ni 5.488116470636429 3.2795823794646823 4.4377449311488215 1.407958459717659 -0.888936806527411 0.718444127689066
Ni 0.8748117074754141 7.69758128924778 6.4901732187518695 0.4654102956226952 -0.46327190912345373 0.6327839692160844
Ni 5.597257950098268 4.707400394827133 6.851307327530823 0.8014149122553423 1.816219302712556 -0.16091172001812934
Ni 0.6985848541315042 7.921777104846592 11.514885972076586 -0.545058443573642 -0.6982612249832878 -0.9877620416274409
Ni 4.9102898518820615 0.3656408370379789 10.064007815681114 -0.39662608696944596 0.9626675605526582 1.155589514928797
Ni 8.446415387861217 7.407823937829779 4.629015807332689 0.3222870099362385 0.5105439547365401 1.1789940098956662
Ni 7.899038156028024 6.194319602604459 6.833064157236696 0.009513595917390066 -0.8231898420385888 0.402082739208643
Ni 2.8812857839869386 5.6025959457077645 2.4617074668681234 -0.6137500925130849 -0.9709200303694376 -0.4077761900489945
Ni 2.1755023918446117 5.700541321557892 11.656476077498983 1.2860660583855203 -0.3782815230239872 -0.39633683786380125
Ni 1.3015767003925858 3.853667838902993 3.651079499549113 0.7450902695216844 -0.17467612079207334 -1.1610556802496907
Ni 1.6529719327373265 1.547973102859608 2.6374324573769523 0.4841153282313662 -0.45135690285342267 -0.5033055280065719
Ni 1.5224967203951438 3.4848169046762614 8.276836848365305 0.24730490000239344 -0.06030522464796065 -0.7870275331854187
Ni 3.978704683068664 3.2923296954757344 7.165337503086976 -1.474305005463693 -1.6870931026361398 0.17418966807395808
Ni 4.4419788285211395 7.275040156446225 5.903606886844041 -0.4586112704229908 -0.2900320065572747 -0.2690597751809818
Ni 8.385708234374084 7.821212917475225 0.3480975372793188 0.2886965755753028 -1.3960424250063632 -0.04359922474718943
P 0.5752890177646228 5.4166694524785655 8.000655342875179 0.5356955143015033 2.5081874955982806 -1.224919054562555
P 9.082585842388431 1.922727768982654 7.91240504452093 -1.2933517934136565 -0.12688522656103954 -0.18348472022263884
P 2.1634029351297555 3.4967703649300033 10.349779463710691 -0.07926865312434091 0.37675557329776405 1.7022284156156813
P 4.550983436300684 6.571236841307763 3.4841288963532597 -0.4132647239673915 0.30948754417872504 0.19427846840403315
P 7.425489509624622 3.9855938910775 10.360156162184397 -1.4984409792799485 1.5474564899467027 -1.140363442007662
P 6.629945668233393 8.11270397686896 9.860891151633574 0.8086358554838139 -0.8886922946167727 0.19296977689493863
P 2.648202433817786 8.917518593540953 5.784920888736846 0.28695773850732514 -1.9561845023860054 -0.6801400899025447
P 6.958839196008875 3.907056919776768 1.1596133915164635 1.1691335721618188 0.8969807598778101 0.21146037949995838
Ni 3.2410119393940198 1.6811948736265052 0.2531204519792228 -1.0704389491023825 0.18693848309919417 0.1584509171824626
Ni 1.812883681551701 1.3542175494031494 6.917587895921 0.2803289203368978 1.6711754029646186 0.18394031970281868
Ni 7.082562072024517 1.0204331401803344 9.109617087163763 0.8276782168272456 0.06905777402961011 -1.2222710754167467
Ni 3.1684516982201587 1.8414351144783878 9.392823759867138 -0.623379645183049 -0.6146602630321801 -1.5719894420910603
Ni 6.60731621676066 2.1060445754694324 2.248934961873631 -0.3356536610511316 -0.42796037830635325 1.9788788586597272
Ni 4.684004461933549 7.1585897291498455 10.139424112625525 -0.6441834693022777 -0.9564830290085012 0.6553500274420585
Ni 7.366652935795516 6.638486461208587 11.466286487605245 0.05403970335422306 -0.6186200190108766 -1.0940373052476124
Ni 7.994884832749633 4.061986539355614 8.051751366831576 0.2071401548580497 -1.0637697646123228 0.2749671418043522
Ni 2.658038945385369 8.60639101012733 12.427141209438433 3.3351820560949403 -2.2206826263382338 1.5995390695745548
Ni 0.37003259308387665 4.919615375835744 10.135109917199593 -0.5626753853244567 0.33226520419487293 0.9058983740824141
Ni 9.146860784394049 2.6760330092177202 5.595853646637924 0.2926902701157281 0.338609658355662 0.7581123928129653
Ni 4.042815379055528 2.7011079014141193 11.386624431076049 -0.4193147868162133 0.15266876328304674 0.4258487312799891
Ni 1.2291624556798395 3.3298599107609568 12.726761534282595 1.1764061945638318 0.03503976521295255 -0.3044175858549854
Ni 3.2034817241087974 8.738262313628919 7.964209151313732 -1.3000819130486385 -0.40329475723887315 0.2000469954566942
Ni 6.058652391113895 8.252787581308235 3.849295244892617 -1.1653257683799545 -1.1388629462027353 0.46574556747492696
Ni 3.325826758522671 8.814700585801132 3.6107479771662576 0.8795409671348078 -2.19558223172618 -1.1823608694853702
Ni 3.7950593845443783 4.897141045602945 9.565651633100728 -0.854224085636574 -0.6777643905815166 -0.3527602388244312
Ni 5.4110394639468415 4.657588227250661 11.263837757367305 1.5486376547389975 -0.4359012304199848 0.1448081295880474
Ni 8.006865667339833 8.996374932100373 2.8905237100639525 0.9051175300523315 0.5398388470459154 -1.4482838988095832
Ni 4.842784738174287 0.33944177209099835 1.4607073681399987 -0.5624923227793732 -0.37777038771552357 0.7446511251017369
Ni 6.354970458503225 5.71183779773662 0.08607221364999917 -0.318933005862341 0.5645160380776213 0.8406237212443199
Ni 7.740020635537975 -0.053890031230973856 11.506899053175744 0.10012261375521465 0.2295971983099852 -0.1330342768815709
Ni 0.4778126555458244 5.07326752637984 5.501366561960444 -0.5683675506132276 0.3668812516068456 0.5376562375722999
Ni 7.333420491334349 6.505063945307657 2.7138771168943387 0.1180113211101774 -0.7038716291915298 -0.8532365249123242
P 8.760006661556146 1.8006747274910087 3.5219365049145996 1.1783226948602545 1.674200048723555 -2.071612121929406
P 2.0905233266972068 3.457406069102031 1.456674215901713 0.1453999975357754 0.13114040229296767 0.18374208764908354
P 5.034222597810555 1.420883183459516 8.026337032863086 -0.8535486568361043 0.47724868301851997 0.24940806238832527
P 8.638008368737419 1.8627505978010912 12.302431944832389 0.30005133846648974 -0.5201143720337945 0.517555867277999
P 6.462797969815036 7.901155104714183 1.4554587953629354 -0.22473112846693558 0.6363745147808202 -1.0305886498746637
P 2.462184692800391 3.524710437675773 5.572162070910584 -1.4577262751694058 -0.8931989242378746 0.41091782100176966
P 7.414558024598681 4.0727994022569 5.531962857820614 -0.37109323280566414 0.22622673917585556 0.5229474706072155
P 2.2535648746467216 8.81783950971509 9.984666038888488 0.060698089211005134 -0.01882561734693532 0.5243986012314452
