# total energy = -340865.9813744839 ev
CRYSTAL
PRIMVEC
9.33167366769762 0.00000000000000 0.00000000000000
0.00000000000000 9.33167366769762 0.00000000000000
0.00000000000000 0.00000000000000 13.65784767270348
PRIMCOORD
 96 1
Ni 6.8494952853253 5.924203830210259 3.2626415367116595 -0.26746749099319744 0.8688819447590649 1.1443535370036615
Ni -0.05350968435516425 1.949507985018037 9.306812433138925 0.15308219667138154 -0.049698909887024086 0.4423984081085542
Ni 2.26720482221792 5.931930456181812 4.47791662394166 -1.1944481396672075 -0.5353923812387876 -0.3224929552994575
Ni 5.619496683049508 8.025360847430832 13.275879412647523 1.4842297207765727 -3.9704959908217297 0.0035069847119939606
Ni 1.3146368843554785 9.11749329982291 8.368682461101587 -1.1617231386303606 1.2103959212457154 -0.2149622220056298
Ni 4.206494624338795 5.19967400692128 3.291650911298332 0.5068443943977657 -0.5488320516834613 -1.3306541294085408
Ni 1.0976568033282594 4.267803721721766 0.28510503301118206 1.1625628609228364 1.6704981743919358 0.8417557779662341
Ni 4.608092541381948 0.052943251750727977 9.148668555916824 -1.5370039271548108 0.11140101488251138 1.0807318463879583
Ni 5.920956407700476 4.449118145184644 1.553184330051118 0.28528549301122474 -0.5469044956434452 0.375941562036901
Ni 0.9235184370780902 4.3824526669953086 6.487573779279546 -1.1226110031202472 -2.243579071320433 0.04767699436098886
Ni 6.44566709822514 8.562631970996208 4.237224759588698 -0.42253946440109813 -2.202417509480459 -0.18345052455059374
Ni 8.59025372567712 9.255928681813222 10.964042127435233 0.7545881817097907 1.099902762889454 0.9845677030598592
Ni 4.92230866422508 6.755488002671412 1.77957633735238 0.020247694505442546 0.8256033365760878 -0.8705122812736362
Ni 4.819744236624437 0.5088496444330609 5.444960787492107 -0.5941492875630219 -0.10397875427651125 -1.3053634731625519
Ni 6.352602314633 5.885710675460677 9.857988683950932 0.8451038685028607 -0.36014830375838625 -0.16512344410663174
Ni 7.763392766634465 3.4758058962898835 10.930335188218029 -1.8648427201472142 0.8470049421803154 -2.6797258420923207
Ni 0.5238036518236561 4.7661057751697475 9.506422536408357 -1.4391017180896828 -1.8195776776618275 -1.790286384896878
Ni 7.239213981520885 9.135820707320649 1.4506413653003951 0.6112352965110313 1.2196200109471447 -0.2146338921319336
Ni 5.210657387076495 3.2436711768836775 6.36954210222498 -0.48304266399247775 0.4895259577239763 -0.0019679223596482235
Ni 2.416073015604606 5.902414371703527 1.8800709996867309 0.20021128894870036 -0.6799462287241838 0.2536652950027825
Ni 4.539579391764632 7.754425028037047 7.171694655171648 1.1903104633497499 -0.7173264691448549 0.17541325606841401
Ni 7.9180186028043 3.863658257709731 2.7847534530406923 0.700703258765877 -0.2114526661904745 0.5014905862850202
Ni 3.503688937839399 8.459918236613504 12.757631839451236 -0.3797416525092815 3.8585743275490576 -0.7309062647118186
Ni 0.1800733108370138 4.488171200366948 11.837885264954911 0.1429556497603409 0.10148838375448974 0.6728918929805636
P 6.583421268022311 2.110498022773137 1.1497807341124386 0.28476433040043214 -0.5294338496625076 -0.32949175521479385
P 3.859020415792024 9.56449914195975 3.4448508676995044 1.421714890071803 -1.101139977730665 -0.6625478307420782
P 1.6246630856270807 8.062939498140302 0.8190298183236615 -1.5728386774652332 -1.8577066233230652 -2.0104093251678408
P 3.799279039620673 4.111843456187278 4.939619852437432 -0.7019075634866234 -1.1565318242374083 1.5807430199139743
P 6.527860481748611 1.8076572103881234 5.5159813578806265 1.9596292664014963 0.6642013071851012 -1.5301707062830614
P 8.379936459799282 -0.21663014325676824 8.966554408002542 -0.3163927559389906 1.4423019701945354 -2.8262121307137393
P 2.510882822212061 3.6902290986743425 1.815879348242634 0.6465452846662348 -0.3152668698646635 0.6558693902806382
P 5.220194357780512 5.612544586009887 13.562393528414388 0.1444340340780803 0.9670440923537991 -0.46269392513279667
Ni 0.35549664858027813 2.5493946403094 4.992038664116178 0.04856531050321314 -0.9475613010388391 -0.7348788762063214
Ni 6.433153323553823 8.182048983527856 8.667980970082251 1.5595365610396885 -1.305633953215119 0.6024606356421948
Ni 2.878457456293523 5.4226543542524945 6.634791199557093 2.173010259962935 0.3745593369773937 0.795293629848953
Ni 3.9530090350981544 2.021464522296589 11.433544768958813 1.0707505668055302 -0.26190208109027796 -0.45203927363242796
Ni 1.8839809710419004 6.138347082378357 10.588437587981161 1.6203547207683258 -0.39367677453313493 0.3243791165785769
Ni 0.7238523437653862 6.51295779856435 6.901789052574071 -0.2946715622118151 1.7975011574777622 -0.3076733737881217
Ni 6.409758817139955 0.9305321231653111 7.411622255433946 -1.1743313143126743 -0.38675510771263716 1.0362224511216735
Ni 1.8443586837529973 0.4735245929652931 4.184355228061611 -1.2259942899046046 -0.7932812274046144 2.8602998164260676
Ni 4.6085964517713975 4.601000469234147 11.67359461414892 0.36332438749352264 0.09203469454075763 -1.3403093931101173
Ni 0.3696667953650636 0.6208689240075896 2.4082885332550057 -1.6857275897471806 0.04433713135447848 -0.6245937200958083
Ni -0.02044289796603856 0.22246523893311093 -0.1219957721182325 0.11518696428750486 0.26839128835904746 0.5150454421513194
Ni 1.3097284238952893 7.7817761641754775 12.11792599855213 -1.6541356738735125 0.37385639737309806 3.0923462476074937
Ni 4.594906886191364 2.418004672097494 1.9294308886680431 0.008953609648862 -0.48164809763779626 -0.39436274485656597
Ni 4.6455872070265105 2.3776265192244175 8.494116021876728 0.2637802719495973 0.4931668969106733 0.5695564287150062
Ni 1.7631171309651525 2.693158408084445 11.456639728641173 -0.9773791557312199 3.149959527245588 -1.203297105417405
Ni 2.9097278954610015 4.444219016398335 8.916444252441384 -0.23258199196992205 -0.7312577345139664 0.15737259651661928
Ni 7.759520121974809 5.4482697990494895 5.932518351636169 -0.15301406243760746 0.022914956924960535 0.36207765957061516
Ni 7.301894834964022 6.86925043892648 0.9132479968072079 0.37127526690948315 -1.675203293177089 0.577467970252599
Ni 4.174011067567087 7.365602172533816 4.172677571369823 0.44799389991846067 1.0662778757461573 0.6049358366555645
Ni 5.840069458520022 3.4766550786128434 3.897854176638178 -0.5219858780248946 0.7711162612718011 1.1221782864582028
Ni 5.811990451819054 0.7849300156361653 12.78516587639769 0.7449036074321752 2.273714971473865 -0.5479743316688563
Ni 2.9284099065661318 2.2426625199169745 3.5027604362884692 -0.37276702096366127 2.3752792027716128 0.2653172774194141
Ni 9.421257947921912 6.183008473561752 2.3825023188260315 -0.6704213199528841 -1.6483270376115353 -0.9769402684215884
Ni 2.8746967917204125 6.53277827388268 13.365296444920485 0.2782761515729272 -3.3946365027068306 0.04179739565176027
P 2.4152331649555245 4.548995050708227 12.114442484693217 0.6863158796959534 0.9493896124968295 0.5998843902745863
P 8.1148236049058 7.8526408956102225 2.997160080699967 -0.2392087532578203 0.7631635820836276 -0.8689783611276132
P 5.823225787168993 8.38792437263944 11.13558535517974 1.7235608585448703 1.3711065809966323 -0.55084111169369
P 5.65578756276372 3.1091084395530175 10.320279807901063 -0.4733326357935654 0.5176502267640182 -0.0021239883215382776
P 8.109457892425555 5.280392985971919 8.255390341210004 -0.974675640757128 -0.5735647785434509 -1.0302875736944772
P 5.870294750213087 6.791676233972959 5.724168202611959 0.8247551296431797 0.7969039117588662 -1.584131476770233
P 1.6056451342623175 2.777544734969407 7.910898535634862 -2.610644671023943 2.33790898965327 -2.1362545405001403
P 2.4073292371802766 8.3646045196166 10.501164041198134 1.4361778595746684 1.1423899855193873 -1.2844390643050587
Ni 6.374027837858464 1.351916921500831 3.2675443981675207 0.12463499707428213 -0.42454903863195914 -0.25901884600521197
Ni 6.7672459117585575 1.3242298451027683 10.068579367873415 -0.22159232572763773 -0.9070155184059928 -0.27857234265710734
Ni 9.333820163678618 6.97965347258522 4.55874385040929 -0.02729585960147557 0.3945702328816818 1.3133547188981447
Ni 4.843866613600842 -0.08571795674745078 1.3271534585289606 -0.10616804861834618 0.8229910957642212 1.4941107273357106
Ni 7.78445435457866 8.219161050543393 6.37377588266374 0.10940095373334707 -0.5939597972600352 0.4874508203625025
Ni 2.508017998331304 8.004345917856028 6.126924180383457 0.24272499394119484 -0.17306172511710194 -0.8098730703250246
Ni 8.604549850059268 2.8503691179186763 0.7927247628270321 -0.18124451803821043 -1.51729539298229 -0.7690876608775464
Ni 8.619181914701048 1.3682193557668965 7.026307176141713 1.217539217158716 -0.2943907977466027 -0.2702334837741088
Ni 4.319538521705204 6.9594690619856205 11.035404237087713 -1.0844352633814744 -0.053247803580547 -0.29171273669380726
Ni 2.539792347888232 2.3305295611586865 5.933405793822032 0.8493963252306275 0.05009665954607501 0.5384532795522985
Ni 7.989975140082852 7.889099745454251 12.541742631100435 -0.7689935585018434 -0.22182706744626313 0.7915179648566045
Ni 6.630592879479072 3.6022314139983282 12.9484319094118 -0.6051070721261063 -1.1806893953202182 1.199447906874644
Ni 1.728244665680501 7.856476213574362 2.922656929619922 0.10285106842997126 -0.33796071191775345 1.128103393693386
Ni 5.593162699363854 5.529156748229944 7.412510630787197 0.7454628223697549 -0.7422103768707282 0.2793796690497511
Ni 7.045908357123894 3.3580215085931022 8.098872041577572 0.16648510034084876 0.16820799656922644 0.6862480025724955
Ni 1.5837436956690403 2.03659116565394 0.2881042329957919 0.8832235581927177 -0.3766578713776352 0.036622279208724025
Ni 1.446670738065014 0.6917439202836017 11.705759027673977 0.684737222354924 -2.0849816012577773 -0.43578167412298496
Ni 2.5648758872741415 7.3001778069703445 8.562514391905337 1.1077335717877825 -1.7553630906571318 0.23014355773175846
Ni 2.5750100851063946 0.2821394270525355 1.6383815793961378 0.9089497593142281 2.671843868241082 0.1288760317388232
Ni 7.0936585323611325 5.748899004725255 12.151892358303162 0.0914281713050103 -0.03906714120479078 0.21312054081120071
Ni 3.918192559856775 3.6711924839618217 0.06133149340027929 -1.166534958196707 0.05091632723389296 -0.26469069957900865
Ni 2.4973612267618446 1.7763027861557366 9.267328254623425 1.4509701873924945 -2.1760775860343493 2.6627349639612787
Ni 9.057910562107494 7.058487453512363 8.879376977460465 -0.22359881463470527 0.5671308499926491 1.9413572075651855
Ni 8.292246720361266 0.548926384239856 4.685625686970403 1.1394188187062053 0.23815485807200923 -0.18930364089726107
P 8.737918133133455 1.989316905784514 11.872643883818244 1.6977719225062247 -1.728808737207371 0.8080038783267698
P 3.690854320824214 0.3896440428045557 7.156192878524375 -1.1861992693948538 0.9407666467145087 1.9389735378243573
P 4.362006969527106 5.946375887346019 9.120492499807519 -0.5843410432233486 0.5375899031107386 -0.7200266416848374
P 3.7193625845236014 1.2942471769305486 13.475952366941337 -0.2896278291403206 0.3022750855906859 0.5360521263099736
P 9.212051151235638 4.524658045232612 4.442296691579325 -0.016639408328893924 1.5732832212018195 -0.3154576457192309
P 0.6599854345722679 8.903751309631593 6.235367562527673 -2.258139228522795 0.5499242563063754 -1.1560204318186285
P 9.206041553257764 6.4906550979942885 11.409875911332913 -2.171953022343014 0.27719808801740004 -1.7065599531114994
P 8.388997515135488 4.95236598578833 0.26294044121452587 -0.563345671918604 0.6474258874989753 0.4354772555086887
