# total energy = -340875.1984024538 ev
CRYSTAL
PRIMVEC
9.18857916780732 0.00000000000000 0.00000000000000
0.00000000000000 9.18857916780732 0.00000000000000
0.00000000000000 0.00000000000000 13.44841440789989
PRIMCOORD
 96 1
Ni 0.8791402739484586 0.4349643617155043 6.728066879618559 0.7480940893450149 -1.0583326527571515 -0.03954536639278996
Ni 4.983775024497469 1.7068796365805925 7.736280961475971 -0.7729070346236366 0.7781520850726598 0.9938979793218496
Ni 1.1569064249382413 5.187246919418581 11.694888975732292 -0.543461017179535 0.332243349818002 0.361075700668662
Ni 0.9786755567218032 6.968645932255054 0.7648251617413799 2.112323997826472 -1.423777943248419 -1.4466995850415987
Ni 3.4355637712937623 6.119051534305458 5.826444909260081 0.8251017143493209 -1.12128457099934 -0.6337237074215343
Ni 6.720600240266459 3.2315956931028826 13.179781730566175 0.3937377096780574 -4.138299295753369 -1.7904740754276518
Ni 8.200172807818943 1.8979653269156465 11.36116621592339 -0.5129026847767038 2.0030847664819698 0.5818455304950044
Ni 2.3507049948416316 8.237358987314325 5.220446174455587 1.2690080744619692 -0.24769699323448954 0.23335126603577874
Ni 7.000879467631827 1.0180302408776523 9.077666488398098 0.3431525405313381 0.271181706619991 0.41995447728274127
Ni 1.9713453193668748 3.941128580291888 5.571059380310551 1.279672753264667 -0.38754315083157126 -0.5518716098407335
Ni 7.432228123483374 5.447412347200208 13.272159110244164 1.6527341655402958 1.2733498963704328 -0.2921104863528582
Ni 9.175669116182604 2.128019781085619 5.321941381144514 0.5679754573811314 1.0053450448165266 -3.7387377803046835
Ni 3.2025230289261124 0.5155959807685995 10.933103395947194 -0.2869960479444283 -0.6146070411967416 -0.41086279939411824
Ni 3.091350410760897 6.117719190340342 13.007467388412765 -0.05309739404561178 -0.7738385452989704 -1.4567610830426587
Ni 3.659847797807916 8.69133911341473 7.451268697031763 -0.3907943107790173 0.4880560580466691 0.5278266530763878
Ni 1.891551698724943 2.6668104920000535 11.337793227343601 0.45186392439682826 1.202445556050387 1.8288207935266505
Ni 7.163195716899414 3.0042334926003544 7.45315143688316 -1.6154161458161274 -0.40000760184716916 -0.6790537988169014
Ni 2.408243876976567 2.5338241871231904 9.104724097184866 -0.35094426866161493 -1.2633642459126306 -2.1632830053728425
Ni 6.980370559148088 5.544599948021226 2.2536579792803826 -0.1458445412723617 -0.3269530479533401 -0.3289579941985109
Ni 4.345940619789923 6.419132149566191 10.410995469191846 -1.231027481453138 -0.2027091156698896 2.249892929353602
Ni 7.433836124820585 6.469605014396469 4.5437082448245185 1.4846241280015142 0.6921278583920403 0.14851077525061518
Ni 3.3245473589727332 4.416426209834172 7.461597578764098 -0.8149684825700609 -3.006283711489771 -0.7865305389443422
Ni 0.17908173063829927 2.623201495734898 7.530398902264857 2.0723564562945986 0.6316485700600606 1.7264034701999882
Ni 6.551741722701193 1.8291980011574456 4.969888324949317 1.3275196975446169 2.0503979497456366 0.22615911916271375
P 2.7497649838419878 7.595224327602125 9.382205402223486 0.2959604562265677 0.366904134424981 0.08810219225557084
P 0.6640549339410575 1.6170704647526053 10.014603843553353 -0.991105504178377 -1.7727180369958113 -0.9557767469700958
P 2.743268658439656 1.679699819692196 13.163187156766162 -0.28362867413409215 -0.6103575218917683 -0.05168662974101421
P 5.783741906891207 4.587214329004092 7.940118561844059 -0.9280258021090727 0.2577217244603432 -0.04351103590875732
P 3.2558351646889507 4.475076910036551 11.414987398966694 0.767279146913898 0.6161957258401001 0.8929826944620104
P 7.841974429941879 4.620504550973889 11.194594735688591 0.27891558492913904 0.4355500177281531 0.19883060655108983
P 4.957872420099771 1.667129843524743 10.11470054850786 0.7938376141287167 -1.7566951792049939 -1.4339718530622851
P 5.694575935598103 4.652554314769267 0.6384270680575462 -3.3443305553634275 1.7810067593671648 2.3128615597663393
Ni 6.7398319362595 3.1296667854818616 9.873758546998111 -0.09327705158829096 1.9388976902810993 0.5891636614229725
Ni 2.4302505238486796 1.5232918267664752 4.847682979895022 -0.5708671771066298 0.3850728349142078 -0.11319770177161795
Ni 2.287625399527622 4.9419945554672 9.542537837269908 0.10783129525338203 2.048753472163678 -0.11503346942877608
Ni 5.160397891376697 8.410931245942386 9.48101111181869 0.05121174698712471 0.9036656280971533 -0.06189982282859016
Ni 4.866877921571783 7.022564514236497 0.9080971620289495 0.7319766149578619 -0.10963620967260475 1.3775047712134922
Ni 2.203880689885687 6.141885153293851 3.8129074725206102 -1.8720250968282661 1.6690624703866737 -1.4680256002128846
Ni 6.292715678724218 4.726145644539099 5.465636974927201 1.0801291798069528 -0.1318916786366954 0.28149131607611516
Ni 7.118171679457513 7.080774162643526 11.557594146129613 -0.4019742386552367 0.21970205068346033 0.3115364562879538
Ni 4.503607448048204 2.304440499225312 12.052993630102845 0.0795879841369726 1.2117773749742744 0.33862662763652646
Ni 4.2711180204247405 6.218315753996245 8.12865166491353 0.7126123514986372 2.069494304255455 0.05667868363896691
Ni 6.362787782710328 0.3422892720756542 11.45865428327999 -2.053168313401922 0.23801807538382877 1.2974676153542428
Ni -0.12434352740383185 6.721592606805997 2.690852409136121 -0.5252169833676825 0.15166603305014525 1.231699310709182
Ni 0.7620566428676565 0.7349374706011207 12.380018834627789 1.5213790761333603 -0.03587100286499629 -0.02429743909478396
Ni 6.4259592638150345 6.621519792157069 6.901618923372668 -1.8507736436486577 0.010062526442324604 -0.40529070462297945
Ni 6.518341237782559 6.158635932938052 9.578216170939939 0.3783416868379613 -0.4975948507750398 -1.0740698609867503
Ni 6.338612631177748 8.950815397766124 7.260771994615082 -0.48873508639156477 -0.03848067257370147 -1.822733963902622
Ni 3.574430766775282 5.194597782674401 1.6912186224140666 0.2766432439551946 -0.28369783680913074 0.5890204509768887
Ni 9.074089374566233 6.378821853187086 9.843189982148779 -0.41882987675999483 0.06475220467572074 -0.1828601992647625
Ni 6.620894968780325 0.8750467619728736 2.704664681193808 2.352250088866291 0.7925554049821834 0.19631401077682317
Ni 3.0693897067841336 8.451535576851725 13.198180022437587 -0.1491358104291238 0.6294284224802902 -0.20028739360227443
Ni 2.1398454823484205 3.851714517363901 0.11760002922452352 0.7263502699100199 0.16577804697149515 0.46830664333388383
Ni 5.285932258627971 3.5466996351426987 3.1015001152013717 1.2675392032259265 1.075125041724142 0.0961847121533892
Ni 5.290278456527974 6.411661834782464 3.5998711856457692 -1.3382805356055467 -0.2275976513814532 0.9924162525700004
Ni 8.558876557544844 7.441343193920591 6.53118227703257 0.355257294214672 1.0609191825374051 1.6468062300916348
P 2.8212245632676325 7.81816682157209 1.9689020761922214 -0.14177602762994293 -1.5192751424164803 -0.4692013872340112
P 5.0281558614044854 7.775357231686006 12.392902141341521 0.6058696613237438 0.2134154463438002 -1.5478555251573343
P 0.8476519323342445 1.396829413029153 3.1664964481093363 0.4319671854729012 0.7915961263927076 -0.5046329885687438
P 9.034045546980153 8.049195265123458 12.748612252006488 -0.6060149286523563 -0.6272728095898681 -0.4860207727841952
P 0.5139999245841794 4.868485922908994 1.5178825102680982 0.005137321226565346 -0.6386180593993581 -0.6819462898733482
P 0.4517877311343565 6.733170216433913 4.934115348914866 0.5279919750096584 -1.285588861638786 -0.44909638895402015
P 7.220348678713418 1.1378768776847359 0.2868343596737442 0.9313731213147507 0.377115270630028 -0.13341377170817667
P 4.703817397399545 7.761216008497621 5.726307774557666 1.0436837924957252 0.7080967230164708 -0.3916772276046029
Ni 4.638394714422742 3.363626385756489 5.4297436285069365 -2.7749019104755375 -0.9108752584717151 0.8048406501074398
Ni 0.35228001409822124 8.732724473545 4.198810335150955 -1.4578460885767215 1.2345475787912545 -0.492400451058294
Ni 7.940558694781502 5.1924476551720735 7.840963686244204 0.5517173436510563 0.17219089247637442 1.1719715558312462
Ni 4.357867395422493 3.654968662321865 9.530111202935942 1.3312395695983654 1.1974537592627506 0.5745271424567202
Ni 9.015723520315019 3.655051359533493 13.18980095718386 0.4148410673155759 0.40432576960654887 -1.3977218695913154
Ni 4.454696641659788 8.620982163477457 3.243125522119637 -0.5896560276783588 -0.2866067829258096 0.5061026311357348
Ni 3.1857446835447023 0.7500728980448551 1.5700488302209354 -1.6528380381080117 0.9464703819675055 1.8169042445947226
Ni 0.7462844468943867 8.676453615321693 9.037562935048062 0.8174246574200374 0.30163025291783535 -0.4782799524965118
Ni 0.3866719466984845 4.3672948775480815 3.668740504631645 -0.43101639152385773 -0.6554721548422195 -1.1009445738904073
Ni 7.226036409157609 7.829873071306984 0.42059526176618917 -1.004289864079135 0.34739511785777594 0.8803560068369354
Ni 8.416352507593555 8.918168376331211 10.730691863050735 0.8291141779428236 -1.250824461574407 -0.5416715293792801
Ni 0.19947118759413143 3.8255178784359707 9.731810620954496 -1.2770656546591233 -0.4693803360140368 0.5161037082125047
Ni 7.89351316994425 3.3995537299193117 1.7849274271992668 0.39971552452804704 -0.7680661615915676 0.7801441758020241
Ni 9.118690737370924 8.887156921970718 1.4637388080994451 -0.5555349176249337 1.5702218086676765 0.5907703437884599
Ni 1.8944461011319225 7.139682143059857 7.339673404229338 -1.2721497054147446 -1.0016627108689329 0.8263499849341251
Ni 4.452252479627227 2.824164908569961 1.0359148911790637 -0.1605929032261299 -0.3606748656858175 -0.7685868099817279
Ni 2.57520035867439 3.090238592693454 2.8155469402604187 -0.24937772337102213 -0.1957152008505597 0.25836141492687115
Ni 5.513266893393291 4.701639704160008 11.784495998820745 -0.39109667251078445 0.4992496127696434 -0.511883242373254
Ni 9.042030422191786 4.6673295499134655 5.878974178086175 -0.9646002587989969 0.768952677961579 0.17296993673424405
Ni 4.635674895018088 0.778907578023718 5.5432345251714565 -1.5655272314054844 -0.3409614464172902 -0.5199984152812206
Ni 0.800122169380016 1.9156900959412437 0.9635759647364409 0.5034911616548168 0.144245572216358 1.4549847078685263
Ni 1.466736122592006 7.692898923113839 11.397571366197843 0.9767024413791696 -0.43479951271537376 -0.8106215184552749
Ni 5.363465488818737 0.3125734073639998 1.0092992530455516 -0.6160167770600745 -0.5924071080609347 -2.5409610904848754
Ni 6.5346601542104805 8.746387890621756 4.681473529675571 0.4853774827732415 -1.942267378084281 0.7203251467618627
P 7.363736455097267 3.684142400868403 3.8803654257613682 1.0635957009283037 0.03538352170561648 0.7827582163861035
P 7.587377281076536 8.102525778044438 8.755979848312695 0.6755342156994172 -1.9540049782361835 0.8759108265813883
P 3.736361095721938 4.870893330625275 3.846098457836454 0.7369015630633051 -2.479642851191368 1.4921410052038495
P 7.9359827824047535 1.130094151212636 6.628965297777309 -0.9366446541263352 -1.0692217888658295 0.4744991452978408
P 6.718238775445528 7.794938093683697 2.6014475347872046 0.41170689256196835 0.03193618658696435 0.1730362711958052
P 0.8868476540721865 4.862779815306664 7.876776173168655 0.6351581258752157 0.11610690499861295 -0.8681280973121759
P 4.625117217666917 1.5539081722269676 3.109394023480216 -1.3232012726749212 0.32725335280257833 0.49998340561187443
P 2.823926005514147 1.7116668862759454 7.0425312965551194 0.314070278453401 0.20484647372786657 -0.6704768557811679
