# total energy = -340862.7062351794 ev
CRYSTAL
PRIMVEC
9.31239461198833 0.00000000000000 0.00000000000000
0.00000000000000 9.31239461198833 0.00000000000000
0.00000000000000 0.00000000000000 13.62963082591781
PRIMCOORD
 96 1
Ni 4.225349945015166 8.028913612035797 12.085652413430607 -3.4682037345710204 1.7538034594794956 0.8544590844655156
Ni 6.757362035799169 4.8601199945420115 7.61522911713921 0.41129680160774335 -0.6078285848223273 0.040638599456968724
Ni 4.106877663897853 2.133339175604527 4.970085403406482 -0.08706243813714683 -0.1787541475161889 -2.4015998429440124
Ni 1.9245180443535734 4.611413878223816 13.463198593574276 0.18759642839816723 0.6706480912517095 0.5830863448806409
Ni 0.05023943636219089 7.148128728162373 10.203809347496167 0.21139687325187465 1.5984718046523052 -1.4814457302735324
Ni 6.480336928215626 7.683619341359108 0.02250340098412098 -1.0388141231082497 0.22749557858595015 0.4890929839516157
Ni 9.180782295887605 0.03489447292679484 4.693009077653929 0.10807169339896226 0.8970380954783067 -0.26714584598772056
Ni 3.019916368773264 9.317795554186539 6.912185248322033 -1.221112279221955 1.4017754708353987 -1.581478355418102
Ni 3.311515373538743 1.4138728993238716 8.73463013803586 -0.07570767524595994 0.513796914456199 0.9526148043023465
Ni 8.741740151133884 5.300326188591415 0.09054254793644174 1.5073740201035202 -0.5802807571110458 -0.9254500709620964
Ni 4.724149724412009 0.9759203047109085 2.198200002359918 0.6922286456359626 -0.763676260053988 0.38698959232094643
Ni 6.060720438108243 4.231356439380884 5.000698037404041 -1.6896724333275417 -0.6018443422144345 -0.351228375560937
Ni 4.07231936840765 7.623731333194869 0.9373260175027185 0.18399894085489601 -0.22408269624965924 -0.28544952939291485
Ni 1.0174722083695669 2.9101698011763815 8.664737824604812 0.5731099503942194 -1.1580737148032314 0.35280934689481175
Ni 7.967945366125167 0.3960430950106714 7.35899206749767 -1.0542569400258812 0.45166929188751886 -0.22341343809677652
Ni 1.6689859429654996 3.6620525222431843 2.048274178033845 -0.06428452101068284 0.5225841737305258 -0.7434360217477132
Ni 8.194990853149315 7.599509795450322 12.176725767845879 1.76673302305697 2.667014565173239 0.7139513820250349
Ni 1.569166387762192 2.2111256057391686 12.802515875486117 2.3584544179047895 -4.514958966903218 2.3552665070951115
Ni 9.060503410263394 4.29928104388251 3.3391908783534374 -1.3074110997202 0.6575699179115126 -1.041510181883174
Ni 1.025099059354874 5.920373342626476 4.622094263321556 0.30971148726407305 -0.22598916924375273 -0.9406602030436315
Ni 7.385008103636442 2.593250396131232 8.57194726466855 1.183984264021406 -1.1929576711646102 -3.321194997787228
Ni 4.335068575428951 7.861253263880154 7.885068781230368 0.9649080198474027 0.6794548909100621 0.8487995721868932
Ni 5.431938258158384 8.734318172824617 10.0481452257621 -3.1780400875318877 -0.1599267303970407 0.4024411509893263
Ni 4.717426175680151 5.8737368716442795 6.794643275401829 -0.5445282821017848 -1.1081236081373498 0.5320702588440901
P 3.004858227084324 8.718012170290706 10.134039026431306 0.5878801667248585 0.29588769400710335 0.6083790580091587
P 8.36615266158637 7.946806230915584 8.442315941383113 1.0716067441582384 -0.9816811255406834 -0.06903591965273917
P 2.9510512124407273 0.5695451081517653 13.362830538342843 1.4504557096499213 -0.9935552512704502 2.9234772204155
P 2.836341138647058 1.9380862029440407 2.9449273819060044 2.2414026324944043 0.24204468004471863 -0.21535200124488074
P 0.39232931213772815 5.882751269390041 11.81506310159303 0.9765777428758472 -1.074195330821021 0.8575598348780262
P 9.132767590539322 4.42681428471741 7.838223712614384 -2.3829529172667865 1.228826102926445 1.4239085552890123
P 6.304798294426807 0.37025335005498156 0.6839823287905269 0.7628943875826409 0.4349977447691089 0.4859240993053308
P 6.489965943989506 4.045844231226663 9.756075945081164 -2.0114804467448324 2.4179296904522873 -0.12356516104887107
Ni 7.525038577709782 0.1356890358201655 9.95942976960016 2.286520864989282 -0.42486245610731993 -0.561076416268453
Ni 2.6401010521838333 6.978782836626581 6.263088080063936 -0.7444976302430081 -0.42359875890354787 0.015536919293334532
Ni 5.073196890017978 2.436699734453575 10.58921396318374 2.6313644200697976 0.5371196483425396 -1.3888096547033502
Ni 7.0065337718356355 8.865557746616968 2.6979850330806263 -0.4268854000746196 0.4214632006177838 0.012215825339901542
Ni 5.45438112857913 0.6655642752145308 6.523018425310814 -0.5221635412533394 0.07519242617243824 -0.8756334045502855
Ni 1.1042823486443345 5.974711163748904 1.910615570805386 -0.005992984358641292 0.46520255048726333 0.06367619800272259
Ni 7.860014715429548 1.888888823511344 2.0766648747358065 -0.9920997497708464 0.018988368177044718 0.2904755218525965
Ni 0.4282267299376824 8.259795805538513 2.8011887123963404 -0.46544551973600484 -1.0199980188430113 1.0318428339967392
Ni 1.3312347117248278 9.043061295616898 12.310091361271864 0.10104769667264533 -2.052898861790619 0.17274059433225736
Ni 4.524315053723719 3.2287654372073136 6.89600682559093 0.24700973735947782 0.27795604922934714 -1.1939863695394406
Ni 3.8794503687047213 3.6361547535128547 12.139025470496772 -0.3350036861719585 1.518352887712527 0.6026367562087428
Ni 0.4616321510054411 3.606019845346244 12.065575822418124 -4.626930252466902 3.8525834000729455 -3.3047389091137345
Ni 3.3066170541025137 4.853424382993249 4.894386812088575 0.3743490207388005 -0.2912993033054725 -0.04778960867945318
Ni 5.209260284091635 3.2781583769216844 2.7052906064603253 -0.2271392236877959 1.3724903487180362 -0.8577873775078002
Ni 3.4330886819797524 2.490143565716919 0.7860238212894319 -1.628413843627376 0.5787380952142743 0.8456509992555822
Ni 7.133759703656477 8.792641698735459 5.184330073135875 -1.467326260153015 -0.39499215091044876 -0.1592093926150419
Ni 8.66656119142157 5.876958960094727 6.220032224715257 -0.6636711457132441 0.9758727463890225 0.741723924152613
Ni 0.2543596709374628 1.7238266333836616 6.399384283996729 1.6493529077728886 0.5195284176233376 0.13372538941132456
Ni 2.1817263767274286 0.5821429152493522 4.697928815597199 0.24813150966874684 -0.03713187185529089 -0.08956257885118124
Ni 7.184642626469321 3.6667459690033732 0.38705570320857124 0.3663955702196786 -0.3900376351186508 2.5592935702454764
Ni 3.9902306120761684 3.953604965036836 8.788507926876633 -1.0933117399354977 1.2358459858877038 3.164765996130801
Ni 7.314476028712488 5.701159579263676 11.679993339998166 -0.9987051709025059 -2.477021868628753 1.017830321767731
Ni 0.379225842026097 8.054057076822525 6.588713642601349 -0.21788428074843122 0.10214221528840473 0.17538137438921408
Ni 8.631220654804668 4.692040588639922 10.11039206341911 -2.415609269849227 -0.6197752156612423 -0.3815637933196848
P 9.252962664614243 0.9002291633084938 11.362545922192496 -1.832515468769418 0.9512863152989101 -0.534907214072253
P 5.30410702070379 0.3320306273819732 4.25277215270312 1.3054524333319324 0.4393035712333144 -0.8536160197389299
P 6.019270970787604 0.658624678933394 8.483954450309371 -0.27524764915924854 0.6138346818070912 0.7308800394595736
P 6.485393558356067 3.7348381966035773 12.163708903001847 -1.9075135195428632 -1.3033433574087294 -1.5981447603301897
P 9.187207847999769 2.7158201307693446 0.6973055714091827 1.8118674535017636 1.0856292836895756 -0.6851527126257878
P 2.5314812843051717 2.2617384691154143 6.502233161087119 -0.7213947256769576 -0.3251275647088272 0.8246872525197217
P 2.7396226107674466 5.854907210237331 8.078009486369911 0.6606429004098815 -0.4928403668091899 0.170640517270119
P 5.925411347978187 7.287274524770996 11.56829861950003 3.1030983439176754 -0.7270629797063286 -0.7973340573177494
Ni 5.614265627439619 5.544404044909979 0.9131501104905619 1.353341029483095 0.8284927423087409 -1.4587976538567136
Ni 6.659563270173164 0.5793780653622487 12.042500640419965 0.019504388581514796 -0.3209513218439505 1.0098573308645833
Ni 4.094659802490376 7.986942650630694 4.641148353432713 0.40362745798794364 -0.36435797096435957 0.6626198216305943
Ni 3.432874496909347 1.3199387773595315 11.50676138629367 -0.5875022145601495 -1.6903013251607921 -1.4372029584050732
Ni 2.7009482369677142 6.238885167108119 11.285851835916922 -1.044361278178724 0.003377401112665151 1.159781184412641
Ni 2.5714128313442406 8.953168752807164 2.2258280139633486 0.9995153255086271 -0.07887938810572222 0.13012944452995007
Ni 0.953356373163412 1.4332892415758445 2.304770112238743 -2.137066237768158 -0.9109860730179666 -0.06407857564746383
Ni 7.961445314858079 6.678337057213921 1.5654172177906602 -0.49511399333471506 0.6092231511770088 1.670522599871968
Ni 3.567112661687375 5.353313712530851 2.0425638178089485 -1.0341465424292513 -0.2640265836324485 1.5993326099907037
Ni 7.774545559943406 2.4911586167027533 10.605297399492319 1.2798478453899507 -1.1943560941740332 4.744565421184584
Ni 6.645296682005288 6.5639063552512145 9.575810339912442 0.6543789217780408 -0.07831888761656189 -0.9469565775753046
Ni 5.419236152243903 6.939261034939593 2.9958335857047618 0.8436933613085793 -0.6171658030628533 0.21655090664898832
Ni 5.378028807176769 2.122536798140599 13.512115669936572 1.1400176286324688 0.059118917649343336 -1.1101470663252815
Ni 8.235574267793966 3.7176382042105827 5.506643216997498 -0.4200578356298249 0.14545887579816882 1.5389785343826785
Ni 6.716424750168629 2.2099336192603904 4.14147227772608 -0.0504877243369066 -1.792515531337713 1.1051976927398062
Ni 6.645240807639095 7.526351625315311 7.121318344784229 0.03005388196258695 -0.7150988653659168 0.18738714060083855
Ni 1.8948953178770622 7.933517444156081 8.503567284082454 -0.3070843340538711 -0.8152207077901831 0.39661965921154274
Ni 4.288404167263659 6.246372332177945 9.577664437630604 -0.08869277465171822 0.05537256323303367 0.34317105247409935
Ni 0.4746583282438389 0.5473415662662119 9.237127869235223 0.41132302685998834 -0.055712205960639534 -0.16099296687802597
Ni 8.69610010634879 9.23106922546106 0.9615503489655755 -1.1717180450595432 0.17335585931875305 -1.76740845185744
Ni 1.245523433985184 5.208394231415648 9.509938187128961 3.708202587830304 0.16645193311006817 -0.9881150540914853
Ni 1.5729379074802012 2.9934598563810075 4.355539080723094 0.9402372565735999 0.35892497287424635 0.7261209275080334
Ni 1.1502390148378527 4.171840926991264 6.368171931802035 2.40564315977545 0.1282455972436759 -0.7988594928233403
Ni 8.051039861048118 6.9564982769100485 4.023248637538325 -0.6183359121115544 -1.1446723537956607 0.2811899827856125
P 3.81079939744259 5.51278846603926 13.63222041378615 -1.5889173281946507 0.5444861160099397 -2.7479518642492544
P 2.025510961246928 7.748694353184905 4.293715025770278 -1.145252394668847 0.3845131057559959 -0.7485525170386722
P 1.022472964143816 7.884506312610694 0.8105731553156433 0.7995632037585843 -0.3754106292340954 -0.960873444766713
P 6.0493872541654845 6.227226049362571 5.241792202567914 1.2195960996877449 3.046922825167372 -1.0049629788867596
P 6.552982916660537 2.6717445682376484 6.669182973552679 -0.028609436206576532 0.23265706818223156 -2.0189903819686323
P 2.4326767800876987 3.0744218129942698 10.459719532095475 0.33443752925584336 0.13128001319462554 -0.5333797216841331
P 6.688962499184904 4.993985663545421 2.499537909152789 1.7417773815528972 -0.8304994883261246 2.5332984317332956
P 8.90873931928958 2.220140003484929 4.287200074672206 -0.21105105987668168 -1.9760293050260742 -1.621947519176742
