# total energy = -381168.5656722627 ev
CRYSTAL
PRIMVEC
9.18243851466549 0.00000000000000 0.00000000000000

0.00000000000000 9.18243851466549 0.00000000000000

0.00000000000000 0.00000000000000 13.43942694132071

PRIMCOORD
 96 1
Ni 5.846458591326355 4.488844241916883 10.400369592436167 0.2620787158774583 0.5402774772452309 -0.6684626535646165
Ni 5.481181187897797 6.8571512318636705 3.896856104961687 -2.2197981668507514 0.5048749293762208 -0.8972314424360354
Ni 3.146610476990641 2.7910205461768935 5.46586855345945 0.959911852184392 -1.8950410981074655 0.027122567248404898
Ni 6.222690643882369 3.8532358491234007 6.4860154326737405 -0.23449694960444775 1.6013738087904483 1.7480603863481312
Ni 1.1810819692959964 3.7570130761086236 6.231566388934004 -2.546701335402762 0.12241484949451176 1.3702555458502468
Ni 1.5731720931371076 4.297730149469459 11.225039802672894 0.6060151857626724 1.1845064550734632 -1.2034961088020886
Ni 4.1713797957445475 8.559006018104041 2.7945943512401006 -0.39511350697966147 0.5489577786280482 -0.12725315142341953
Ni 5.787681802504178 7.960953798765129 6.600546151564733 -0.045513411050766776 -2.877395852676406 1.7252976387303187
Ni 1.6201953606825483 5.395600861101564 1.6277561805413485 0.6958451593426274 -0.1276673561427027 -0.9146010440627345
Ni 2.0330010657739064 1.15021061106757 2.6625922066200096 -1.0265399337265868 0.5435597475409284 -2.304003338044761
Ni 3.8528777340220004 2.375671305621742 3.0159957988275146 0.12832890098610159 0.9459394491647 0.814880807952261
Ni -0.04870457203432404 5.075207217048542 12.678460042389359 -0.10345373501097667 0.005800408731860978 0.6498748632601001
Ni 0.16622968411933564 7.0543991932273915 1.407014032038052 -0.28331577087936366 0.875112241939493 1.7925785233651643
Ni 2.8048217512385603 2.2926528791662975 7.918954243321642 0.5684215437796146 -1.262880878518309 -0.6028239325188844
Ni 7.717160056657834 6.35970180870282 3.60852661789791 0.8275080097979685 0.36004828784541215 -0.7584798034547131
Ni 4.731545273842982 9.146865730710783 5.167150973723508 -2.3352245008425716 1.3842230637739321 -1.3772849418932023
Ni 1.8202347833494945 5.915776819543603 5.802593164380186 -0.31686378203813814 -0.12606041666689904 -0.2563464413793714
Ni 8.633980628435719 7.338090630606106 5.758485321057686 -1.4336298963418344 -0.5814863473833727 -1.3346023154230113
Ni 3.5647419964105196 1.3573480586930449 0.7154827523074002 0.02233028806608412 0.07445503378578144 0.6344593000359783
Ni 6.61172301570383 1.4629369189752213 0.39853435917862123 -1.514723775600372 -1.9641605786129464 -0.49150185050342443
Ni 0.18025034946109186 6.216455768142601 7.63751893108175 1.4266591214509559 -0.5764672969022266 1.0371555044589043
Ni 7.641322297107394 6.801863769670525 -0.26005400419857927 -0.02672738869251526 -0.6742977721891549 1.2920639278401682
Ni 6.332650344889332 2.462876924032024 11.590363118293938 0.11946296595503944 1.1472311156617725 -0.05393531656587485
Ni 3.885154005340537 9.076041582579952 7.419316645066849 -1.8961687839540051 -0.8583440213422185 0.9644922724662229
P 4.542662513950437 3.698309746794426 8.22626015778425 1.5134176551944385 -0.6054114907404026 0.9334744839284697
Ni 8.755960141435844 0.9098180441797304 10.220375433009155 0.16714921628740892 -0.777202576675197 -1.7390106174410371
P 6.695558679185547 0.6910326733202403 8.59882749913593 0.25770758339295613 -1.543838176467825 -0.6708800047568575
Ni 5.966867907343414 7.009735812375795 11.56195265358283 -0.7670950559275498 -0.3637393635437542 -0.9357211138708014
P 1.1064379267502262 2.338868092123963 11.89041215161201 0.020004211036068774 -0.8837462634654071 0.3469986537503056
P 1.1930466866581737 5.529508361709876 9.450295737883618 1.085016332695925 -0.6357839323846728 0.06540860731279702
P 4.47254541358391 5.4803823157485185 11.830579382362627 -0.866456623147024 -0.14914635195208506 0.54390298981296
Ni 6.441462241084113 6.026884325362747 5.602601490393427 1.4270620133163292 -1.2692279037822591 1.5105084519674437
Ni 1.9961611225221374 3.7544236284523427 13.479073182006617 0.28105679964185787 -0.7612321693888696 -1.2045667161584481
Ni 5.023666189762356 5.816744220348607 7.75469694699156 0.11991959387648378 -0.5030301628579983 -0.2917317628572008
Ni 8.379819913264804 5.478949855342917 10.346800164485895 -0.2752507344830421 0.6085929737921777 0.42070112564077866
Ni 2.778642619082331 8.367249154961794 13.077099999610702 3.5922422357118844 -0.449656118112232 3.4256764027317717
Ni 6.529328995066211 2.741389466098177 8.769400476664561 0.08409641353028743 0.7816372154077829 0.841149768951119
Ni 7.171456919192884 6.413024229057512 8.445470675546172 -0.29780368008289354 0.10388156657701464 0.2165966722852592
Ni 2.2823134534181686 0.22828184875355284 4.550348214972803 0.793874380903923 -0.43786683878678784 1.873581899792425
Ni 5.011288262667793 1.7543691520072864 7.036561388202246 1.0447266319379427 0.686185010545044 0.16767834931800155
Ni 4.510808634802784 0.7053581956201118 12.059842833791558 0.20593739279920018 -0.37541834254357925 -0.08797543686971945
Ni 7.96206487382332 2.504087708008579 5.7281658273829565 0.6558763322591736 1.0719373880247798 0.7675000046754524
Ni 6.496226304282905 0.4260164793576391 10.682960055439038 -0.5287980158507215 -0.8700219719007791 0.08836495899865426
Ni 8.425245436511688 8.413363361095987 8.038967796239463 -0.9654718627706729 0.4856790731740603 1.5636256435073974
Ni 8.81467265318854 1.7911907303820604 7.761887714578911 0.4350496810529669 -0.6253036016786392 0.8297404986729129
Ni 3.969678351709563 4.175107865774512 1.3231333746076968 0.779084109968626 -1.4370885443143961 -0.6149672527496377
Ni 4.984585731517209 8.07671680090248 0.5429447329403164 1.1240775603634447 -0.1352060877219091 -0.03883059971395248
Ni 8.158725159123206 4.2036560670630845 8.133849933233613 0.10837534068231013 -0.1818772665262029 -0.016819128439867808
Ni 5.294245104966712 7.824989431933387 9.13057149359706 -0.006813937598039878 0.517431940105625 0.16877903858134805
Ni 1.4736620071402429 7.1779580856490774 3.921665217294097 0.4904225013963166 0.9432477612651496 -1.173597007249811
Ni 1.2272788173766669 8.200991923526967 6.95523895813728 0.7680381365671095 2.0682185228668253 -0.044650034609206975
Ni 8.163702040788822 3.1196692024391233 13.611585870207167 1.274481953092347 0.3464787766910936 -1.3686378077411654
Ni 1.557754778899889 0.4382832989463824 9.168538122052466 1.8465498353752974 1.334135917309554 -1.2199411417319894
Ni 0.013729582041387097 8.869051053970438 3.130620178591182 0.404570024406871 -0.6101106959882847 0.03539123501510033
Ni 5.878890964099347 1.3016565692060111 2.717344332648754 0.5270152129186859 -0.4824654513327691 0.13739049696773759
Ni 2.7993306530170856 6.891631288421595 8.084554012160053 -0.07901668501453488 0.6394171582618858 0.1789932601101885
P 3.259132078338392 8.279566049749645 9.801992314774445 -0.2783180605544562 0.7692336995371075 0.23627203922699952
Ni 7.326869690762223 8.478136282257 1.828151881821996 -1.2469917180918784 -0.5888916387085084 -0.73761915795562
P 6.878555496001225 8.70221532891027 12.665396187139036 -1.642859586739061 0.5977819992196027 1.5122930546716922
Ni 0.9835768996543466 0.3041131805970434 0.6002679417483469 1.5439531047791344 -0.4754064876034586 0.991669347101647
P 4.971317107888394 2.8017823640959048 13.264781696547779 -0.6381873996198428 0.1434834972393529 0.06403281001119294
P 1.5180682797139107 1.2671856950865845 6.331340929159596 1.098921115702475 1.535618359661194 1.5694941864730325
P 7.864345363333458 1.419458072689796 3.7486194090781044 -0.320600366262435 0.172661918575522 0.04327372308697064
Ni 9.128399846892412 0.39770793971385077 5.345867855955525 -0.7209434970721519 -0.585247871308334 -0.335916427794215
Ni 0.6109526271839796 5.089045151864199 3.482652832731017 -0.4749814842508981 -1.4015096187685216 2.703771570187614
Ni 6.7024179607431424 8.66494381104912 4.261937922450248 2.3227268825961933 0.7771218440359325 -0.19734965113018915
Ni 3.571481906267648 5.44952013995859 9.849836492321558 0.06393459387043182 -0.8855894873217329 -0.423930945431986
Ni 0.6980875408178311 7.656326401612228 9.616192099485495 0.640255337892465 -1.67135795128907 0.9155497811292489
Ni 2.854158993285359 4.660096719894324 7.498179099858348 -0.28897605448893454 -0.28024510237383987 0.5281177019542453
Ni 7.1943579208055235 0.3454176254462726 6.547917005316599 -0.8456332586437694 2.1655859424744057 -0.9778434969621482
Ni 8.60103403910687 0.859764571930131 12.537103747671916 -1.0424393785656627 1.086298027621826 0.0668849347480074
Ni 0.8864312915705752 3.2030732913114606 1.914755132266845 -0.42395717068423117 -0.5485083497954554 0.8532838332104918
Ni 3.612031554672387 2.9896091435612426 11.39580102019072 0.5759103959574919 0.05452898428581577 0.4827387595988137
Ni 0.7260958147227528 7.431540307194654 12.751946179440601 -1.8617301426601616 -1.8049108196782724 -0.055889097858136005
Ni 6.381528465011257 4.687423656862735 12.918756193672976 -0.4436201963307973 0.33112723393568777 -0.21794367323145694
Ni 4.695210364708573 1.2782780807915037 9.562891716983199 -1.6139107649151947 -0.012051274737579245 -0.3171023804115055
Ni 1.478831720014307 0.0018750539411792706 11.771916455777818 -1.0642878418993218 3.9085041224999655 -5.006167711646255
Ni 8.711452862038705 3.0398554470192884 10.525691513049363 -1.3606681592721277 1.524347157622749 0.9238914682257249
Ni 6.347617719640175 3.478151601379567 1.6615971393798505 -0.8761157435033428 0.2550755450867478 0.2585341930593095
Ni 8.10451204223426 8.044302793006482 11.028702739208121 1.027079608280141 -1.9975535522510952 0.05458194901093826
Ni 3.6639215146214763 5.746847498506018 2.8914259199272596 -0.623143875023159 1.7926847099257255 0.06849495954760461
Ni 5.353839130815162 4.240275631790914 3.880056833730602 1.7213494527158482 -0.4042434943053877 -2.807131202822888
Ni 0.6993032956748935 2.4862829597620233 4.466526325148831 1.0486316234193038 -0.251336903979922 -2.520580727056311
Ni 4.151022329595701 4.979902687883509 5.376912762271554 -1.3715377549967798 2.129694113673803 2.608622498387591
Ni 7.687666064204024 3.7357098187945397 3.6187944206257585 0.4992429279014241 -0.4770481369719397 0.4340556925708138
Ni 3.220474012264128 6.14497966687845 0.26935305966494677 1.0457185635375668 0.008933812154520097 -1.2628999046817024
Ni 8.58677371212033 1.3728663797537353 1.6371645070258358 -0.9582797158976077 1.2739510202895414 1.3222124263990906
Ni 8.213379033060026 4.952281912883181 1.674929121834298 -0.27048776587675993 0.8210583975178827 -1.071152687339955
P 2.2074123025944696 8.221230017975346 1.9383016593058557 -0.32815606712250583 -0.4174214264482424 0.025195268318704996
Ni 5.859681302762683 2.336223549836697 4.991685592963437 -1.2089167655970277 -2.2449821223155464 -2.152813473300086
P 2.90161383544018 7.685710204804067 5.796867913977026 2.175545624790279 0.5246148310073093 -0.40261341490113245
Ni 2.4824630653470843 6.854433230068426 11.428525394507933 0.6528899959373401 -0.44749973389086156 -1.291305195297273
P 8.382069610696679 5.062259978767137 6.128297930860133 -0.15194602618440928 -0.8172462228606441 -1.0459494486014504
P 2.66287961694498 4.221616916764097 3.9664185860429684 -1.1432747021171858 -0.6149628818742634 -0.36806447328166936
P 5.798195694583757 6.1553466399420715 1.8941524950101165 0.4933435316978535 -0.34066139867836814 -0.6198896297519195
Ni 1.1141511750880841 3.356199635694935 8.866299077152751 -0.16687333691820294 1.0099252079880414 0.3748395872219738
