# total energy = -381173.8056532135 ev
CRYSTAL
PRIMVEC
9.23540894981519 0.00000000000000 0.00000000000000
0.00000000000000 9.23540894981519 0.00000000000000
0.00000000000000 0.00000000000000 13.51695452750637
PRIMCOORD
 96 1
Ni 7.294033781526254 5.035145060950524 0.39970943094725747 -0.8841607252950063 -0.16699932097310594 -0.8430906947275739
Ni 5.500757447951407 2.7556244363649545 -0.17096774100757203 -0.4011100908827286 -0.44038754832611254 1.0534503849641856
Ni 8.432907494541983 7.240782412448044 9.758133293104041 0.03378172443613536 1.094936162912798 -1.186553053189847
Ni 6.418304581022748 6.048195559897304 9.839802016093742 -2.514795744943417 0.5658365566612578 -0.25897050926577986
Ni 8.703606571727457 7.425389005667669 3.319358427731335 -0.38135424841203996 1.278045244963573 0.9843702423370724
Ni 6.305337056471122 5.435259926358852 7.0353047181219575 1.3205023856865192 -1.2154283414633003 0.6116034784837273
Ni 8.30175544940156 2.3745622200042074 10.319424518753946 -0.034770570711965924 0.5972394964525714 0.5312048255200014
Ni 7.865299249043048 0.7284669076662345 3.6189347822032736 -0.3893652916419746 -0.15219259497757662 0.3754461104577212
Ni 6.804621745181883 7.630692150761084 7.67235862261909 0.21458041318617885 -0.21604542776747954 0.913562318385575
Ni 6.120711992433224 5.056626622600874 2.3944340498421517 0.6557359500265675 -0.5556835273876559 -1.5268300719456025
Ni 1.1567442296938995 6.106646464319086 2.676505609837704 1.3463352875892232 -0.8055235351070771 -1.5867452602439964
Ni 1.0897782780487193 8.85693283420343 0.17456585640696 0.789879400811917 -1.5973076091408749 0.23048962821726754
Ni 8.229663845685895 0.022291507031577912 1.5076408291937102 -0.9564534613221464 0.8439867241792819 -1.695421419996177
Ni 6.172559579322762 1.4035235972171183 11.395495602563008 0.32558085019616184 -0.387804632023074 -0.7825183324611555
Ni 4.016996616160667 2.8324076279217096 11.349402599106114 -0.179885947127787 0.6074303209426442 -0.12795454836581835
Ni 8.272553085713508 6.9756061099258995 0.9216171778775795 0.9633054512469733 0.01083102917723296 0.08170477336965928
Ni 0.4730644386327267 4.8175588217062195 0.2165047728344773 0.21859827609632032 0.28661758155908706 0.5915437316193747
Ni 1.6551607899458765 1.5146532753506798 4.437535588873273 -0.10860236909145166 1.512422895381337 -0.7294286517250277
Ni 1.1201258324696355 0.9384376285369874 7.308536144492525 1.0272582999498503 -0.49283856703697704 0.6627656031798391
Ni 3.434270005906091 2.0123771799174563 5.831552255925787 1.076886504499939 0.12134501346910072 -0.3962095682573176
Ni 4.0295290663582275 0.8474115890106841 10.01669888976663 1.0323408566790802 -0.49624116496062276 0.6906314763521718
Ni 0.48061530914232525 8.85133617626701 5.1407279523569995 -0.3607432570299078 -0.9496490368058033 -0.07661424622062935
Ni 2.6991776157256857 9.15035101786348 5.722956774059146 1.3617559930196677 -1.9961828971558138 0.5524660488916228
Ni 7.853099273574384 4.699576469993742 8.760379402309228 0.8109603898519324 -0.603383147456464 0.20638990695558646
P 6.695311442648115 7.760523532395058 2.4852809224312162 0.3664433927384786 -0.05223170361120682 -0.05946036014916211
Ni 2.5658183078017576 3.8880887754402944 9.466261116933358 -0.8226134007098285 -0.9292185368655933 0.5865210815938028
P 3.213497550509865 4.967403334937919 5.98880818498913 -1.4159527907770453 0.1355840398866181 -0.5038688567092097
Ni 2.346671284413469 7.156139887716547 7.04309016802361 1.4562987986942595 -0.022787173097844626 -0.025960171509187547
P 0.49676619263937266 4.212464050524236 9.94227442170321 -0.7558187116827821 -0.27537337610383544 -0.4534438672894384
P 8.584469793872978 7.223687670137296 6.122342042145729 -1.41940526810202 -2.4130417662323667 -2.172831825403542
P 9.165247732799857 2.3781270879307055 3.1806342706403012 1.4705105714182676 0.5018235441444067 -1.0053779549369912
Ni 0.26715914486364356 7.916869773658506 7.746418292021636 0.20963463914512928 0.5768172240424776 1.1978075430577435
Ni 3.3980117896381308 5.4226997699338835 8.21822763855278 1.4037449358569438 -0.03763657940585131 -3.3661867320065704
Ni 1.5340106928997486 3.6836168171691193 2.216834361534014 0.06854638161083033 -0.31282637874397096 0.11032140866508743
Ni 5.63158625377207 1.7350932560180095 2.682534484921689 0.037660747775567396 0.2181673592064888 -0.3442858828048329
Ni 3.625849333023401 2.143141337874167 8.153413537236288 -0.5903324849200929 0.06809695277823756 0.5870371019982729
Ni 6.320686306455165 2.44517615825811 8.866784245128809 -0.4522699015859952 0.2660163603689677 -0.5006765750241571
Ni 8.396640042864886 4.979012244221878 2.923892667282072 0.07037674995134975 -0.4591751133462609 -0.5030430183738046
Ni 1.6767901181424028 3.207540711617141 6.69231178176074 0.1905244006782396 0.9176614281556131 0.1787510621923954
Ni 7.991057815248043 3.1779874023819215 12.961664913615241 1.3981458445026114 -1.689067709864007 -2.7814849630096936
Ni 7.230124750305092 8.766804476445147 5.528840480052174 -0.3317820939108673 -0.4111021690984339 -0.4203437423013599
Ni 0.13443523308827274 7.792865935189352 11.719375859717259 0.7410220129895819 -0.575308757817751 -0.18236551901653109
Ni 2.95986550940773 3.5440513143057952 0.07895905394919771 0.27073741999372086 -0.7393981042329137 -0.17815199515581576
Ni 8.19441228901376 5.450904709435246 11.142039034234456 1.89700593514332 -0.6830235820979269 1.6972882980015864
Ni 4.970848142545649 4.861741019012873 12.643799678431272 -0.922929875643404 1.9638782714858374 0.7878700836913721
Ni 5.492159282045785 -0.11156466590386724 0.928129988400291 0.41177862634016826 0.1424990218388965 1.1849682252012301
Ni 4.70827622539986 6.631402411426953 6.1311960288844185 -0.8256802125606103 0.11700884798759204 -0.5168974077583937
Ni 1.278568511606956 6.448412014806129 5.226168416437847 -0.7911677806060373 -0.8543796373778318 -1.1810051267884243
Ni 2.3473731755078053 7.88799988469935 3.4856844521071504 -0.9487062132765597 -0.6377755088934048 1.533610842312862
Ni 3.5292654242790498 5.475747960011102 1.4165769244899495 -1.0494268656270895 2.496421613311604 -0.8538322495147941
Ni 4.12992719907575 0.4696547255797132 12.597869218175171 -0.29978522928929663 0.7333051039612983 0.21178845226333845
Ni 4.784274407180054 6.761030614059934 3.2299984560131674 -0.42165886156835763 0.2145045656429209 0.7185603415519561
Ni 6.845035895561046 6.327889925581249 4.473733774981849 0.483740975611083 0.13111109171692906 0.862419991183805
Ni 7.71170515970213 0.6873342424562905 7.5089389814983765 0.3359313401925505 0.5516726064560499 1.0655654230601648
Ni 0.8157064294467752 1.8242149541804682 0.7919815869172891 -0.661327585181732 1.8169759783729225 -0.796947620512608
Ni 5.295038709446871 0.41287820083428856 7.429593887447293 -0.6621876191891822 -0.01394977731187275 0.5364951273846631
P 4.895265554176575 4.093179506123582 9.314425449491935 0.15561756149872555 -0.2327203173199992 0.3397638265647632
Ni 1.5093429150974762 2.0033911268281224 10.112763768517539 -0.2298679354728686 -2.492800728729565 -0.19792943489305911
P 6.853144584782459 1.0626261751888613 13.42793209112387 1.6267552249780304 1.8205384989132 0.4108797686749827
Ni 1.0013677063897328 5.327408818468572 7.811231469797213 -0.7163581916943147 -0.23341117273943673 0.7896564861678337
P 3.5928512161804513 2.2583068898001626 3.6539305180423414 0.6970947154790124 -0.18110619268813324 -0.4523447206879887
P 2.2010842947934686 1.4583542212575866 12.513766964878133 -0.2636062082655783 0.7643141507483031 0.08622425850656763
P 0.9509793141436836 9.077197342097175 9.46805925109214 0.6005963287399463 0.38799360810542854 0.9619245117390466
Ni 2.984357814436418 9.003858958148152 8.269659632031198 -0.9156721656397263 0.3635974386492512 0.019229794763889464
Ni 0.8036015786922119 4.042920409605436 4.610308852366934 0.035253680995971544 -0.2562140295665652 -0.6615304452211574
Ni 5.265679343803507 8.188464685530173 11.111963924383051 0.4515813601594029 -0.47813262828537 -0.4591897686342801
Ni 3.0284384222425746 4.871447434014816 3.753793920570889 -0.12730508770727753 0.4379653120378651 0.9715715479105074
Ni 3.2140147334214815 1.3395037410863242 1.4612910813628366 0.2754227412845321 -0.20999407936707704 0.125172614745307
Ni 8.522675671343961 4.452141388421866 6.390343456322576 -0.7119541490893481 0.1502329001480445 -0.5254465828799854
Ni 1.9010997352377188 6.9696308002149046 9.472506100591126 -0.042312387614965835 0.43998774178453254 0.2139795463773863
Ni 7.467437823463905 2.852725528020923 1.5286596968463466 0.24984797813922133 -0.4557668589956603 2.187983850553632
Ni 1.4893020772723429 3.645179044345062 11.882268158976308 -1.2192063204484938 -0.3451844833597023 -0.5768236518003808
Ni 2.2929119678327776 8.675124569952013 11.34641586779153 0.2985495571099826 0.5041398509824092 -0.5675334847477065
Ni 3.7963257502649377 5.68892890909753 10.385238814879868 0.5017952620096326 0.13522074300992842 3.254902702317897
Ni 4.448068572992888 7.2956869197616 8.924271896377705 0.9518987520719283 1.769205395856863 -0.8271714523941561
Ni 5.656697331212869 6.737249435534719 0.820817304862641 0.22715207920360236 -0.0338881681070126 -0.5283611854236191
Ni 4.197151742176739 3.538851778962224 2.0194736682975636 0.9990239876945053 -1.408682225257561 0.8309103506112981
Ni 9.015126157294079 2.65768292247761 8.084355765421803 -0.19949703649049513 0.9046400761952806 0.022171393890716654
Ni 9.243443941954421 0.9502312460036672 12.000298534816292 -0.05541987153120133 0.5663782880973407 0.057633334242752354
Ni 8.960942011893131 1.7706126395550887 5.710075225396245 -1.3813408571301307 1.4628443131222613 -0.3096418103684022
Ni 1.6782954898315718 6.134232631408337 11.847502384824725 0.7926217394437447 -0.9074744603202823 -0.36212908163384083
Ni 4.2389327331080295 9.108394554158604 3.55179612840725 0.5753241844367188 1.6014257450743066 0.1594932424040479
Ni 7.477966189878952 8.470301666133672 12.552290627007153 -1.2391205428739176 0.11488048879067957 0.5878274591100522
Ni 7.4724618860338925 3.1129424158370305 4.190634313949459 -1.0364042281151764 0.4227500377500074 0.7796926900869023
Ni 3.6096781316262545 8.035156893872472 1.6111937776720924 -1.6173133628388403 -0.15617497666409233 -0.8687731870953425
Ni 5.4036009438406225 4.39640569428607 4.273209954116317 -1.276533436304737 -0.8438255160110694 2.4134911950649593
Ni 1.1375438141001428 0.34165103141375514 2.522939226724195 -0.4217287955743447 -0.7025164007152159 0.28679241657405447
Ni 4.710437311137685 3.6644071661662267 6.789458126921475 1.6634757203275157 0.44280592795961804 0.41900085512022034
P 6.489805118553708 6.570928952404386 12.078629580944241 -0.41349046682495244 -0.8747641145714549 0.4750444762783496
Ni 3.7985330130484436 7.247736675527455 13.00498637079042 -0.6438006320415622 -0.5036330865493197 -1.6758398983198233
P 1.7343082462414487 6.675048955003718 0.4019942711675053 0.18021684810464447 0.2705967806507985 0.7239239198567146
Ni 5.675214326530562 1.3062100911510222 5.015668506623601 0.6543298137076602 1.7665630731380093 0.380032701387139
P 7.025809793989229 2.807416610799677 6.657681768123458 -0.006585109416685433 -0.10223528922284329 -0.3001143304939412
P 6.593925121153041 0.22565152204277775 9.498337539944535 -0.6301951254429857 -0.3606247291741725 -0.4501927073419924
P 4.99036256205003 8.60971940245082 5.526677547232522 -0.47034372836857063 -0.24536063179182904 -0.026531470631625278
Ni 6.46517428238798 3.9074646638076356 11.229116012814202 -0.7258211368794274 -0.8898418348401836 -1.3958832737206799
