# total energy = -340857.62724861247 ev
CRYSTAL
PRIMVEC
9.45570593178516 0.00000000000000 0.00000000000000
0.00000000000000 9.45570593178516 0.00000000000000
0.00000000000000 0.00000000000000 13.83938142857253
PRIMCOORD
 96 1
Ni 3.1276922860608076 2.832929558651456 3.085462156882259 -0.8833438858206658 1.076456873161688 2.176893397067425
Ni 9.002201014983223 2.90119030125461 12.984620109175918 1.2915921304100721 1.4725175745459673 0.947363583205736
Ni 7.128723046643001 7.429215931971388 10.5085054038874 0.9739235930824516 0.02805382081342265 0.560296600679635
Ni 7.363442040082271 3.193267608121048 11.25720254239303 -0.2429268255393558 -0.11206950170444571 0.1401909425310102
Ni 1.632527664556655 0.9841120719165852 3.961122007260283 0.08378942381282989 1.4523069039260472 -1.4551965667690163
Ni 7.621667918978173 5.8977319431949375 12.463193704385423 -1.541454763837313 2.3223134492078583 -2.8318333335552586
Ni 2.6874062412027047 8.053831512264576 4.96406133566629 1.3690571546667714 -0.8796309557454528 -0.24870717966655875
Ni 8.826268146597812 1.9996265439142167 1.4297746312841986 0.6643805130754428 -0.2705204188869083 -0.10342108200082835
Ni -0.10333857565966009 6.642652472669442 13.8137096612585 1.316044864135798 1.111503580353176 0.9761103163211254
Ni 2.2719697920726922 0.647625095607015 9.203507325216714 1.4846812064916948 -0.34378760301217565 -0.5530759145614798
Ni 1.6626440886030665 4.023412417008522 13.890587388864322 -0.7224079974328204 0.668045620631856 -0.4186889803067563
Ni 7.80354842652377 9.320158589546686 5.637264116373947 0.23805124261460936 -0.5328757854645209 -0.05990798920954199
Ni 2.427657993618741 2.7063554763012947 10.512477746035563 0.28074595326965845 -1.6963076792558724 -1.2660873012707488
Ni 7.850155602073147 6.5181775570817 3.034062829462641 0.19450292571001343 0.012092412388159819 -0.3263637511087734
Ni 2.329545586741012 7.514553679858001 9.40774868663514 0.6560046303069218 -0.3578533370766224 0.32912074502862027
Ni 6.6591621355846815 3.4308044019891493 5.613557715517822 0.5469677447812128 -0.5841793208345035 -1.8309650935631627
Ni 3.184284687290878 9.137427068448758 2.57638112202426 -1.1286482104532627 -0.5286697178029733 -0.6445691347764706
Ni 4.945192474069866 7.058911568233376 11.721472040297073 -1.144941034076015 1.412145501215813 0.6352013204083253
Ni 0.4486269232415694 5.127886172343246 2.3344133842603507 -0.16407597667872387 -0.1687697826099674 -0.39594294485949233
Ni 6.247574158852436 2.223376918234542 8.942025846697835 0.0966955903515367 -0.8057071118727931 0.5974850368044743
Ni 0.8753052613978859 7.422927887390268 3.4321386021250833 -0.6174185425036075 -0.10746337039100202 -0.42971258511076965
Ni 0.8188963008668741 4.096363189855638 11.276950784660198 -0.3911583789866554 -0.21682652890787818 1.8912579769159494
Ni 8.462100536142728 9.237326603786384 8.961470560798004 -0.06701426123702006 -0.3069472942553746 0.4200400950180121
Ni 8.301523734523839 3.445167619611284 9.076627823558328 -1.1656217023538185 2.3701830191956277 -0.23598716099672903
P 0.7639378456572813 3.015471965626644 2.792441170543346 0.8105171316669267 -0.6043154294627463 -0.05206458190572324
P 0.3156957696554888 1.8241191823049723 11.295205025357717 1.2124720870484538 -0.6249302774996206 -0.46356218667036286
P 5.469388455187892 7.7121022924726415 6.893368629751325 1.5033260752863917 -0.836618713849985 -0.40219252531362987
P 0.5721307378090402 1.2783736469006752 5.799919282201753 -1.096196003461828 0.9647154442206224 1.0112392988137748
P 6.790577539476997 4.089602359967668 7.5061068975658 -0.13217732819791428 0.9902526692597783 2.2005645154321196
P 0.5683181970945934 8.802108817417723 1.8417729856627902 -0.8107225628095134 0.6697626033229627 -0.49051428977917455
P 1.56049409520483 6.579488355674144 7.498550842791707 -1.4527709880466593 1.4807821285476046 -1.0727984504734942
P 3.29762078104921 4.4267455622831475 5.170185328176595 -0.5613744071248461 1.3752275451435414 -0.31832493996469696
Ni 1.0471627204382403 9.115414184561773 7.486413498394227 -0.19947723899615324 -0.5290715812270824 0.4809580135493072
Ni 9.440898501210306 6.745464365497271 9.136565653619675 -0.44658030740038573 2.043414833559584 -0.053892636253397505
Ni 4.149891942297313 3.586927566017501 12.811088044578698 -0.21176736921741593 0.6814986608129683 -1.6497912808618875
Ni 5.643619296468639 5.615583127772372 1.5406002350631518 -1.4117814330081753 1.3292163685207496 0.6113083158408117
Ni 8.152010109085264 0.08917392786640282 3.1989315760971233 1.7383467586047932 -1.3210700852645314 -0.9163563361909444
Ni 4.888278578831137 9.103878223074608 5.154588140903579 1.439971779399462 -1.3415242393538251 -0.14760986070290064
Ni 2.0951764544288127 2.055386843004229 1.1030724196852175 -0.37010978584647225 -1.3920428169286672 0.6656928041289633
Ni 3.8920159245284798 0.7884593283824176 10.928157206813296 -0.6080823527043463 0.24191792465886724 1.3080135091908893
Ni 2.0892004481502155 9.072721671353126 0.24573583665951235 0.839435871583806 0.01077240802515564 0.17516745860619512
Ni 6.147693534927085 8.568080090526458 2.9235558829805055 -1.2540468251664467 0.10627140696542989 -0.6247896381566982
Ni 7.457025163720366 8.220639624227761 0.9613814999338007 1.0833679984592246 -0.052154827626684365 1.067083145256272
Ni 4.406264502790361 3.0053543600600316 6.31683342402366 0.11646017457297363 -0.8535252597973365 0.6759106252022294
Ni 5.8584529399017535 2.3537238273333747 3.414161413617379 1.0155327839828059 1.1244256877314829 1.2915178255287112
Ni 3.470121228106882 8.128550502159316 7.323358356196826 -1.6249271706303565 -0.37868904287505106 -0.8607958253168209
Ni 1.1564328605576537 5.74375522445969 5.060563435788884 2.3682096975193407 0.30886302322084874 0.3904281856888501
Ni 5.084021151573606 4.702596877418458 4.140327495539717 0.8378050208486022 -0.3272700649731267 -0.9974239901972369
Ni 6.106674681704689 6.83014966966043 4.602618859719895 -0.008622965782320632 0.49772083482994284 0.9242951314220468
Ni 7.766340222874594 7.091685045704291 7.589253758340466 -0.22476378147708387 1.2463846806354988 -1.8456849162718405
Ni 6.292469851591012 4.22792042934001 13.681806342929514 0.44491988897882734 -1.3017050504743584 -0.3223428028748384
Ni 2.749747711764083 6.0973040769229 12.96217226280663 0.8548280377691602 0.013794482680931081 0.22941336443395327
Ni 0.9966597939604119 4.719484768579177 9.091422221380311 0.11818872722830613 0.05840055142608007 -0.0802238179487586
Ni 5.8650908456099415 1.1305242257422166 12.03858711144373 0.9126626893894412 0.26779067866057105 -0.7996200251384487
Ni 4.446271595456095 8.915974430719729 9.222107644758848 1.7153281862224328 -0.440044563164397 0.010613513849788172
Ni 0.34357591920049485 0.6518442316853537 13.259968380744738 -0.7946122875112122 0.6025879052486783 -0.5213407882417279
P 2.51812073423162 8.306421790302815 12.070363011917188 0.34389456090368514 -0.24065011369003717 -0.18680350018322667
P 8.313504114199445 4.87830280885658 0.12030778589315777 2.1062986175679983 -2.6019949657687444 3.1413905546296546
P 8.723078025524503 5.384646416787911 10.625517876191806 -1.4252450147122486 -0.09971689367636374 -0.6212795681209107
P 4.980670283495968 3.171424926944529 10.73608061134015 -0.03928877029729363 -1.3178294668400465 1.719307482585155
P 7.019396172286767 4.3067715628166265 2.385078948883736 0.33392099463074104 -0.49142883117364394 0.9732332518836465
P 4.439312195739248 1.2913185086022565 2.330856147611603 0.19686345552238999 -0.34675594161188017 -1.521995883781753
P 6.187492602057806 1.2572212322721592 5.590210631494903 0.3477977526128333 1.7270071652222578 0.025315595946653176
P 4.309636641776144 6.297765047027743 9.747934735185511 0.3949893226969714 0.9523654072957017 -0.262532001364793
Ni 2.3023320644786662 2.9623876313734088 8.173884939662647 2.7835508443997865 -0.3745986748557613 0.5445326529771589
Ni 4.301249430432606 0.6567838925713334 13.683121631653174 -0.372220661541888 0.29219481853654833 1.0894268030587946
Ni 2.4857538521245974 2.039236496922197 12.5974079972943 -1.3172604817104538 -1.3417597524033988 1.225168965789832
Ni 0.9845470343988882 6.6119403391364 11.530613339774375 -0.6766043088351444 -0.20901166084914968 -0.47854709011496943
Ni 5.200146678642359 5.475336094348078 6.558317029633353 0.08443194249283523 -0.033819519652606274 0.4911223556768187
Ni 3.061114659150044 5.378140890965641 8.188831574353436 0.6231104506820623 0.36006859956038634 -0.7177751266464992
Ni 2.87538567920668 5.638607772216018 3.3190852339802475 0.0827031327271866 0.7568345545418061 -0.12040141860890875
Ni 1.9303067622237167 2.9450174991997016 5.8527019794292165 -0.6688840573727513 0.13412699572511738 -1.0641263766207931
Ni 0.8303603989873983 8.859731890616729 10.633862536857727 -0.7339077705423037 1.2194868278033901 0.7510374882440549
Ni 4.01757824632198 7.726758636985024 0.6027303484390535 1.4652858326842184 -0.42316809912403247 -0.2227943164555389
Ni 6.327153381701604 6.027019813206425 8.993619016093263 -0.4995776855330235 -1.3813791665672337 -1.6488510284358053
Ni 6.6279961281570605 1.2104911325430021 1.5021542794806386 -0.8625336339435339 -0.6061853927919496 -0.7857309258611823
Ni 6.514811325696921 9.553761809661788 7.713379758371754 -0.7974443576433685 -0.5000780222082096 -0.3418279081826436
Ni 0.7004493979414821 8.841264896531127 5.265982032621367 -2.5477932829153604 -2.981375378283866 -0.39158055412573856
Ni 3.2625779341054106 0.7733160150039786 6.014456962032779 -1.9223994355157603 1.3980777102688373 1.4111178312822472
Ni 8.396657593968404 2.1805236580215634 3.913099312502195 0.5091897547014909 1.1186090810497056 0.9268744621134489
Ni 8.29488582881565 8.43549217907315 12.57723046596851 -0.6638747770836179 -0.18654638986709807 -0.9157143317315714
Ni 3.0454370983748635 4.7841050643195775 10.64936233035753 0.8212676853152114 1.7679455553078327 0.8715821172990474
Ni 5.894337344691747 5.095405821762579 11.148992386931578 -0.47628246245050876 -0.7572004225216572 -0.07477282213651638
Ni 9.083548454880013 4.686550544103934 6.167202547828986 -2.4433337323476887 -0.19496443872746422 0.358466288070273
Ni 1.8559565448683215 6.950738290025857 1.2970543399449734 0.19190919684090818 -0.498574955300122 0.3929537803241813
Ni 4.779859452264055 4.114688348349184 8.830092979730237 0.6647731205281713 -0.7027300593879188 -0.5378835230917575
Ni 4.438045131116888 3.179055681797105 1.1906199660960528 0.8384506248524012 0.5658051892026901 0.04953384506406953
Ni 0.3216055859911268 1.8315040887979857 9.079658377375242 0.275908422671699 -1.615263422288347 0.5185033187929329
P 8.736646963831127 6.824031827789778 5.133455583257951 -0.9519748567255024 0.6614365999557704 -0.033245649427007265
P 3.1003085610879952 5.0746694582040925 1.2303433875776775 1.0123273896716307 0.15738468070147735 -0.4730385015919144
P 4.147546927175332 1.8319863298109735 8.391162883132182 -0.13311295263830622 -1.399542467739822 -0.504861302529466
P 4.26816391465917 7.640172735888324 3.5857011609315292 0.6518258163388839 -2.052922001719071 -0.05528488861523382
P 0.44669795918961713 3.366581245906503 7.509816371083354 -1.557874857066549 -0.2309416281530216 -0.45019245023167626
P 7.286056541056891 1.924595515716956 13.366891614600943 -1.241656421921894 -0.7210357996756421 0.9991245178281115
P 6.672267744290592 0.013037527621724389 10.292860460867729 -0.6292944680055872 0.7251361949972609 -0.9594819637358251
P 6.050668534255114 8.051713434089883 13.320335499864708 -0.6987201668975773 0.4481440523430798 -0.41634799087840557
