# total energy = -381172.12800132885 ev
CRYSTAL
PRIMVEC
9.26080463916268 0.00000000000000 0.00000000000000
0.00000000000000 9.26080463916268 0.00000000000000
0.00000000000000 0.00000000000000 13.55412368589349
PRIMCOORD
 96 1
Ni 8.652601024533299 8.47846085953148 6.102635768454792 -0.14437438448473844 1.7189871231312586 -1.3951767345719583
Ni 4.547573541008989 0.16653519246940562 6.225734084199855 0.13587380321289502 -0.9918529238673627 -0.0636564005083807
Ni 3.457169393594921 8.476617959465782 1.2556326403896552 0.19259568138497155 -0.20615490812664494 0.9171778036509753
Ni 8.594507998844275 1.3841012965774198 0.9618688134349812 -0.040241106908233924 -0.5814773485223083 0.10168995824233457
Ni 6.655610435252978 7.772806089652275 7.119953647936804 -2.693722927702361 0.9084625352651645 0.041323798449451415
Ni 0.3837529149867772 5.281019984743248 12.748588110850909 0.49179238516064977 1.0267625912603542 -0.7799315455705859
Ni 0.536576560535225 0.0983182554647047 12.37796423819146 -1.1392694376125347 -0.6792797987847786 -0.17952599268520694
Ni 2.759793782804826 5.104786877958277 6.810580735249809 0.5165793622973426 0.4431306582888885 -0.45802403046095314
Ni 8.531830875001884 5.41821880119198 10.379286330358525 -1.1803821484924446 0.7288910340540027 0.42021878668772145
Ni 7.930934323932537 3.828333171147989 6.4551779206204065 -0.7602443515543036 -0.5435954858748704 1.4964694573758743
Ni 8.1935336920878 1.6509606347337908 7.732057624430806 -0.017956070257788427 -1.0443926456372918 -0.008068893051063524
Ni 1.3531239060258837 0.2562131174753411 9.707802076370818 1.0253909077238081 -0.8937643098230413 0.45341198561023843
Ni 2.1699083281079083 2.2469119162801126 11.740472692651723 -0.022476069615329036 -0.5197058237414662 0.33800519200244367
Ni 6.782029675438035 5.418811492670396 2.558326836326334 0.48188052536357656 0.432396559700836 -1.2499867961644602
Ni 2.312700670384182 2.735845342755119 2.085274763231546 0.3175068149387758 0.6543627238281247 2.164924140520691
Ni 4.3854539000537756 1.4279049011540312 2.206814485604465 -0.6046769265672232 -0.1044772911794846 0.1328311597318293
Ni 1.8760815276836533 7.299014078289903 10.932783306522065 0.9681671502146488 -0.24385859332500584 0.9857262421443347
Ni 3.1110746134179394 1.7144527093590018 4.890775245906958 0.2619779286335359 -0.011328023418309522 -0.6278734192883445
Ni 6.5913034098449454 6.6858562222608455 9.694342423328187 -0.21649897036513036 0.9785868028860759 -0.3851959907556334
Ni 1.7262880173186022 7.5258945240663095 0.10071495163054552 -3.0247275200172554 -0.40095171092799337 -0.333127037974536
Ni 7.9219883869302095 5.996982029864266 7.869985266181901 0.30226094452329877 -0.5518613254280883 1.5858973104214042
Ni 5.585117017191915 1.9512607373988606 4.2432264668428665 0.2605383679735319 0.010173855209208285 0.02952294915978141
Ni 1.069141340625928 4.19252356302533 10.660778665468705 0.7160321758134637 -1.0650902831959592 -0.948097118937651
Ni 1.1481267409290823 7.296448835484887 6.682413055203428 0.8651672149116392 -2.1624803069658887 1.5573439242637437
P 8.828093266970251 3.2024139267243075 11.666778915954295 -1.0186744149355813 -0.326708793153018 0.9422203484418998
Ni 6.404901939883415 4.2038217443326165 11.381749879662763 2.2015875573799955 1.4056177273996244 -0.6162129522312807
P 4.481757004491869 3.3853981598806 5.64462787202696 0.15044553037948283 0.2269204228087705 0.4335707825145953
Ni 7.075541608514383 0.05601119687109121 13.225015747131359 0.31718825525709243 -1.2325644869229548 -0.11728241336395286
P 2.7897247024647855 3.0385810369643003 9.762275979719771 0.12660986141246583 -0.004176499975192807 0.21735231950436115
P 4.307876142011857 7.182531681172648 6.431933301701317 0.01650185430976513 0.3448093594084707 -0.36228000538940835
P 8.536137149024743 7.493064972644726 12.917811714823188 0.9760743208768672 0.5222643284972618 0.16013833218721454
Ni 8.949613541654035 5.494435220994415 1.4964163317370698 0.6024698916135753 0.7153516048066713 0.14842721439787343
Ni 3.0298851416794292 1.9731254964697655 7.306620902983186 -0.4777922142268159 -1.9310013182521581 -0.8478906872193784
Ni 6.640431976922942 9.088034784276998 4.867841790014035 -0.24409179238173445 -0.7922535574710484 -0.8070111753961972
Ni 8.68848664139046 8.21084213541839 1.694428072112489 -0.09499094895560414 -0.9219420578088381 -0.396244278149995
Ni 4.457197351355045 3.298253990944889 11.59793780073639 -1.7224462853244529 -0.20405123152008084 -0.6524775909902699
Ni 6.339918875757817 4.441852198546706 4.539845399778717 -1.4263927551634468 -2.0578616051125334 0.9840074596810151
Ni 2.4549188427907405 5.263572629347406 0.7529626628219455 0.39520812357599683 -0.5962740472155086 0.12650033241779507
Ni 4.3224711696678275 8.167446006233188 10.497234712804424 0.21500413098715873 0.7577382973029982 1.0184584422700331
Ni 2.636930691490259 4.054111581206718 4.501487148160044 0.04879413868456758 0.6833879074158811 -0.6865207966179079
Ni 1.8681172359424512 6.831426805842188 2.4445810068945732 -0.34329549386710556 -0.03462530338335327 0.6302493757196888
Ni 2.857365617438902 9.188829378824954 12.255285436883462 0.5395981917900191 -0.040202797471130765 0.004406099487495638
Ni 4.850503712109525 1.0070291258489021 11.632934380375927 0.07224774172181751 -0.38939125978390354 1.0151455758467163
Ni 0.6042128451071661 6.829380168080787 4.518740952744968 -0.45026161290671485 -0.9522263106146762 -0.7198700615023151
Ni 7.440343213478839 5.656434471493075 13.254387314208563 -1.2126890881552665 0.555773773108617 -0.4048173645309867
Ni 4.733456405926906 5.8498648919564324 10.812314133132034 -0.6181423080435097 -0.812069306645395 -0.11534740112476909
Ni 5.55613996038003 5.263544846934355 6.9549733445178035 -0.32898807610549796 0.24909464491296454 -1.5377904276118486
Ni 5.9484924582864345 2.2535611738035812 9.709374560949486 -0.01635941519462989 -0.47026710949436434 -0.17952804956773596
Ni 3.7302149490572494 6.904225988839386 12.869463833551917 -0.41685912618686916 -0.6670925126899673 -1.1188294245906278
Ni 0.5185383658218372 4.738735064406539 8.359776243139738 0.7404494283155635 0.4647171262104125 0.275316554723971
Ni 4.368506628092845 3.3732294629643915 8.239402456034515 1.311384225435335 1.8728853879460323 0.2068053972264503
Ni 9.166408971493036 0.262160406029062 3.7609302588456734 -0.7315158732713596 -1.1211336472437723 -1.0211578434790671
Ni 5.789373317940698 6.945621784284936 0.9516865590518978 0.48013166099326987 0.3812498616236918 0.5207250090346
Ni 3.2520888812589677 6.549518660616686 4.643439535481751 -0.6881950989965374 0.4367131847983189 0.042619377332423374
Ni 8.441547293391443 8.558113037747852 8.406579422245391 0.38420380204569315 0.003955642213638349 0.9561212747937081
Ni 8.776140154565432 7.728261620727644 10.579629941269335 -0.313970262540427 0.41305775016290797 0.9388030952302348
P 1.2224261742310176 7.3522173992820035 8.968370374785001 -0.3442213481154846 0.3577363518827839 -1.078776008213168
Ni 4.090969582520653 6.984739421860328 8.615312395817078 0.34415552787455567 -0.20465106988760887 -1.3988894075368552
P 2.3707473920514546 0.38719052556158445 2.6660827775043634 -0.6746803523395541 1.067694810698342 1.2404356621409152
Ni 2.776370622591747 5.203349618657828 9.201040675441174 -0.11088705136057032 -0.011328023418309522 1.1752836509236144
P 0.6502631208191446 1.1800950375460932 6.340930155592863 0.3190682458886247 -1.4690766671852182 -0.46928366253517245
P 6.140348542010254 4.68004008643475 8.871851493605547 0.6179088518764649 -0.3829154222515728 1.7870334251772193
P 5.8938814950331 0.20165031040462664 8.559143765272033 -0.0290668354589693 0.4829089666280909 -0.9236310154754868
Ni 4.315988606622662 8.69556189591404 3.556656362568625 -0.26342725948555273 -0.23241692714696746 0.8495251374990078
Ni 6.689023417348626 9.195182290609216 10.519463421486293 -0.07507364120638683 -0.2956575802741683 -0.3800021052595197
Ni 4.8002453269008 3.7740463360469114 2.51599755180228 -0.24107100327753964 -0.024686447003086517 -0.053707259715468796
Ni 3.9242936258251238 2.831481669279995 0.31167700080933336 -0.6129113986618735 0.4054585976594114 -0.5108031219351976
Ni 1.6890410622219572 1.1707971899784575 0.5159212625124608 0.8866598375677762 -1.2543430162506268 0.3711138016309544
Ni 6.999352971125 2.028366194418917 11.923142058460108 0.20231727954810963 0.20775053474853902 0.19679840661240947
Ni 5.624688434180469 6.592618444062679 4.277722036967057 0.2966834504355213 1.4673208608363764 0.8127815022210713
Ni 8.804756040007659 3.222574697794769 2.4391597320279454 -0.8129000300768063 -0.28075649479261966 -2.901311482951739
Ni 7.694709726566743 3.492712360691123 0.2482460474928339 0.6736686232455881 0.3214025504487562 -0.41293433721116624
Ni 7.896011830727801 3.3655522561580464 9.371415397394188 0.8834580428010268 0.5956418129481483 -0.13458233809498113
Ni 0.7203322186938925 2.390834076687114 4.1293315384610665 2.654339797919048 -0.5890811290114951 0.9620535811177432
Ni 2.5712993710601433 8.804265217377097 7.6557485965848695 0.34216420847613976 0.3568200107161016 0.045795461067559835
Ni 8.662658258057654 1.0896447614573483 10.528503818692993 0.13385034502496304 1.3588007670460855 -0.4534394964140643
Ni 8.064012082445414 1.7780744352451163 5.2535107654208755 -1.2338585231440298 0.2610646727906471 0.029021069822698406
Ni 0.9896280744748105 3.378535903857076 0.3568891737276156 -0.7360803527135904 -0.12239428066922146 -1.1080796422732917
Ni 6.063937645316465 1.9367583177863925 6.855174286437497 -0.947391094009562 0.21671288614814935 -0.04490405960154202
Ni 2.670269587151105 5.112325172699368 11.873249475023218 0.9050709930851123 -0.47520928399098805 0.5726263258895815
Ni 8.721418061659895 4.350651797305592 4.3331849942206135 0.20387948182890694 1.385384431071885 1.0317757282042297
Ni 6.0876453044530665 1.8921305016226104 0.5796596745333882 -0.6581736129337826 0.7059771055703067 0.8789989785884088
Ni 6.406883752014366 7.4220068208653736 12.050063234240948 -0.7426909160515726 -1.2746773569326046 -0.7352874244986498
Ni 1.9382493072867806 8.850587760736973 4.853297696781992 0.33374770227767037 0.2820009087226821 0.28189343661054034
Ni 6.261415037280876 9.160120885339227 2.0351247294337185 0.5457109895559762 0.20991334672781264 0.6448409003806185
Ni 3.895890738882953 1.1270213678148968 9.34692334812912 -0.395528483029893 -0.9659917398298848 0.3890565021523042
Ni 0.8713203728201236 2.3855924614248813 8.76893524878095 0.6703835247364132 -0.2433315171769422 0.9643328640702231
Ni 4.181012383217988 6.084181763626078 2.390947058500187 0.02585835582400063 -0.05758911126837824 0.12951340821250598
P 7.880657417115112 7.289919968417972 3.6893507237814025 -0.8716142560885634 0.6679224647904303 -0.541109486228223
Ni 5.064104164447695 5.145627025142813 13.163967598774175 -0.08862052665288608 -1.9159030291581391 0.7433907703320746
P 7.366886513372775 1.7720271300044128 2.8654632647627474 -0.8746522715839389 -1.4539367262199863 0.528814985131586
Ni 7.645099597662534 6.099286135521312 5.68305372751739 0.2512731406215221 1.1193935246242142 -1.8347798393235626
P 0.4192755083134086 5.128994620529792 6.245211407909269 0.48173037293895743 1.391504942147326 -0.6281508413194472
P 4.891843942728975 8.467227503854645 13.3299110258456 2.451344518467307 3.519493385983932 -1.5205815199327297
P 1.089515110196445 4.612936298112947 2.8478566235320804 2.372254557012676 0.8074156099234676 0.1744141253799383
Ni 1.3033656042520712 3.175372378021621 6.622653084731361 -1.047106187913713 0.684447459028647 -1.5127329704225883
