# total energy = -340860.69440600387 ev
CRYSTAL
PRIMVEC
9.39616090916529 0.00000000000000 0.00000000000000

0.00000000000000 9.39616090916529 0.00000000000000

0.00000000000000 0.00000000000000 13.75223126905963

PRIMCOORD
 96 1
Ni 4.013870848655753 6.263781600304043 9.700314732424912 -0.950176370064183 -0.36806627305388223 -1.0376103326081356
Ni 6.495970134795506 8.480918542381444 1.911532443222068 -0.14382493973917163 0.7803393225319658 -0.13945766390941142
Ni 3.873999595997425 9.305149785374086 2.3574216258197653 0.06387263028424484 -0.9491826386923459 0.48906418759620934
Ni 4.2343235780571815 2.139007863355516 1.4887061378009032 -1.8745751169436295 0.8174994765220307 -0.31909215714802464
Ni 7.590359798883957 3.3778541066706986 6.443470964435579 -0.09555556320982253 -0.004110936844580016 0.14725119181190124
Ni 5.359081634500309 0.3031511612180175 7.245101621372929 0.16031033898870456 -0.2028250724224636 0.6188884421809149
Ni 6.175335536803248 3.0200858804031676 0.5054232586989442 1.3275060706978623 -0.5730428446017098 0.23912827772887207
Ni 0.23947337811540537 1.6547861023388404 8.435852674989272 0.1629683454368419 0.8257375481611069 0.2239189169782853
Ni 5.0092625604394785 7.534941241301072 3.8225011167840863 -0.22386595225316283 0.7051024162748373 0.9057839599917368
Ni 4.737365849558516 4.114954748702661 8.770568359857371 0.5834100467686468 0.6823106151913023 0.06360189312136143
Ni 5.526850089170095 5.296597163844802 11.639819546946446 1.6223383268572578 0.6560784209676508 0.3155666604932694
Ni 0.32494085857893784 9.127562342458434 6.817063265444605 1.176847652976625 0.5318830825339486 -0.6639020307771275
Ni 5.451934497510493 3.0847972412158704 10.696402699738801 0.6179921556188905 -0.2951428454212788 1.0202502440631331
Ni 2.6104320530890637 7.0722178966542915 2.301903468930272 0.33742026603325115 1.0920192463763194 0.7167682826485398
Ni 2.7839039774863523 5.89533933513957 0.4721495733628117 0.5172090254615415 -0.5986212072914465 -0.9668839126268509
Ni 2.4288418455870597 3.6203878144240735 9.221311599228097 -1.066691052024176 -1.5159350222996537 1.795644563884998
Ni 3.642008380886979 6.111056399396582 5.585400387214555 -1.2659798291586069 0.040315668899911214 -0.6966018350029938
Ni 3.8299222047425405 2.1639546708127146 7.552793947202646 -0.4423703830840962 0.47071833809916996 -0.3237419972152102
Ni 3.7282839311965827 3.588929467393301 13.211740905418983 0.4794896565338968 0.367987854407463 1.3323119767269378
Ni 5.466789828052801 8.462201389667795 13.385487197717495 1.1039003140846215 -0.42402504780768907 -0.5663996282535795
Ni 8.066867311718953 9.208923700564604 8.616735351567915 0.15021027444022517 1.3279087054529195 2.396738401086653
Ni 6.846193243779372 0.848541930350084 10.6351228169236 -1.1822117455020156 1.1608728748149233 -0.0759195341464499
Ni 2.6688197975482093 7.46024176134449 11.15728157798112 -1.3230806879366568 0.6920517537384663 0.015464157073870138
Ni 7.577064231067785 6.701454779722615 0.6567822577968838 1.1705435651354679 2.12287709075197 -1.603820213448412
P 4.83487920842511 7.290321585805514 1.4915118314757505 -1.1577160743534964 1.6773015704670142 -1.7237583192676573
P 1.2995642357025337 6.654013562829435 3.845096065142778 -1.0259136129964976 -0.21139481636934562 1.3377442034861027
P 5.832638752781045 0.8577586246757963 1.0096973669074871 0.523770223618827 0.38831191067679577 -2.3186038615667552
P 0.34440030801165283 3.2158079140504174 2.4507847003722936 -0.6403633242252391 0.07790725400044002 0.5046183332807245
P 7.228908277504101 4.771643044889537 8.218952634062257 0.03592962401707361 0.44639621641403765 0.7774643149770158
P 1.8397401354791407 3.1253604682564458 11.797901499240478 -0.17674637305754076 -2.191164305164142 -0.444745311074176
P 4.863969722883673 7.843407810797259 8.434876413861288 0.02211405829021998 0.4077844175791106 -0.8213337626664565
P 7.3156442397027455 4.39667984399049 2.39741262665539 -0.45273964213356216 1.2005092582596226 -1.5344022278659057
Ni 6.304786446911657 6.6398911328451895 9.623742597580865 0.8483542571193583 -1.1238384477694452 -0.5668326020259399
Ni 3.098384090023068 8.33312632599942 5.3382033647564695 1.1624109087260046 0.6434157378983177 0.6836576161375
Ni 7.28528524350907 2.6871798961438276 9.039493065013772 0.23305918871665668 0.17995253869966427 -0.3533749895902946
Ni 7.102388969627952 8.771006220960011 4.181985082050368 -1.0424134104237337 0.5633772964874878 0.49489390690410895
Ni 7.694018247045093 -0.15344024875962306 12.728075397133557 0.4798822639866251 0.6484306746144058 1.5751657829365129
Ni 4.784797670290696 5.62834742030104 2.5565535262942154 -0.8145596771674165 -3.0019496028907913 1.6572685630755395
Ni 8.739294177582215 8.613244677756105 2.3144313703926764 2.9734568947677373 0.37971208482292673 0.033273931561781406
Ni 1.8088173696254155 3.6869690112759415 0.8711284221638748 -0.21070344672927585 -0.8574503058833555 1.222155889995121
Ni 4.889433319195917 1.7412777643514632 12.60854119534542 2.284804139408491 -0.03129135391411385 1.5887152394861737
Ni 2.38799673371646 1.567401805031139 13.69495351874417 0.2242405619837622 0.5610327075147111 -0.9232054979022939
Ni 5.543716198166582 4.826206551821345 4.665210850000957 0.5703712113068177 0.6102140543353683 0.2953541901011365
Ni 3.5841468214438796 0.3996478554643219 11.655483886950925 0.6030555889137162 -1.8431001862638 -0.06067417795160518
Ni 7.287972545555307 8.029902814341694 6.980027462994667 -0.6823736072187538 -0.6982344855104105 -2.4841289119871797
Ni 8.12458792874704 5.052578862653296 4.700663505073181 -0.5732459617514515 1.0424393785656627 -0.3653776704781256
Ni 7.725532971041869 2.9696190996677196 3.855300295989677 0.6691450243436218 -0.9311291236247449 0.22380655977013714
Ni 8.952201789699979 0.8712609080339863 4.549196450123731 0.21944391192606724 -0.31272713416194525 -0.12620439844393105
Ni 2.7289928125975127 8.306619755816083 7.780641455311727 0.048505660909871295 -0.3768630454099058 0.1399160916030687
Ni 1.2349750249828413 4.88151235547222 12.715601993404958 -0.9480156149674382 0.8216695487393203 0.1294660999143383
Ni 2.6597055213774063 4.759164943080437 7.38650256904219 1.068055279361554 0.9937439702424885 -1.3916016156261906
Ni 1.7028756543410786 9.04196331574089 3.824550419498367 -1.2372112416663466 -0.5942423614974605 -0.7863906709323683
Ni 3.4878361711853914 1.6193531792047176 3.905138473554169 -0.33811703498995965 -0.3754610228560566 0.7028030787176993
Ni 9.39291932528282 8.828924157369114 10.9346743088622 0.5610149669028983 -0.19998348920861045 -0.2543556362015878
Ni 1.5856303573727453 6.176895299529385 9.04298561805778 -0.47285106817145667 0.7639392839073876 0.6103562363401874
Ni 3.3046392201522456 8.754703881623573 0.16248499333902022 -1.2148326168608303 -1.4512977459352425 -0.5432712697662321
P 8.274663412252266 1.282162545529 6.572851403336481 -1.124272192872754 0.08903318871027247 0.5243646626697163
P 7.248893911952862 8.210910459861648 10.995555794450965 0.4025427095641971 -1.2494406938530032 -1.0590769871223438
P 0.13061979253691183 7.095059964047305 6.889785793126614 0.4068367089538606 -2.4361413283643074 0.3440683674773881
P 1.5500658879846112 0.012882136732135334 12.487026282818311 -0.43754622222257544 -0.11804320278937733 -1.1009777411211878
P 1.2164363993282075 3.158810801419394 7.218711563586003 0.6828562032821271 0.3958935796787956 -0.8406064948531393
P 3.906745217085311 6.378950345691192 12.467662674227805 0.39812272611963045 0.5384193409905695 0.25182772757341143
P 4.181526549393528 3.5292450527160413 3.1323728232113637 0.07892103997693505 0.8301472471930283 0.5218874047738173
P 1.5014407548053255 8.809286180877384 1.3380697034839275 -0.4234298374258514 -3.25387580371528 -0.1669383858281835
Ni 3.2554221288299083 3.8274040335943185 5.102587110731904 -0.0008237814528760006 -1.000385386818406 1.1162128129033873
Ni 1.196394387913441 1.1968078189974778 2.0629450004377126 -0.47107777832111775 3.148064109995088 1.0747285776166715
Ni 5.4837874833033 6.25490222815826 6.879704651988825 0.3817337432386458 -0.5960120518033736 1.8083784665118983
Ni 5.963602444810587 1.2470396957079046 3.066170291647829 -0.47436750481598305 -0.34737017815711146 0.8936936044861061
Ni 5.1521687731010735 8.255053624243539 10.72068989669374 -1.4919288891930436 1.0508707971624673 0.44101849704189205
Ni 9.379933830779676 2.1553477873359563 13.325747345690331 0.4955251127302046 -0.6776810868390909 0.2491069862081387
Ni 1.9539692647662081 1.2452262366347449 5.815928620057172 0.2164444629781111 0.5724039254661304 0.40212901906554616
Ni 0.23398602009092176 5.392391025248244 1.791654341941303 -0.1622450941175722 0.47730781839122954 -0.23200683619274237
Ni 8.957877070944479 1.9421582903881671 11.015977410770164 0.22053405966645245 0.8551489114436884 -0.7877140177294821
Ni 5.747396780181532 2.506501116258904 4.925980627024739 -1.3658342768540994 -0.48066490778892057 1.89234709621507
Ni 0.6636019914512848 3.0577081090504836 4.770978736306778 -0.1443486734531256 -0.670280937720278 0.04926696455592805
Ni 8.308094953093214 4.15885361289853 13.793763547828878 -0.4028669256728352 1.173894740995888 0.14644206564704457
Ni 7.701272083337732 6.6414039147663235 2.61674721289772 -0.5247302735392512 -2.0440321554286087 6.489349193663972
Ni 1.8644614350723194 4.597917424145225 3.3948620976982973 0.9038258078241015 0.38125140428558857 -0.517197969717948
Ni 0.8030391414713738 5.176288718390199 5.727130200518846 1.0648141467164371 1.5610979919895374 0.5669454734547204
Ni 8.359651688504757 6.752325595381099 8.648984855354957 1.4688514385482898 -1.2971354288258048 0.7017149878598431
Ni 3.3699425391080013 4.609972698709288 11.303371209989795 -0.956956883321126 -0.0036455671723872704 -2.0522820541422266
Ni -0.036434553896811064 4.314237927369224 9.081932705406214 1.3409318571854647 -1.0049971745588047 -1.7522574551486148
Ni 5.603306651233833 5.2171432264218 0.5326834009945467 0.11979978046916787 0.8026649826123595 -1.951974835180032
Ni 8.90535253094985 7.52129801552787 4.860602138780977 0.8475376747553339 -0.6426770599600803 -0.5720331723902728
Ni 8.075953399406753 1.425547962401637 2.1077496545540613 0.37914772767902444 0.4579759508318371 -1.0365469243406278
Ni 2.1043078407794575 1.1397637255614503 10.301466079400292 -1.963814251017121 0.6683909197864166 -1.3556012862721816
Ni 0.8867410832828507 7.394318295762679 13.05863797883929 -0.2505727721203878 0.23949543126030362 0.3334643667092967
Ni 7.855284558302306 4.801043632661128 10.537509858750397 -1.463037917190306 0.532483949342741 2.2626124338028
P 7.283415407469905 2.717134857414468 12.340881213459733 -0.009113789375810111 -0.4090954230810503 -0.8132067626839479
P 0.4218641385346799 5.933844802920964 11.011741621390993 0.21783183024394098 0.3595983447921871 -0.7220323592609564
P 4.8919608865051405 0.2864701565932473 5.086249065983663 -0.019221310123457222 -0.1234980552563615 -0.614703971785922
P 5.190439336857446 3.9332235987856445 6.704639138685796 -0.7100417625579836 -0.5361516280023153 -1.1419978922872913
P 0.9951192231147024 8.94197876653108 8.959771337002246 0.30221672154892465 0.5956019608491484 0.24556220627967384
P 4.781687540999421 1.4285453377609012 9.426673154446096 0.0009929600408886124 -0.15231189416426028 0.40774250859758165
P 6.652895419670336 6.757850538049586 5.15043048331592 0.8998264568567214 0.2585035969316902 -0.7005867877926708
P 7.37673807853013 6.041308696287436 12.661294062052372 -0.8785618910509901 -2.493569231464473 -4.470471168903488
