# total energy = -381178.3160218594 ev
CRYSTAL
PRIMVEC
9.15424368743226 0.00000000000000 0.00000000000000
0.00000000000000 9.15424368743226 0.00000000000000
0.00000000000000 0.00000000000000 13.39816096169234
PRIMCOORD
 96 1
Ni 7.583366083793658 1.3488594574774089 1.668540284025737 -0.902513259660265 -0.4224597602030982 -0.15350334336920016
Ni 0.5608923940395224 6.461028379412854 3.020816105142493 0.43517335111502475 0.7932388042024533 -0.06459948114794035
Ni 0.5652772766312895 8.244073601665852 11.42095399467728 0.5612075425296786 0.0015226072921135068 -1.9061066118930075
Ni 7.418672090665308 2.8743958127024216 10.397642318347499 -0.4184619518976148 1.7946842568542576 0.17795222044018386
Ni 2.46780093755436 -0.01001474228683311 7.509507817140435 0.27925034256073844 1.9246445227961948 -0.18741567984592886
Ni 1.5152561398793882 7.221810086206125 6.822544098329398 -0.5629096128224499 -0.8067910889655912 0.04674882611976465
Ni 5.75317650799661 4.942879498616976 7.944064328773991 1.976858485795589 0.15553657174914504 0.1237767628390449
Ni 2.7095461974361594 2.0050356248633294 1.4616049501219188 -0.6590786412465552 -0.20370567525520403 1.6898305561719609
Ni 8.719279531146467 9.127787643166512 3.623612963800121 0.21507920719946827 -1.0771677831857835 0.002288281813544446
Ni 5.698498212128919 4.2842774567283035 3.5406114388323737 -0.08867503403990534 -0.06736521681853559 0.3175579798916854
Ni 4.517500115998548 5.075313937980426 5.415268667401378 0.5282560273043225 1.9531606279580167 -0.06397573152101241
Ni 3.044344341546166 7.635325569369586 9.143628145957312 -0.05949661270373624 -0.9420072039898292 1.727905508666811
Ni 7.783587695583067 1.3331141588180369 6.11938194581036 -1.9739539105542843 1.2407459942924826 -0.4232460035498195
Ni 6.447580795848542 8.646045583893574 5.16030193376741 -1.203133326146031 -0.3308374706094109 2.224834186612762
Ni 3.8167336289790215 2.5226623182901835 3.770966073643326 -0.12567732229586742 0.8895345880124099 0.6686524009779194
Ni 7.0947949589393895 5.3679293284727665 5.578002737016371 -1.2000284619684622 1.0907774035494182 -1.121190468623637
Ni 0.6750586252607386 3.0656004947363185 1.5824437093622141 -0.1781082864020739 0.2775367023037414 -1.2756548903545255
Ni 2.2776215307820036 8.111630008058993 2.176424116194934 0.6203575705272736 -0.02439796922839024 0.5159005910627631
Ni 3.6929499496348193 5.059934809057319 11.781203681730691 -0.5290636108072824 -0.20289372087686994 1.4464005657439412
Ni 8.516018710546064 7.978838553202687 5.731625588168765 -0.05536742102671109 -0.10777961607984018 0.04035115012353696
Ni 6.1872249591211 8.64003124597543 0.4820148557264535 -0.5175090732004636 0.588298999429832 1.3914861730942487
Ni 8.864447523088513 4.313873125661879 11.903166582061319 -0.5185845656528294 1.5380495948105062 0.1264188284475823
Ni 8.163479642714043 6.374566550437407 7.380323134186331 -0.4711757373515627 1.9561955581295989 1.405931144874985
Ni 1.7970969858821466 0.9464755342963884 9.822553523633003 -0.4287401938951713 -1.4403826416846353 0.9753006759356365
P 7.672857967336693 3.5145703626135854 4.7553822851627565 -0.23595373665563235 -1.5365349579381924 0.3954590632445383
Ni 0.626716896679104 5.370437591166178 1.0076194722821694 -1.6455916409582434 0.23619747723532222 -1.197180708107022
P 2.4926272456730905 5.785133971729092 5.3314359371323095 -0.28959543324048836 0.0011145732204174354 0.12110692931636562
Ni 1.3664447590615099 6.12300794162372 11.188294321376546 -1.021673349662905 -1.194361236380356 1.9441846497116515
P 0.03871970333694517 8.500392417050977 8.040959248959952 0.17129434880403402 0.6975055777641859 -0.3517189420441104
P 6.476279348928269 8.108810501089758 11.7646564713489 0.5141010759601792 -0.12930180642233216 -0.3753707771350955
P 4.5100851788391925 8.524257529612013 7.947721449014932 1.6462714406340873 0.04115950495744525 -0.522536608322042
Ni 1.4296090385671298 8.036070882980821 4.585989418893794 1.6098635914290147 -0.23704825527139178 -0.14286103316400559
Ni 4.699578017356052 1.3356865012152948 6.706931496649936 -0.3836898385237521 -1.2111464262584946 0.010134003110208354
Ni 6.337482710397223 3.9100245235358004 12.356252197774197 1.0980001465501026 -1.8098319111289733 -0.5045142036026924
Ni 8.189248837903655 7.720148788775249 1.4087364481757145 1.1916937168505217 -0.43158949041850836 1.153503836044362
Ni 1.4330144171143895 2.9469248832130055 11.246724026192265 1.1544723706052182 -0.11891069299599523 -0.27403691668059904
Ni 8.396702301984288 0.0014216540010467845 13.090740171230658 -0.6434159950086339 0.3319762121995444 -1.083081320456741
Ni 4.6889682492477895 7.169704132735692 12.910025336716398 -0.12589509473362834 -0.6358839482976467 0.7954275843236559
Ni 1.3837645875868188 3.8620196711115296 3.759403348796435 0.8401424107325272 0.559946416429068 -0.09484388185477859
Ni 0.30761736458709554 5.661533377253021 5.273797158946921 0.28887655279659286 -0.40719280674169867 0.042539416024107386
Ni 6.185998290504615 1.67956565478466 4.304856195906367 0.11969385101892288 0.8098064787531472 -0.8265320190379443
Ni 7.858258859050798 8.157804011801943 10.018179705232292 0.7036389443554334 -1.540634581928863 -0.08801965984409357
Ni 6.237847925159663 2.5528713215320016 8.22927119007736 0.9214239805218389 -0.862171622618425 0.35166494887772337
Ni 6.486367325162354 8.759951834602044 3.019436560661117 -1.1621396573424887 -0.059638794708555355 -2.3240240041410622
Ni 4.869700476824523 3.0776657875462328 10.700105843896672 -0.08043696240082922 -0.5380668427471572 -0.3610661875869653
Ni 6.294933787043293 6.337684103752169 1.941634250453478 0.6175283286085945 0.5327382314453922 0.8178550600892366
Ni 4.113532508708183 1.154990890612188 9.176628278013805 0.13312015172715785 0.23247683385062545 0.0030500996802334565
Ni 5.7191135682806085 7.16379049149502 9.280021795594122 -0.0839064090066684 -0.05783310895838426 0.09933302797438377
Ni 0.9159278240485255 6.768153245704673 9.095555552131831 -1.5845541661299485 0.6289039174353879 0.09803127844382471
Ni 1.000275022797045 4.969921133640107 7.602022431856332 1.2199033465155185 -0.9619376243651692 0.24196420451577036
Ni 7.642273640115204 5.474841737218584 9.831730652648131 1.567791087738997 -0.4299714951991111 -0.9433158954989237
Ni 3.785819748994894 7.590121915427737 5.903002178983941 -0.7742656055340601 0.6950841128068869 -0.5237128880183303
Ni 8.161374166730521 6.685371422578685 12.475589661095807 -0.16364197446509882 -0.15246975989836323 -0.024973382115886022
Ni 3.9659844134804176 0.04654841229827942 3.880683342568929 0.8091061102520131 -0.017836771071104766 0.8078596394394216
Ni 5.114484945517318 1.6237705412213623 1.911970840118694 0.1655124520149343 -0.8819598609889456 -0.024481015860499774
Ni 3.4648811294024977 9.21667534664471 13.41598036979982 0.2638401786532553 -1.0534717251204244 0.6306772072857267
P 4.474356166823187 8.392555429721092 1.9786668267305847 0.35532491422781387 -0.5138421658718376 -1.0363952292541119
Ni 3.554968038766962 5.630537109078235 7.754065260596745 -1.001485304750804 1.1269206862391947 -1.289801871278869
P 0.16386644952439192 3.8242584170592564 9.567143724618154 0.009798217037344415 0.18280929142216903 -0.6687619299725902
Ni 3.9634853050304124 2.289027718066642 13.105451040385082 1.3710034797598645 2.45897580976032 -1.11405822845423
P 3.3868869755781663 1.420299173022606 11.307377296731453 -0.3796740324961397 -0.3862293171161542 -0.7750004268175557
P 2.9735362687960256 7.296371398752977 11.72397959077162 -1.3926562821429498 0.07001088197149878 0.6441261337017811
P 1.8896097697493635 3.980612894444183 -0.1781196065084862 -0.27862916403697174 -0.06885517110050077 -0.11659541459925726
Ni 4.988925342952233 6.938294013659958 3.9113784361356387 0.4230020058598134 0.10947011640838565 -0.24139624782744237
Ni 8.338426388457798 2.3859345387690323 13.017398203905568 -0.19902883860482495 -0.49655792487009315 0.13711410337789934
Ni 3.051374800482444 3.5819547483296534 6.147478149673933 -0.976273324261551 -1.5100158286017413 0.17082435114615097
Ni 1.3985944619055297 0.8448451239961863 12.53645805635505 0.4867777055548778 1.6594681418300194 0.30201900371582185
Ni 1.3518071238543377 7.6122111047678915 0.07157062122591162 0.16077082356489086 -0.14986368973408384 -0.01708112385200284
Ni 8.728067604816815 1.134952251795115 10.727411121129913 0.547835749208463 -0.6265526435943919 0.9913132493138089
Ni 5.699990353804197 3.264622900639462 6.102808188122691 1.1420750253821297 0.5710546105270875 -0.6378809241230176
Ni 5.17132364282897 5.093961131799695 0.4651216149438923 -1.8556191446664172 -0.5162050096770594 -0.6101083819954396
Ni 2.887852550510141 5.8170548184879465 0.9470650675717742 0.5747189467525521 0.080644450425945 -0.8463012312450715
Ni 1.7863315956359713 1.1172570992901347 3.653932733387159 -0.11754826543082982 0.481429553869087 0.10336014685590586
Ni 4.156932776698929 3.435340385929362 8.336509489888453 -1.4164533845625475 -1.150627028717199 0.09991178329598922
Ni 8.632369144244096 1.8980225194400397 8.389432001870755 0.19432989046725888 -0.5438464255434118 -0.148228468123506
Ni 6.491832408476102 0.824445807988893 9.830632143439336 -0.7443811592698019 -0.021783671533994745 0.10450274510078132
Ni 2.4374729291482558 4.8712658524470545 9.663959002886479 -0.751889294721389 -1.3265905008621282 -0.5969793008126494
Ni 5.723361137221277 6.956044091625377 6.943784728855243 0.7929819509966407 0.5698749883966895 -1.0750746481021807
Ni 0.6444056412136996 3.269282410533427 5.922442130282222 -1.277112962957291 -0.7098003359711388 0.08588950087496822
Ni 8.294724030434633 4.535707906134299 2.8556305291432085 -0.36820125596984976 0.4972148417278018 0.33385928815487015
Ni 1.876564972894942 2.593799943802962 8.333414440192678 -0.19037913334962697 1.2512612920015094 -1.0878684574327393
Ni 6.061820978693928 1.100541450829662 12.14227084272031 0.13722646058604754 0.9960613055217558 0.07406962542190469
Ni 4.426452011076388 8.567822573984078 10.919111963156448 0.7155680916928515 1.2052616853429436 -0.03698686163699436
Ni 6.005192828980627 5.904706699106253 11.291406803684277 -0.5201046018417816 0.5513532754434183 0.8719310159980338
Ni 3.1764583823903854 5.483831204243877 3.1989183185885066 0.00742765992263882 -0.2964499942684765 0.5443133378775012
Ni 7.986930904374131 4.194886269862741 7.483475895165053 -0.16605289789943659 -2.3043964597181215 0.407589270849169
Ni 0.7151542113816975 0.8365971506868292 6.170375658706891 1.7842674323963077 -0.4159993492897352 -0.017580432085924563
Ni 8.861994185855542 2.2103378417434083 3.450696629243953 -0.9924231945485359 0.4682233395914581 1.4165917099126246
P 7.648104893165215 6.90135664151428 3.713701704013267 -0.04929807490417961 0.1828314029093561 0.3987729581091197
Ni 0.6022375343854838 0.6745322562648585 1.5617972287829425 0.8501537722219423 -0.5978334212828286 -0.5493565567283636
P 2.893757037507405 1.0500741069290123 5.539389222902943 -0.8529097377005246 0.6749503181714892 0.01760845711038258
Ni 7.041553879286536 8.87388554804073 7.794259712546495 -0.19076094216907793 0.2025157687121609 -0.9639795944958625
P 4.54696762552443 5.1620412400146645 9.802107520984336 0.6793805860287009 0.019283787930276467 -0.7362179067327191
P 7.436797492610399 5.056181569260609 0.4354160950894376 1.908984190551119 1.3770252604739126 -0.5565589880140738
P 4.150186099308256 3.777828094500922 1.8577218782667726 0.1250394316015524 -0.29025543542199045 0.6039102236045277
Ni 6.58582817977519 3.5399276168498996 1.506127528354315 -0.11100403655440884 -1.8881906508445352 0.27834017204164324
