# total energy = -340870.13498406386 ev
CRYSTAL
PRIMVEC
9.23498497125080 0.00000000000000 0.00000000000000

0.00000000000000 9.23498497125080 0.00000000000000

0.00000000000000 0.00000000000000 13.51633399201516

PRIMCOORD
 96 1
Ni 5.57341487293869 4.414544343386689 11.289287696914668 -1.244807823066682 -0.8386691686211105 0.8275602031921425
Ni 8.057394892273356 3.402122201776353 13.011242027269311 -0.48741688180077347 -1.1798818118172585 -0.6953108841057123
Ni 1.34554651100318 3.2781148267428892 12.936158830871145 -0.17875980394314375 -0.1671985814681056 -1.0246224049889
Ni 7.419155862191609 6.293734447352984 2.1809413832143894 -0.27221297609798284 1.1800854431876322 0.036260010773298844
Ni 8.255411434980202 0.5657176184493167 4.373614891037247 -0.9498629525888221 -1.926007978802625 -2.138461061233156
Ni 7.2285457772429424 1.0113324134115018 12.42529517475604 -0.6210242575769949 1.3666614007410849 2.6960559467109118
Ni 4.717100913303754 2.560371813069908 7.162480543439369 2.05735175535565 0.33878449337062944 -3.6302174294040768
Ni 5.512722553254454 4.934861853375922 8.887827807185975 0.26869236453923406 0.12022504093204457 -0.6721038498616295
Ni 6.069712187629885 0.8408933821229555 3.3326409471189753 -0.4097348564372621 -1.1072718016600158 0.16701680447460268
Ni 8.498476233228695 8.571968241756869 0.5186348957703543 -0.756636065377755 0.3575324634020939 -1.1032750217957967
Ni 4.121601392579682 4.233446292715985 2.7812015385698103 0.15916619808193233 0.6234750331103327 0.8543775804953029
Ni 4.49881357910164 0.044281751808568554 10.525804727343322 -0.3567840152718436 1.0086327144288627 -0.06555413175172581
Ni 5.571697165777816 7.411915634158675 3.69344625975916 -0.33810777901857897 0.6961930296003495 -2.945296887393753
Ni 7.179508008295394 5.842891727531814 10.517153393642744 1.217371324122284 0.35713882750810105 -0.2237741638703049
Ni 1.9697391293016469 3.6433769430166127 10.607388429497078 0.9352912254222343 1.475028513893279 -0.886505314267783
Ni 1.111938337124233 5.967351616817336 9.96430842041678 0.009181666499268057 0.19438542629554265 -1.3861110248252646
Ni 0.5120281876903021 9.081637814345626 10.617823038750153 1.0664151726549698 1.6263495048991798 -1.219572445538661
Ni 3.344237317451826 1.7315873429326445 3.3180302777683313 0.6113522817048698 -0.4179109644901512 -0.8474325166360372
Ni 3.7575952342300387 2.8950568948831155 13.326631531975362 -0.23031299343008724 -0.29373568066110706 0.6824412272318957
Ni 3.2137839230727145 4.605902462098962 8.197399107866321 -0.9331865203744059 0.44660858953515986 -0.4768663599784368
Ni 7.885070077101743 5.1506095667756675 8.256060654407136 0.07856648485099373 0.9769351262152659 -1.5973469470192425
Ni 5.822306946555527 7.520288180034285 9.332960535944947 1.7515390889253513 0.2166856324546397 -0.6821782033784961
Ni 9.079356773115862 7.420614989779879 11.779092817336537 -1.9978299458409334 -1.529323784901734 0.8258689315326486
Ni 3.9966889890421013 0.18090134549583042 12.931509016056628 1.3355037441913582 0.11499207466787938 -0.38102309032486636
P 6.660769680695997 8.226228883214807 12.576516202809207 0.013555112976615364 -1.7066406857507639 -0.29534210591627846
P 1.8702136988030142 -0.19642904883074747 2.893319794254296 1.6777581983884589 1.650781155578983 -0.5261983734443454
P 8.729821835847352 6.129776528352082 4.471487259268156 -0.9765818566409052 0.47574972987549036 -0.40729179421340816
P 7.435732659792523 4.279953675845901 1.2798968515127205 -1.9847908532687881 -0.7194882526828641 -0.847959849894417
P 5.0413874023043554 2.072930848740426 11.868083900746946 0.4661546299878875 -0.2150640376908167 -1.5973975977515198
P 1.169278357349343 6.5751890771485515 13.138025438714383 1.3485718902292259 0.08185209758080098 0.45145769009734504
P 2.5270612231275704 9.008339740496908 9.490331140333742 0.862931640712901 -0.24782683394413446 1.016974915745971
P 3.7728421940289847 5.7664445238881585 9.870302740294784 -0.32881529797305953 0.48303083691793586 2.36540051020532
Ni 8.139475436605903 4.294591126652279 3.212494719203585 1.182350842183041 -1.2733092729404845 1.401788069240889
Ni 1.4536420073367136 8.903873593164576 13.046479035027554 -1.8557692970910362 -2.2126343021124604 -2.8677030508686743
Ni 1.0106490245410464 7.491262623009399 1.7201156448937283 -0.16349542158490554 -0.3601542172956571 -0.7810209219800226
Ni 2.228263291998011 6.836280565601491 6.172179884265372 2.364823297545611 2.5510323586779484 -3.029264231545344
Ni 2.048430434236123 4.279565806486994 6.095258002406291 -0.12724826632741312 0.5558830449929717 0.36582144288376356
Ni 8.97294204400426 4.341098509782197 5.663492914052512 -0.8377597694329637 0.09049871751220544 0.8599530177005512
Ni 3.163490196201085 7.071264752206086 2.8960902896750613 -1.0680136274903413 -1.7669734212025503 0.5388764831326461
Ni 2.3655044001579983 1.9900191557816502 5.739603040753308 1.1798648425363936 0.2805706040340587 0.10910219154600563
Ni 7.048149585412165 8.039137327450511 5.266990691414237 -0.3393020564369963 -0.48433284355881107 0.9068676799742188
Ni 2.6439576599144026 7.5954609557843895 11.281610654103726 0.19571674351245646 0.691489453477093 -0.7349426395647214
Ni 6.345256427194486 0.9180646085699049 6.120385472374161 0.18826825765421126 -0.5045692252103439 0.11467068677271863
Ni 4.75342210826999 5.072943345146874 0.15754052810793576 0.3853633695714331 -0.17119201889821484 -0.5109080229441781
Ni 7.203703668303412 9.20173879083581 10.530521034047938 -0.12617123121315046 -1.2630120047795346 -2.0316792902902105
Ni 3.3181577205576867 7.109728463631047 0.15876693408086126 0.14072496065760925 0.4137884576813454 0.6577195561154995
Ni 0.5315841913670122 8.06312981779434 4.224435718109182 0.419897913013193 -0.8843044499617223 0.6164052707477449
Ni 5.135796651259307 7.037076838713839 11.463175995002068 -0.8663373239603404 -0.46642253893729346 1.1434438807051985
Ni 5.999932642965539 3.1110170129317862 2.7216488160019825 0.8836796718935297 0.19089232554061963 -1.7786819678887302
Ni 6.511901726753531 3.134917153428257 4.94230155707915 1.2404148362053091 -0.8450820141259898 1.1443309112958422
Ni 1.0579875562971928 8.06223402427496 8.102609377540249 -0.2920608640618454 -0.8911898642276459 0.25511822539922513
Ni 8.827047755146749 0.8096735927248228 6.59171323533647 1.2699424133507806 1.0082539909332056 -0.8448405875391449
Ni 6.5904914468559115 5.493846244454304 4.625843564639159 0.264125571104158 0.2624692664476576 0.7824949354223878
Ni 1.3416955223683158 1.082063161503645 8.27249615674159 0.43407677561673624 1.6330649692461423 -0.403136377284138
Ni 4.23271672892185 2.750427798934421 9.659731235839503 1.026934083841212 -0.3034151127324 1.4343387494834008
Ni 0.33552638892264725 2.2753986540899684 2.8678552473435666 -1.6818863616242197 -2.697920767833792 -0.27123647111732646
P 1.619862497597908 9.27885091338045 5.919370330123572 -0.8762617821629038 -1.8919984546263995 0.3087537513364941
P 8.438476537399652 7.508984558717562 9.630400924318332 -0.06823784923147602 -0.9001211052790047 -0.2619205930330392
P 0.10316863197693923 1.4645300543403221 12.475400507939057 0.7762589818150051 -0.33731613635521907 0.1385894023718452
P 3.0285116593013894 2.4719098942848654 7.9589176325422475 -5.968317452022231 -0.6331400670039226 1.635106168045887
P 4.735303068218183 1.7410439673021907 4.963238190973876 -0.6048198799029906 0.013501634030860618 -0.13966000972820464
P 1.1163895997669295 5.984519453441346 7.482358250727059 -1.9294362877578835 -3.6816091536124915 3.0818114095144407
P 4.855293224891537 6.181344683117264 1.9297673448693158 0.8661905139698309 0.7951375638870629 -0.051080363615583
P 2.995986043061603 5.4215824888960045 4.4928967243813585 -0.6798724380634549 0.7120312821841867 -0.7607403173541156
Ni 0.12353916130735436 5.117917720810635 0.8585017275188674 0.5441690989901531 -0.08587638824884565 -0.33714258689183224
Ni 7.062842446126958 2.4093336377145085 10.583546469404443 -0.5255049469217465 1.138286247763659 -0.843331092873154
Ni 2.611432043674616 5.048876974925158 1.429879468112808 -0.5916730581083873 0.6549404507084656 -2.1374724720676412
Ni 4.432506388697986 4.040444346720724 5.240538924635241 -0.6616458877530992 -0.028163606918409557 0.24760931861668972
Ni 0.3687335470359426 2.1988498656142177 10.16647239476851 -1.8190338893432159 -1.0225776066447292 0.17309952033357284
Ni 3.60123770766677 8.82852535270449 4.349353662637604 -0.0972064685496842 0.6034965331058768 1.8911867573583816
Ni 8.600587459453378 6.928436478280887 6.59551158455834 0.748598282674943 -1.1348828785090648 -0.8142596294284945
Ni 1.8973922588807237 3.4263732716927873 3.6280948902756704 1.9745840879391154 2.370065519781157 2.1963617902046817
Ni 1.071627628752095 5.527221479289793 3.0715466881706135 -0.4389235621860763 0.8245011046508445 1.5852159680836635
Ni 4.068149300928379 8.961167438466006 1.9036674310087576 0.33640210918138197 0.49661603180153824 0.3793253909074693
Ni 7.7259328201329724 8.644859976277209 7.931438935460622 -1.8694174840020903 -2.1498775306002136 0.34675876982535764
Ni 2.7449976279097204 5.3464097131459 12.025955041308427 0.586397668642061 -0.2905351714459383 0.1889226034087585
Ni 4.638945237483958 6.701163503930759 5.598046424226243 -0.3103123540728656 -0.37855148885592227 1.264770382231538
Ni 3.4360607706807307 0.05867909301181327 7.252189185163755 0.17653888503242499 0.8344276197359373 -0.47449991662878926
Ni 3.9499137913548434 7.258116198367246 8.173015977668163 -2.7203790968373083 -1.8310126589716464 0.4589583693497644
Ni 6.648671850691988 2.8812875326419114 8.075225800801404 2.585425491445837 2.0178806938442215 0.555783800410946
Ni 6.093861672714224 8.18091281311582 1.1626855017463944 0.4058020970417592 -0.40526756469452785 -0.09714013408812303
Ni 2.2362792587487594 1.4787334608641132 11.408366360594592 1.2239026974828986 -0.9804845341294209 0.304604762165127
Ni 9.124792898016416 4.953904391901317 11.796244954486497 0.75784576941514 0.658270286412647 -0.33839651390359143
Ni 7.913763174676137 1.7706975032891175 1.3438140278667277 -1.5109596805722494 -0.49445321982226453 -0.016808586916906537
Ni 6.852183209316686 5.948752357559264 12.878417088810025 0.9114856383622044 0.0811859247517118 0.8747612863579772
Ni 2.3667788280515505 0.7919692034876575 0.8903873593164576 -0.08838372805173166 3.9896607366756385 3.504984136624164
Ni 0.2754860591607646 3.314703836266466 7.9341955784042835 0.40314409059362183 -0.06270560655933717 -0.27537003366972573
Ni 5.754125054250488 0.8808651665552865 8.497407745494755 -0.480417824775121 -1.954986882533478 0.9759267395554095
P 7.886104395392162 8.625743557873927 2.5533569186645293 -0.3598127747958384 0.015298320919967202 0.21887441257584242
P 5.495009852531027 8.169359847211227 7.150208172223851 1.6853820334823035 1.1319747037233345 -1.0567272559432448
P 8.576659614002699 2.399683078665509 4.866623627663994 1.057439451518921 3.270014104038039 0.6177497005907812
P 1.6128900841223146 3.1705087846003575 1.4295959540814165 0.5400437639678699 -0.459331436418467 1.0334191773449233
P 8.5968103506964 4.044129105630343 9.867410343075505 -0.11738757148324945 0.48863635603017136 1.1445998486865128
P 8.060959596381409 1.322828448552903 8.605417356470245 0.7485417184053947 1.656896267337785 1.1656024190801089
P 6.162505314256058 4.625979318914776 6.673540741087253 0.030553961527457055 0.26964290137796143 0.16135883485787694
P 5.288727998485563 1.5172987571211691 1.3217904362685893 -0.25138009851303156 -0.29511173507302724 -0.20067563017962858
