# total energy = -340894.4844155294 ev
CRYSTAL
PRIMVEC
9.02763031658939 0.00000000000000 0.00000000000000
0.00000000000000 9.02763031658939 0.00000000000000
0.00000000000000 0.00000000000000 13.21284949519098
PRIMCOORD
 96 1
Ni 6.287266075085266 1.9676623113109601 11.243447776484388 0.3433070638313313 -0.23887116741274342 0.573822917300844
Ni 4.4587105198533585 0.29115281474024207 5.909262039789883 1.442049487864097 0.06119842588619138 0.6416432193789272
Ni 2.7247193925485136 1.451760319640528 4.904199703074846 -0.5227734069231964 1.905311626795538 -0.5477100222638761
Ni 3.284495667724962 4.527076764501725 4.946758660838717 -0.8433845718189088 0.40483356248090274 0.3359817338145117
Ni 5.269229228029724 4.771003336586612 2.5030684983547977 -0.7757956690253413 -0.37448040411034217 0.02115863635548614
Ni 7.2650667736662555 6.2735621322123984 2.6608561299192424 0.2576299360774853 -0.10318814005441584 -0.6847544487461046
Ni 5.1641927488954655 4.640608243796304 11.356180310492903 -0.05618066095662582 -0.7335935817359946 0.3358287531764152
Ni 5.731037658636772 7.79367064124059 12.299577612569143 -0.30569131036108643 0.7398747867590162 0.40324590627880874
Ni 2.0126650486108555 6.552037445650686 0.46671765599193926 -0.7962210267592288 -0.5444943435400558 -0.07944631635278576
Ni 2.738251810444711 1.7682148739656078 0.35375401464643924 -0.08061256874674504 -0.8663558359031014 0.5431501708073355
Ni 0.6114459174905809 -0.10757234049986361 4.739580863623775 -0.46270318110417735 0.1586280661902752 -0.2138445634614188
Ni 8.572773195795364 2.394533812459514 1.2850551948153337 0.14555606349766545 -0.7516517247892862 0.46052982760194233
Ni 6.800847965755483 0.5045876625514838 4.567867209479828 0.44259741149323767 0.6109599313624574 0.1230933636187751
Ni 0.6743775286676258 7.277091577293831 2.5557745126332287 0.9481739949221735 0.2287227661248319 -0.1652874804883218
Ni 7.536211651259506 3.684717604077269 3.6642934931710944 0.66793377764434 0.14541928080948505 0.047639970475466344
Ni 7.376377455894481 3.685430786875001 12.441562377204107 0.9964935079631678 0.5589524279469147 0.5782197608169589
Ni 7.779686841826841 8.586522276819986 7.040255306086643 -0.20993391555310295 0.7666489695290668 -0.05574305919857497
Ni 6.96395919093793 0.6882376495455653 0.31933707669616446 -1.213118462383201 0.6591272350963036 -0.7122575392623798
Ni 1.7583476739919297 6.456245259995884 9.422293975377293 0.6505646902382731 0.08128594066468581 -1.3967204249099947
Ni 0.0008386668596108836 4.851258970407288 1.4489473100231463 -0.3255073166457491 -0.40786052223268465 0.43222583845092655
Ni 6.556677647651116 1.8347575372830656 6.531310006364716 -0.9336760584163146 0.08063545156488047 0.983257725999184
Ni 3.236342287432557 4.31518925253265 0.5392564713885525 0.21856253776237844 0.2263830622480617 -0.5403101302553791
Ni 5.856982129664021 5.605400127041459 4.788045697163291 0.4658093308333268 0.6482779510866254 0.1781463387288609
Ni 5.112816504567742 2.7973647339832692 9.215738181893538 1.9269407750295398 0.30101395949007514 0.4133153746996688
P 0.24336685900312383 5.362105489081142 12.611188843210897 0.8859268160564936 0.923131964351881 -1.4894498315249314
P 4.178799813189257 6.0512115966664775 12.624058633039327 -0.7534316995078443 0.5931365300277914 0.3183460230106195
P 2.399074710526083 8.555918609929988 1.3351720847090887 -0.4485767690051243 -0.018997881258741477 0.5788522521946353
P 6.113890434193693 7.783640943920594 5.788060685749067 0.9838537077119701 -0.7459731863472701 0.08664052010837982
P 4.599839465131044 1.025674222332514 12.735006404527443 1.4323991092585266 0.12095883377427555 -1.0442586911625884
P 3.85756061477813 6.156753623100394 8.149103795132321 -0.1384122533640326 0.700523281544587 0.15829716521341772
P 4.653806639369514 1.3442592974204375 3.81448347103211 0.4076023834752916 -1.1808421188479987 -0.4923819391155326
P 0.12181703843075718 5.458773354879995 3.5864301813934416 0.7157922918885157 0.4756402008808195 0.25828993825898744
Ni 1.5890254391279712 1.2475282382091284 2.596523430511717 -0.22862454998407078 -0.48937349130651203 -0.13453194447301994
Ni 1.8563064909309792 6.541032764252778 4.7969379130590575 -0.7469000690369136 -0.35083936765263446 -0.2258721840499142
Ni 5.76504474216911 5.63489339539828 9.198376243202432 0.7107333893083694 -0.39067064071695945 0.23961858710172926
Ni 8.705434223803781 2.2237671567393904 10.134175891575246 -0.15436414870759868 0.5107272743919398 -0.08910158005436267
Ni 2.0671016596275793 5.235926299664767 7.190128414122338 0.4154640456115555 -0.2386852766541825 -0.8906543034391501
Ni 0.7603449442113993 -0.095627882782413 9.049969222335745 -1.4049443554816836 0.6525087013385213 -0.46169865109906294
Ni 1.651893856892559 1.0760845102126773 11.280192940302197 -0.2418968416129447 0.32232274827018037 0.15516041935664893
Ni 4.153865498159706 6.91628427505413 1.5516907710482428 0.20905434116162705 -0.7991561981281526 -0.2533133109800024
Ni 5.5663556257732445 7.801416348081776 8.046004645471395 -0.8644177383401241 1.145817780254014 0.2722867667587117
Ni 5.082230892938445 3.2148836100881533 4.801100553413918 1.252449912992972 -1.0919572827901323 0.14111705388970533
Ni 0.7005477262922327 7.366302620422729 6.884118828113403 0.2158610796708153 -0.5614443411308331 0.4663389780845517
Ni 4.821801812571871 4.5715378439805585 7.031032678920029 0.8629745781356944 0.2529474430001515 -0.4769972291293463
Ni 8.284557069208313 7.088107163525324 9.461906314594588 0.6499941624467839 -0.148326427153951 -1.8720708624645372
Ni 4.68893314906538 0.3782459757887894 10.343124007102025 -0.43883254513416675 -0.9658834963867946 0.17941723502148454
Ni 8.087501953905983 7.127296106879155 4.812780501562084 -0.712805955566682 0.5558053976775008 0.1050269930353675
Ni 7.000981503007513 6.092251204242269 7.242531100020974 1.395927496695054 -0.5393850473379485 -1.402031809820579
Ni 2.313826797121287 5.269003537270948 2.555193133238622 -0.7571914236605928 -0.38138613009123995 0.8809067371340829
Ni 2.4266812041395394 5.164788572498633 11.405173260407954 0.04104894752150995 -0.5656401243797355 0.9520856712717537
Ni 1.172463491840296 3.2153801297574605 4.125725471592504 0.5285144231720318 1.1447577144206156 -2.1409483464313843
Ni 3.602674499447089 3.053929988559602 2.852667094750657 -0.6752855900237208 -0.6188830428642761 -0.5461606754988853
Ni 1.0778719810221817 3.3566174065993577 8.366006155761394 -0.9258678752258054 -0.0446178958196909 -0.9583848740169043
Ni 3.743559698705296 2.5228976884208394 7.050125214349427 -0.003878509118799772 0.46238307876059725 -0.7734564793692034
Ni 4.051781054150235 6.899213026060329 5.918431403937427 -0.2556270467148436 -0.25776054811807864 0.6026586105856137
Ni 1.0668943825153265 7.306702204845215 11.598702183295169 -0.7715965433423292 0.3043574220410113 -0.5058051544999741
P 0.021363887225717505 5.490036038785619 8.139591381031439 0.19195316270496618 0.14189686947852337 -0.6043722508426107
P 8.396012193522155 1.5635404386470075 7.853387513249633 0.8847212257841667 -0.06214330629796394 0.09166008481015828
P 1.965288044528639 3.2333902523077693 10.310911616483473 -0.950508556592621 -0.4269975001724517 1.5062296220864315
P 3.9535243254096013 6.231168380083951 3.6687594619057493 -0.5644587024771246 -0.08012765869052653 0.45830248093332043
P 6.94602128943043 4.022405144987976 10.193356522341439 0.16288272770157108 -0.5310950394150143 0.6738437153708717
P 6.39891077963648 7.550222533564307 10.240421170413509 -1.685910652292264 1.0893542979496464 -0.6655313388504344
P 2.3737160968700337 8.475789362934227 5.926253845636596 0.02773448980079094 -0.7029815132770925 0.03543005867283575
P 6.953180200298798 3.866281305697227 1.5131617474730727 -0.455110456358584 0.6878983936917249 -0.561264363909543
Ni 5.196267919532683 3.0037544190685654 0.49258271971068135 0.08798597839268071 -0.4490745345771492 -0.7589019785937962
Ni 1.683671115728192 1.106119436390561 7.084425695868173 -1.9161691383353325 0.2927720311962571 0.13394881827604027
Ni 6.959653011260488 0.6587561171081997 9.232399576469403 -0.7298749952338269 -0.3320068083271637 -0.5777906436993404
Ni 2.840914022796648 1.6031988187790915 9.116469455790556 -0.04054989639790436 -0.3613749770766357 0.6596013465192446
Ni 6.328287627400355 1.886070588198332 2.358916199672552 0.022355741987380853 -0.16932488378248903 1.2007185460569514
Ni 4.095176873247646 6.8812660969224755 10.454283927903388 0.07943294661634707 0.1138240225017072 -0.4523778879187693
Ni 8.369913314177321 7.172587728350282 0.26465310860782243 -0.6618986271938536 -0.14390387260622314 0.8790647988293376
Ni 7.345232131183421 3.660297863977727 8.01985611415963 0.7631026469387051 0.15535608030722275 0.2845702121117551
Ni 3.2506601091692935 8.223837227467271 12.389821416610202 0.0362695238549956 0.7824741094867814 0.25703729679880893
Ni 0.1938521120537829 4.8926416279364195 10.319922997099873 -0.153341106759723 -1.735094570216083 0.02875598908676983
Ni 8.720104123124209 2.56261023433503 5.682728100339294 -0.8997498379825148 -1.1660222802263465 1.6192422044304373
Ni 3.782035459261395 2.651451144619537 11.43447965681651 -0.32115855275875016 0.1536612091033031 0.06309204336447843
Ni 0.9414644864180864 3.2200474146489437 12.574378680454561 0.2709518499973721 0.5115317725711062 -0.7365022707423574
Ni 3.062054855875531 8.284331378449536 8.090346560229595 0.8249829293832696 -0.33287969785042026 -0.7320856297319005
Ni 5.549094796542071 7.808385678712773 3.517577347469155 -0.28195822841020474 -0.19537967188801192 0.215862365222396
Ni 3.023669371622942 8.429035265346231 3.8449526262298783 0.7882259243688942 -0.5759350785478404 -1.8941406977803827
Ni 3.511224603991134 4.319901675575889 9.266343466589284 -0.8194553146968211 0.8980660225221889 -0.24691023566713607
Ni 7.506230890863728 6.0702328138161015 11.447890201702968 -0.8997441815555601 -0.7633787834182272 0.3820188785792324
Ni 0.5562392496049141 0.12737986425306316 0.11600956382593823 0.8252310408383335 0.1278956701034249 0.9369994663625928
Ni 4.537350207841199 0.1701076387044982 1.7674430115705946 -0.44228193713534797 2.1503251596605932 -0.6053852654881574
Ni 6.190155855399213 5.771282834741674 0.3718056642963631 0.14746999269092667 -0.5140733080460372 0.43749017217365943
Ni 8.022349545662586 8.6504920654874 11.230644791120556 0.4026910622166033 0.902363107235646 1.0435061292672803
Ni -0.10722567949438397 5.081120494405268 5.669752687235755 0.09248258071145363 -0.753411130682554 1.132998002781526
Ni 8.056654540996508 8.880209147399764 2.4023075049547877 0.0658282113487189 0.205753044702536 0.05539158939642718
P 8.631181964166542 1.5112794865448826 3.636070412404662 -0.4988822021278957 1.0941468342422835 0.10365916615356341
P 1.5860011829603755 3.2409915170633385 1.6236346656047231 1.2792258955352356 0.2336104332344364 0.2796750888029828
P 4.862669895170993 1.0681221402430672 8.125215782460456 0.6668819393410579 -2.048605376621588 -0.4189363204308721
P 8.42788875629165 1.596554482840732 12.267469942462665 0.18249278862301474 0.516977883287342 -0.9189346384410819
P 6.358746852204738 7.9872772017488245 1.3404568595165827 0.11168949265720764 -2.2906580270861068 0.5991703949266972
P 1.8441011346963838 3.1316398306212863 6.186691953633522 -0.022861992199838043 1.009556511794713 -0.027541142843062243
P 6.892839519032499 3.991440372883936 5.824131485579651 -0.3889410596203624 -0.051696914153659346 0.7634070655530013
P 2.4621327085280424 8.433413666066482 10.136580852300762 0.6533000868915653 0.2867278818847062 2.0458866921388443
