# total energy = -381171.67213160003 ev
CRYSTAL
PRIMVEC
9.27389946238324 0.00000000000000 0.00000000000000
0.00000000000000 9.27389946238324 0.00000000000000
0.00000000000000 0.00000000000000 13.57328928332010
PRIMCOORD
 96 1
Ni 7.708075652099109 0.8180311881890002 1.9433150089967448 -2.599484026421433 -0.4886127018810876 -0.8568910909457758
Ni 3.3861510550629257 0.25157306819460623 1.2274692083997778 -1.94652512491937 -0.47791228474444786 1.612545766246868
Ni 3.7219033078338746 5.7081778008796435 11.500376202656412 0.26045737822395143 -0.16127167446070934 -1.1108268660011256
Ni 1.171098738472617 4.453817993868258 11.022257538495488 -0.3434073368546215 -0.5001677537085386 0.20348276061112053
Ni 9.073425486763867 2.4890218517620957 12.588262096866982 2.1043157828100147 0.8961752332573791 0.8178964548501333
Ni 9.246754665978568 3.349157470478258 4.697172532441672 0.46868459549859287 -1.243098296574743 0.014938366477387176
Ni 3.514186509757317 3.5269195735915475 3.2907356140105786 1.3189874917038895 0.6875479523308416 0.7095956761595005
Ni 8.698101505383548 1.061240126542315 10.376318391345306 1.2399096144341164 -0.09142637153279738 -0.21333214260137456
Ni 6.387592942583667 6.750109668934799 4.003469093979164 -1.1410069891289316 -1.3372937462122452 1.216663242311666
Ni 5.547349838014938 8.051237750466234 7.887112916375696 -0.953887500367183 -0.36384580721463144 -0.9907838591729001
Ni 7.108787000946986 3.4388824468775216 2.0870428288141527 -0.3838818999299002 -1.4394935542114626 -0.38870066147478216
Ni 7.814456551765874 3.3044572755175916 10.983804242150072 0.22210526080831425 -0.031108291369030296 -1.7363950341950611
Ni 9.05328257733346 3.391233151917375 7.410269413378069 -0.6952116395236866 1.6433614660761438 -0.8801063527199746
Ni 0.10210192249770844 1.7557531764197751 2.6648030499700748 2.1778403343617265 1.1811005147157077 1.7337318855406012
Ni 6.059760599874214 5.938337435430229 6.489267338320445 -0.4570722080706451 -0.625677182967974 -0.06803241808888928
Ni 0.772638232945437 8.43348933467552 8.854955602368452 -0.7414876397720906 -1.1924568202687915 0.1853986494159001
Ni 5.678325118809439 0.05814456687653344 4.288060026098762 1.6903969701983919 0.0771300095147833 0.6118868140521011
Ni 4.538071369639556 3.7445408961946605 12.82454621456114 -0.8660077085350634 -0.7378803820368066 0.2782316714882369
Ni 0.25025710187408373 8.058888717446017 6.338780700642594 0.6973857643568698 0.6201868492773642 0.701984696581462
Ni 7.101043294973509 1.963275222609575 4.341416478730857 0.39946869862456363 -0.37490900700732854 -1.9682674016924682
Ni 8.346286858904742 1.3732141013300376 6.1719784918041 0.45664617627682 -0.5440053197187793 0.6189820303359855
Ni 2.1849956087339772 2.8807606350263106 5.431147878915944 1.0150162493577035 2.920277225420964 -0.08102291681128627
Ni 5.779577552124907 4.089205366259634 3.8679254903552804 0.6224787306353344 0.8370532302842423 0.8518424727782749
Ni 1.4149930179893326 0.8751509891852113 5.64074635117456 -1.5990071083304849 -1.1253710823638876 0.6829531338713077
P 4.957251621137923 6.1890480309834786 9.371093544384303 0.02553851059073666 -1.1855827188567776 -0.8356383522145867
Ni 7.191695661309716 4.268293636982753 13.382842375720497 -0.989254052791935 2.3243556764488678 -0.5758731149616533
P 4.6766234262188835 1.0885888557827725 13.532949710914139 1.4085814380136388 1.39114473059443 -1.388077661633332
Ni 3.595648441818415 6.364834793531078 7.51319578552972 1.0056659184910552 -0.5306116720206927 -1.3622820407264666
P 1.5288115849503827 3.3044850972157 3.0531624243040683 -1.5294268861385014 0.629174140377639 0.0747468539945874
P 2.3702046530409215 8.100899481589547 11.30543698313106 -1.3071650451476649 0.167237405125841 -1.4469644086672113
P 7.81386302220623 4.7978796604742175 5.089617059447901 -1.6311045030856617 0.9979680356261651 0.19193953585821136
Ni 5.201479761031938 1.760501412896925 2.466552120979897 -0.14871723483446647 0.0254804036592916 -0.0643991922116762
Ni 7.813825926608753 8.067096118387964 11.216437225662483 1.5098659332874385 0.7130376119615139 0.7681350671562901
Ni 4.337152339800792 0.6750693924595073 8.668608650608878 -0.6717770626498302 1.830445730724583 -1.0704813723045437
Ni 0.21822876301181027 5.513833965693808 8.739637445879364 -0.028094187133054838 -0.8698975305077729 0.04126183486326442
Ni 8.329751496329044 6.026541492332906 6.787106035689277 -0.9318197219338662 0.38783651370227396 0.6528072064155466
Ni 9.12312431348466 6.627963140339999 4.386642503785771 0.14014312001221027 0.6918229255571117 2.037064465861524
Ni 0.5293615951267254 6.784562205092242 1.6726089590130615 -0.4202583816764053 -1.5141928427975664 -1.3002896581840702
Ni 3.3350704173360897 3.1519016308904204 10.577840224643083 0.40158188831282454 0.23672121094927617 -0.5037163902917454
Ni 2.0312900005849963 3.6119612308092477 7.727938489768561 1.1173556682585788 -0.2875115541282661 0.9572021665627128
Ni 7.902632786970442 5.707862488301083 10.85745014541136 -1.2801394084884405 -1.3138054332823181 1.2613500436960792
Ni 5.789556267846417 4.284476591382413 10.972158079321938 -1.0626968432631183 0.6864462346262307 -0.8472851924248956
Ni 7.680764018456129 8.042585202354553 0.6940308071102499 2.519420388199622 0.8219965930614359 -0.34504898622310254
Ni 1.0980389592402247 8.628992407282535 2.5681068834148086 0.8549946452540114 1.8040335592796415 1.6677913169837342
Ni 8.536967503839653 4.951715103214371 2.997307583181848 0.3335931789776771 0.36711239378104515 -0.36164802823236425
Ni 9.255648335473856 5.6648037735288055 13.274309931400023 -2.2338389612145333 0.2693683075603361 -1.3804021473659451
Ni 0.7453711140194303 8.228563980309161 12.790802204315522 -0.5974084179302679 -0.5490783633663124 -0.6380645008887333
Ni 0.4557611475610951 6.864966912625225 10.565054299582446 2.6731258202772996 0.9714136821764044 0.9172719060266783
Ni 4.372476622498962 5.967197810267904 2.8647511025448584 0.1324454942576364 0.46804490503206486 0.17538625948522052
Ni 2.547030092317898 4.990294524591213 1.5096071941361613 -0.11513040001795657 0.21609582138944075 -0.5069657504669784
Ni 2.3934821404581976 1.9392187276452664 12.379640166211967 0.250165252269324 -0.08430004490066127 0.5564669425208997
Ni 5.752915091437788 8.747902344997403 1.8887640781258666 -0.040512615402065716 -0.7192144301961871 -0.7403134169583315
Ni 6.732238864849902 6.152369758977371 1.7519453133386862 -0.5183472528310428 -1.1157813817929236 -1.0236281593964307
Ni 3.9776867263422035 8.468841439071799 3.324885821048578 -1.9925021058701167 -0.5725239959837624 -1.268981334989092
Ni 9.08891289871082 3.8054147716556175 0.9976527081258613 2.110118505534721 -0.972874068772015 0.886047400794758
Ni 6.626386577447195 3.2122654418860592 6.249319102985423 0.10099987415384541 2.225135777013581 0.5998962173491281
P 8.456201114231261 0.5496556691168554 12.536167821939067 -1.0685800415167725 -1.2178282091540447 0.5560190563502037
Ni 7.3122841748104515 8.128238936930636 5.78520773643209 -1.155059867677572 0.26639379831304444 -0.18351788745341943
P 7.6078062521168 9.158532061277153 7.747171629670827 0.45945536359084094 -0.4177230168490612 0.991687859044408
Ni 2.0503478637891805 6.316916555489219 12.974598833748503 1.4638151616759627 -0.30113120179422975 0.5396794386499156
P 3.1077485959925504 1.537751623942516 6.900863394914489 0.7690485801094948 0.11535511443425296 0.6820848723337415
P 7.029309683350945 6.664548673352411 12.911102299545869 -0.8794576633923822 -1.9294365448681994 -0.9598835700496177
P 8.806550484609696 0.13262047054263823 4.406853112681576 0.02224184211733589 -0.37471437449801914 -0.8474332879669858
Ni 0.823710524162841 0.7059802264477641 0.6172586859602734 -0.40002894200340783 1.0272127914238953 0.2134007910557809
Ni 3.312692498157648 7.886867158042406 9.364497019762826 0.271773574567719 -0.12363818037865158 0.8269459666469112
Ni 1.8569128707415492 6.063043560250994 3.4649346849861327 1.0680804761725347 -0.2930422541385082 1.1390372669970705
Ni 6.537032557022709 0.2788670814287842 9.83429606879943 -0.461832605573766 -0.07913007066394759 -0.5591444893530629
Ni 4.480230059272403 3.6607419414924642 8.413715526440015 0.8852174486942948 -0.07943628905045674 1.0877141912430621
Ni 6.953245160722857 4.602497148559006 8.705785858401061 -0.000537360560708752 1.1189412675781438 -0.23993431856993516
Ni 2.7854064017098015 1.357587580892543 3.822930385394666 0.19311992931955774 -1.4026488745792878 -1.762327694900423
Ni 4.206047224415119 4.134499090779944 6.195703908560921 -0.2922413555037677 0.8986584046905489 -1.1109268819140996
Ni 2.490923001132829 8.447641305113274 7.212221582784081 0.6063538000490137 1.123090513859827 -0.05768989851230064
Ni 4.666505602006833 6.177372191677362 0.13985503944073283 0.7395575126289133 -0.6616929389409507 0.3606342422558692
Ni 0.9828571290718681 5.213239065432379 6.045949908933254 0.6434723021678659 -0.9155001588382362 0.3036611673049351
Ni 5.626215078252596 7.2513268342551696 11.080772133956863 -0.3970564896386452 -0.22808204721703945 0.44808980206637666
Ni 0.6156552287592985 1.2653401038647942 8.047969628328447 0.22323988863338973 -0.3546312305948989 -0.8418971886401049
Ni 4.798436094436385 2.133794410315338 4.963385378180866 -1.1022126419695533 -0.0007818724713470405 0.4731166631280175
Ni 6.738851155100308 2.15551388263855 13.009618005157417 -1.2912301190849633 -1.4626489092820034 0.20369693350445567
Ni 7.414630928251514 2.2962731272678023 8.501507822210689 -0.8703045361382042 -1.3584420981550862 0.9912363733292863
Ni 4.364547438538097 0.39859219489822595 10.990427661079721 -0.31778372274924627 0.12438097208194708 1.4263441613136982
Ni 2.4783568674872476 2.6127356693503305 1.1381541383526437 0.2854413018627987 -0.8280574545435353 0.41546147450839416
Ni 2.6071527819299316 5.519203553428709 9.299739235245948 -0.22220964759666248 -0.9383863194077904 1.1964286604323457
Ni 2.1626455112536433 0.991296377498052 10.026086799488862 -0.08046215921180982 -0.9269315406036294 0.07145841305130274
Ni 7.29497907858709 7.168130683011986 9.077245405914137 1.0147403699884976 -0.38167563630720075 -0.7000370859367879
Ni 4.50154148002336 7.393300959701818 5.291872458185801 -0.07263983495391362 -0.2249026210477933 1.2618002438596203
Ni 6.217073754877904 8.987002018540123 12.718294222095611 -0.8767626330587223 0.48060500108526266 -0.01517079420316742
Ni 2.2489762404836946 8.197941564591293 4.9006363202674095 -0.3571457694866365 -1.3460126141424817 -1.0320793754875772
Ni 6.036195621576486 1.0764864171056625 6.783414096350306 -1.0969686199617945 -0.9887822553618392 -0.11714357379324342
P 1.8280432220045046 4.075943690161345 13.240118919204798 -0.6493734981436493 -0.5749364620799969 -1.3649886410243526
Ni 4.914795709824658 4.046072460292402 1.4973508087295186 0.6679291496586497 0.16756162123447915 0.03689018815813001
P 2.9941247809182583 7.249778093060474 1.6254419068201258 -0.4577435231060568 -0.0475407258934407 -0.291872145089807
Ni 3.677370043061858 8.099916448256389 12.864640991094948 1.168236000048214 0.8997153852001537 0.784818698459558
P 5.508436556260798 2.204442975711678 10.288010466769693 -0.21159047731991948 0.6646710477326683 -0.936596060276587
P 2.8580395815712 5.899451975374197 5.476604824065157 1.4114245638893885 0.43103850301104474 -0.5487171233721518
P 0.8817901737437883 2.6778198951250105 9.580760643498254 -0.1811406454704945 1.7529287701840262 0.814024887709869
Ni 7.956885098281625 7.789602501455794 2.951308114919524 0.5170974395843417 2.749379854945033 -0.3279542355243449
