# total energy = -381173.48708872625 ev
CRYSTAL
PRIMVEC
9.15971810963859 0.00000000000000 0.00000000000000
0.00000000000000 9.15971810963859 0.00000000000000
0.00000000000000 0.00000000000000 13.40617333195290
PRIMCOORD
 96 1
Ni 5.701787229796644 1.7969535309951337 13.230512328358394 1.942773628296738 -1.5046509647454023 -1.1305847653543433
Ni 9.176755349998903 1.8598624761010294 2.475235249044655 -1.8376131950072996 0.2579397540084203 -0.7948552567599536
Ni 3.8969197022127675 2.3904208376864666 11.955974169403104 0.7576753052755467 0.7098394167391904 0.07984997954910765
Ni 0.36812266562963974 7.752034450222957 5.851365429211216 0.005333753508087589 -0.04702033461359644 0.5830238670738218
Ni 7.749955194174757 5.405452024195898 2.5473203999174534 0.7762566678221599 1.0642497895725351 0.3757327884602045
Ni 6.527288519805181 6.06151684557181 11.225686318909238 3.4415316245964727 0.05020901675422321 -0.31767573641647223
Ni 2.4735086421500045 6.118820043094012 5.991701472887312 0.6267914990780754 -1.783998237895321 1.175780388054375
Ni 3.3816672298631993 4.887140205942811 10.911405393266053 -2.245613071031326 0.6453126978107144 -0.5000939630478096
Ni 6.016176240115464 7.41409580422166 8.34890917211222 1.1442748612469262 -1.2172173150429229 -0.07626071953595254
Ni 3.4218234347764556 7.69999809070831 11.512015448267459 0.6375891039142116 -0.34811605518420047 -1.2752383716423974
Ni 0.6463628477800816 2.0374602537157944 8.627515742993623 0.2276542156510015 -0.6989585081606284 0.07640187309950713
Ni 2.1236532026742214 2.441587023965082 10.467901910128626 0.04218897466322412 -0.3936947722552639 0.4654923138135402
Ni 5.074438125209752 6.255483039742231 6.631055304244121 -0.9838956166934991 0.905832553841485 -0.8435483510902827
Ni 9.058118678913935 6.083939835906585 13.220846993635657 1.2988619245986082 -0.33406780462125046 3.0779102746878215
Ni 5.759511774359451 4.688456756861276 8.255253800675959 0.37472311624876753 -0.6189519484289985 -0.32315912812854664
Ni 3.806449164820378 0.5044440047862372 3.393263433198095 1.7414104851317818 1.8575708690761494 2.599393266479839
Ni 1.4245743442835619 4.3057179287818 9.348754707804593 -0.09760704642221253 1.7717903829752197 0.2079261410944548
Ni 0.41133180464362357 5.054112710359726 5.31485050283219 -0.4594998436755312 0.8005564209097891 0.5418430219601378
Ni 1.4288519327175242 6.481233456323461 1.4642084452551998 1.3237059802254816 0.22198673295257898 0.6055248763898152
Ni 0.572092188127105 2.652141467929733 4.883895833730157 0.5457349008153761 -0.8426317528132843 0.6212278889473688
Ni 6.442442049433033 5.5567064520546126 4.9000499128782 0.2637234505697329 0.499770775380436 -0.7722367480294894
Ni 2.8991057920335703 1.1182642054824188 7.7094884748120105 0.02455840606565448 -1.888349802130219 1.678494305223535
Ni 5.2006040847159545 3.96951046953429 10.442511171073072 3.583821615748357 -1.1713138676425892 0.3116809522856181
Ni 7.278202223908458 2.6351501905314456 8.42065907729619 0.7475369312899641 0.6070886213325093 1.6504579679116094
P 0.6890755300636141 1.052185997853716 6.588329798355005 0.12347877198265185 0.19133455528436077 -0.7631301577425308
Ni 2.302734854649376 0.6181353439750673 12.305071184205797 0.5124157178379563 1.0808845699157386 2.0478448443064794
P 4.967470935205872 6.319802581462323 10.008352432518791 -2.202381256925884 0.14396326508924884 -1.4841536161229987
Ni 7.222034831452234 0.16001936227511412 8.645252621459415 -0.6114466411908889 0.5764256450310137 -1.0814769520840986
P 0.7239786365467263 6.137102840768934 7.77651929314121 0.30060001188110813 0.2998042554526901 0.11155270996902723
P 3.1073886258662666 4.074279327152408 13.043858337286116 -0.6051903758685319 0.8245355574332057 0.7706151532656664
P 0.13251456024191915 4.114682844459063 1.1474937824666096 0.3412015874525543 0.22836024057909057 -0.16742072478124068
Ni 3.5416233900822225 5.567698113983424 8.310781844796658 -0.8097231750107217 0.9098740709007104 0.5880213202884131
Ni 8.738087282138325 0.3693647234275954 10.261514222006824 0.5200837759061753 -0.2692765191774782 1.5817352086239145
Ni 5.022649078088503 5.8285302515541115 1.6985754088167924 -0.5697073524705737 2.2664598325733483 -0.5263783506656353
Ni 2.7219385211776834 8.441101736540125 5.232041153804182 1.5904324792875966 1.6270488449590497 1.1105083063194423
Ni 1.9334974513057894 2.4712461917363244 0.7150717264970797 -0.993234891816554 0.2298658785903396 -0.6579632966951894
Ni 3.224587221182215 4.413170583854202 2.030820373938965 -0.8988715491426196 -0.11247984976898692 -0.11138378849133075
Ni 1.77341305503093 7.116716390737675 9.647792946268 -0.8780163029601654 -2.35549507816615 0.6307821082947072
Ni 7.703158193512843 3.9747681478235717 11.930515648432321 -0.2890056221752894 0.6620768046429307 0.44132702942124635
Ni 0.9546533176720655 8.080675982176134 12.011972107071259 -1.1179310811460748 -0.2059204235183357 -0.15191543005678998
Ni 8.125366247635025 0.17340537456075125 4.360009410935508 1.7198479284696573 0.27097421859487525 -1.038115040158696
Ni 6.352914963022867 8.553775431028711 10.970177809599406 0.5387839234188397 0.18768461723659932 -1.0088116632088884
Ni 2.4859658590026568 7.774017774080578 7.568455376575264 0.04258929542543633 0.42091169898968805 -0.43679263188600265
Ni 2.2128505392265234 0.11667832331798457 10.057150831623575 -2.6020312183233187 0.7769616643089845 -1.7596249512572792
Ni 4.338876108933714 4.024798529036211 6.046198132730358 0.5317576126996777 0.03864162363159797 0.7533278269401285
Ni 4.12737821398684 8.308414057622826 9.145504223191638 0.1640327821456143 0.023551819178011052 0.5700701351266312
Ni 0.8981598392452862 4.768732527814693 3.1264802266647838 0.611964718477888 -1.2076746656598103 -0.7204567872437205
Ni 2.174562916841165 2.18362187821416 3.0852028722347886 1.8533534885606922 2.461193900457561 0.5369702672488688
Ni 2.2068509237570475 3.001667157547652 6.804799588381011 -0.7872131668336636 1.5597039398554882 -0.8311790308916523
Ni 7.595091837316082 3.626185909187876 4.509327474351097 -0.2788993869792229 -1.1909753506272585 -0.7053322728974561
Ni 4.093798686794322 5.566507350607803 4.083319053117028 -0.11984554610543874 0.39526263096301606 -0.037494911621664455
Ni 8.816082283241515 8.096623051691184 1.991701965106154 -1.5402612577498442 -0.41194471960438733 -0.6472664791029756
Ni 4.307897941731014 2.4310808271047937 1.3315042788450087 -0.9318667731217177 0.7990613244215012 1.9208894266291368
Ni 7.746996605172251 4.630109351455837 9.692637094993895 0.5784683864926554 -0.12553102652599027 -0.8242015711325549
Ni 5.388442427361063 1.9378116786128479 7.139886814083608 -0.6859775225199283 0.5309672555878985 -0.7370116062786081
Ni 1.6579639659053174 9.228507758247053 2.993450890255865 -1.305883350221764 -2.090400458280503 0.9168615579621372
P 4.975613924751466 7.650407375972824 4.897476032043203 -0.2409303639346173 0.005673396235693455 -0.6014550771958158
Ni 5.912011923903432 4.02013623243474 2.308878277695754 1.0659438894455062 -1.7218371909855443 0.9595117885324959
P 2.6784115399395914 3.8158470357695116 4.561329942908129 -0.9903210606038687 0.2536501254941309 0.36861237536533936
Ni 7.809969668306065 5.642386456789695 6.978918504995308 -1.1362895290486044 1.034040098758374 0.2348291361328859
P 4.035762711810199 0.5539092313813693 10.870985388466504 2.2937616057120946 0.5957266593524707 0.11834556452114456
P 9.019968452302686 2.9545037681547783 10.479042875465304 -0.5044987769837248 0.08368118036973976 -1.2645220136661577
P 8.753374851937647 7.1082711304890385 3.835144730229194 -0.4673923590497306 -0.7263027045015362 1.122214539012777
Ni 6.043756151838506 1.1221662454671466 4.580768697029232 -0.9344502175781778 0.0972532626272196 -0.14891829510167903
Ni 4.755075387868145 8.817108171688204 6.825056305343982 0.08890283377999529 -0.006317200467279444 -0.39332736161351617
Ni 7.787876427829154 0.35166539980672734 13.469719287055971 -0.012305813950546548 0.10887387758528347 0.037146527143310216
Ni 2.17937176893502 6.108643596091588 12.439373721454803 -0.33069811681806915 -0.9141999519695739 1.51617567755555
Ni 7.59303090070443 1.5379991356706184 6.452351032661856 1.6623277227660016 -1.0715422094688902 -1.4416885049802526
Ni 4.938214795038687 6.079396615642676 12.665522585780955 -2.8529135512643253 1.9140832023405812 0.9211491295938974
Ni 4.992531924403561 8.806601974827915 12.83210763411488 -0.3408735146891742 0.09908543073995194 0.641034896370967
Ni 0.5058042229499276 8.831919436137277 8.261849713805073 -0.4639139135828269 -0.6185827380150379 -0.8083291228766725
Ni 5.2845162638241545 1.6473478524257408 9.305667393043654 -0.9685222195612223 -1.0857730083562913 2.155713163445384
Ni 5.610941143955021 0.40229482659448607 1.927003211049517 0.47012467037922906 0.27561660246289305 -0.1998924721567009
Ni 8.166713215923902 7.020521029424031 9.258558045988597 0.6354468607602282 0.48695871121743234 -0.6312438784224741
Ni 1.0020914986131595 4.0822574417690705 12.023447402124937 0.7302940850491164 -0.3693248280513317 1.0737649281518216
Ni 4.539730411246188 2.9629215492485925 3.782927008292722 -0.20443663988395758 -0.38563204985178745 0.11655556250025732
Ni 6.431633581869702 7.675981309393857 3.075818740863066 0.12738684878780643 -0.49567706492703667 3.1944987473085438
Ni 6.313729688246655 7.639571429254671 0.9543492150253685 0.8084833890663495 0.02663842852313477 -2.430345547618137
Ni 7.014255782124608 1.95577388614818 11.054798034930187 -0.47403634672880945 -0.5780274423004949 -0.3384348233406945
Ni 5.275008476255732 4.013788547670851 13.344210079350015 0.24727430387477414 -0.14157445314209813 -0.755294463748196
Ni 3.738438256635859 1.6107456182028 5.641666502933358 -0.4864845997944912 -0.28702150186572506 -1.7322535012228617
Ni 7.010820887771854 5.644822941850581 0.20074804958049622 -1.0977448360061868 -1.3869952272024306 0.8261432682399578
Ni 7.433267094569161 3.1086893058611755 0.6385294567121489 1.1316638573511348 -0.6151348886757535 0.9520363060910574
Ni 0.13212618818710117 3.965544311521645 7.501317389542257 -0.7060339269501712 0.1096197546123725 -0.7364727030560027
Ni 3.647390656992208 3.342939941000688 8.800334895584838 -0.1717975136926977 -0.9500167045578671 -0.6026904922648135
Ni 9.152124867560092 6.0171471702525094 11.170520083660364 -0.060541766138798955 -0.02416991237798418 -3.6010073834990246
Ni 0.20365900804797635 1.753774619051454 12.167000338858864 -0.02757302452226219 -0.3911637783032941 1.2946278319126026
Ni 3.4498796518497463 0.3747744530402253 1.1743381688122485 -2.2682806878321706 -1.2005408828285067 -1.7515298329539706
P 6.86488825623034 1.9073006570421231 2.588423719700242 0.9166219311475053 1.1986647488517161 1.0276833033024109
Ni 3.621129744700623 7.630054481967975 2.6279185929541153 0.4082598145536323 -2.0270906424782638 -0.36981230921071145
P 0.9716445950703527 0.2443171655226486 1.0437453174642164 0.35845780342984074 1.7339545430743686 -2.2754034149198814
Ni 1.8025684382971014 6.922777675722078 4.03874420010839 -1.4668081828660158 -1.294218769399642 -2.639208084483932
P 6.679156648788253 3.5659699212545393 6.503268074603419 0.2512826537032189 1.3356461833064934 -0.503573694066294
P 8.00207643966686 7.735391242119081 12.210315730604826 -1.2729547178145433 0.13838371411894232 -0.35328962896533994
P 3.270220937623329 7.372611440158672 0.4382366451298709 1.0356622077428292 0.09496523792399128 0.16060370185940728
Ni 7.006662375675455 7.996186740816673 5.875831952692922 -0.8355337083159223 -0.38039856936699007 0.5505611185594259
