# total energy = -340861.3663675906 ev
CRYSTAL
PRIMVEC
9.31983608453632 0.00000000000000 0.00000000000000
0.00000000000000 9.31983608453632 0.00000000000000
0.00000000000000 0.00000000000000 13.64052217319051
PRIMCOORD
 96 1
Ni 8.081966222669442 5.488060095953294 3.239160325034381 0.3143438438297619 0.9668993392458185 0.2967415573669664
Ni 8.336938301005969 2.828449124136171 7.564010734812162 -0.17358160217631396 1.2717118465463777 -0.5985242767022659
Ni 0.5285549375499519 7.04846162865773 2.6837316398463202 1.622254766004516 0.07713566594173812 1.607733175349573
Ni 3.104623829792516 2.3465483545423864 0.7374926170365829 0.38007435325835187 0.6890368781715424 -0.5888057638629214
Ni 4.437565440577174 -0.1483857718120844 5.883334852179058 0.1858917870022347 0.942966225468989 -0.5724969994005689
Ni 1.8883106490211372 8.698119232501462 0.6134605091583086 -1.1368112058800293 -1.2598564898696882 0.7811530766825128
Ni 1.0489755220780412 4.749127564226201 13.403968273437536 -0.092303374821112 -3.8006111207707125 -1.1172553952352886
Ni 6.815092930596957 1.8993080557188895 4.208701019344388 -1.200017663335185 0.26874481504372427 0.009159040791448744
Ni 3.71198823410252 4.119069358806853 7.02961598790898 -1.6983738177562813 -0.9106772835282961 -1.6710633028667865
Ni 6.592106530045756 3.473521585648806 1.9853236198168243 0.9212424606386521 0.5335033917461909 -0.10739523615722794
Ni 7.344319828335814 8.938757402786173 7.732375439453035 -1.0593137857234982 0.5506747613191549 -1.4201868834630509
Ni 6.804682673578831 4.239910354775542 4.446960767434804 -2.0371027752986275 -0.10950508341137916 0.5990935189421747
Ni 4.434862688083658 2.537530437635891 5.368473549935044 0.5486942405540164 -1.4793459103217104 1.663740286842812
Ni 2.8481232983217257 8.750822906125011 7.957007723074424 -0.42354630839905766 -0.47165267698798125 0.42337224471503865
Ni 3.48719378533152 6.925532989383704 5.937732872020955 0.001000930460688599 -1.1306840099363689 0.678105061750387
Ni 7.870527099150881 6.2282787650738545 10.903510280176489 -0.36609320848791144 -0.7986900571250116 -2.0852507957587636
Ni 7.3087553334556254 6.804710633087384 13.025730177757104 -0.6609272644195198 0.24385499378058 0.8964184596164368
Ni 2.1532829115836702 2.857061021222696 11.510596021384577 -0.7696818428181197 1.041388054483013 0.7376384412293296
Ni 5.076840963983027 7.5657591360803815 14.118213491095412 -0.8236295006791686 -0.29941524754438753 -0.6698443644034916
Ni 0.6613262558184653 9.021955580405523 12.243991638434437 -1.5564334966343325 -0.9998503402505425 -1.26407489882641
Ni 5.928618072232479 6.583327244359924 5.281882951944523 -1.3620750669219832 -0.7220146186491436 1.1166036205839027
Ni 9.147894526767152 2.962962319787574 0.5548797468367913 -0.5538277051258397 -1.0809992411167317 0.2850350675633156
Ni 4.601408160701311 3.4112743997722927 3.3670405932732494 0.12962807941349935 1.3959483226306604 -1.0115856264095997
Ni 8.129040715237531 8.376789920531042 9.757052067559062 0.5277901434114974 0.8906617596383177 1.0511279074785962
P 6.253088168997087 5.136758190813407 9.412970239511335 0.4352155172068699 -0.4332691921137764 1.0008435574017474
P 8.779117928781261 8.121184093333968 5.200380984510759 -0.4144793131007829 0.5936486937775196 0.08807365301048058
P 0.6807842098045388 4.856007445590455 4.137838576898889 -0.03252034122520851 0.8301824713063379 0.3829231355610566
P 1.2422223253643878 1.5493482069895756 13.24198672459945 -0.6293731437623226 0.4961360068413262 -0.6508112590314404
P 2.457985635800879 7.651231353728757 12.194313183636387 -0.8396176485773089 1.4943907204699747 -0.023860865777997616
P 2.318514287299303 0.2696424324746039 6.103778801419116 -0.776254868049947 0.4184120724962858 -0.8180453217231719
P 1.2819061878381406 2.738428826429741 7.151275265494672 -2.8620296546329804 2.7022983280761976 -2.5990196851905045
P 6.326621676493074 4.865625516532896 0.12448691588407959 0.22610049801063642 -0.07115013778226456 -0.535781132036774
Ni 1.2087268341171669 4.573252935587829 2.030473566212807 0.4117660279346779 -0.9219613410825477 0.9940712716749202
Ni 4.295475218107743 7.340843529438982 2.9624487968138062 -0.5157285842612731 0.24834979632714002 0.7235755353783602
Ni 8.055488568069176 6.129553740371068 5.897207428339739 2.412704951718238 0.2937562494863973 -0.13794919768468503
Ni 2.8977887053491167 2.1802824770102704 8.08195503886602 3.728190858026773 -2.6479683471750657 -0.35529174699703325
Ni 0.34554131439422536 6.418347504221273 12.56064332462384 -0.4372297194234212 3.7834014417606454 -1.9919812003696404
Ni 8.344711044383871 3.37469404274799 9.792735856342413 0.8696735874224248 0.3686457997064361 -0.0201618196598556
Ni 2.802157866259596 5.375821308782931 3.551391612921457 0.8608300209888657 0.9252456682607743 0.7526814516053811
Ni 4.616972287129485 5.691987431507119 8.048590025325382 2.184632931803528 2.9917657203792536 0.4343490554415165
Ni 0.00475498042135009 5.5697857394554875 8.22453921265323 0.4339240520889559 -0.8102147699351594 0.3161824397003974
Ni 4.434089141680342 3.557278953439228 12.05395179077919 -2.2051860733645317 0.8685106774625753 0.862228186887973
Ni 6.717421047383024 8.85423580842862 4.87749619188114 -0.7728013622837079 -0.5896038342841846 1.6059935669506469
Ni 8.085190885989292 4.294673712195873 12.461121453927275 -0.31357019888853094 -0.2886868053832899 -0.9817209776396835
Ni 1.2749442702082925 5.203078145102563 6.279454917546758 0.36275514525361396 -0.39235394195665335 -0.4478802571587319
Ni 1.5550612665706962 7.821020129338629 4.954114565154207 0.08037165638053255 0.07656590948119717 -0.7557282088515049
Ni 6.589776570999622 4.594725838156999 6.705407778541157 -0.8402745654350173 -0.7693519702825267 1.2855258696113345
Ni 8.025963327036566 9.50390294918023 3.185839678255415 0.6478223516064456 -1.6012789350837973 -1.0956126201545324
Ni 1.1763963223930125 1.3209935807960833 1.7795285890916188 1.5244332895786519 0.3822186532948643 0.11109119695157642
Ni 6.2892304937207175 3.2460989430737675 10.75807516850043 0.7076948595923619 0.1811473303387138 1.4683922395236841
Ni 0.4601165844960513 8.112209091088259 7.2684069666619155 -0.31816218913458755 -0.5324471825675345 0.0032226207023557402
Ni 1.2735928939615349 6.712779768963125 9.926344095900298 0.5309893670750855 -0.9375774503532498 0.9329260676241675
Ni 5.6642981982028635 3.150179189062526 8.629144056883334 0.36455080370145604 0.32225924202209666 -3.013217976715759
Ni 7.364040601702292 6.60799685074039 8.347440824402321 -1.1690584959495092 -0.02893725185964049 -0.8238313322773295
Ni 0.5993260456008419 1.2602189290367263 3.9729930424012965 1.7687832207177796 -1.7762386485545605 1.4189764080947174
Ni 2.8866235416000423 0.40369429623487246 12.383479762641146 1.4042311314647429 0.9511932413644714 -0.5702202875512502
P 4.349120195185931 4.963959108115931 5.0964536272497645 0.511813565477583 -0.9121350990207452 -0.3695739679476603
P 6.365056680918099 7.122246771730698 3.336049342008813 1.3011070118790429 -0.36392833962610877 -1.2724003879729697
P 2.4296906131446288 6.2237306850158 8.039956129084029 -0.6221858819852639 -0.38533354477476217 -0.3304800872699921
P 8.609114796939147 2.085425184324066 2.3953712483786944 -1.8018139259205033 0.7200474676204438 1.2504992170245044
P 6.350629574504437 7.864403966777641 11.017190846004599 -1.0380263370996317 -0.06425623887590869 1.0094292421882294
P 0.35135036828804644 4.786323030438682 10.81603429774844 0.6677617708428499 -0.2884008987117549 0.04117030359072264
P 4.06966490719263 2.9224396720572132 9.99173672648909 -1.2211421040186259 -1.3495774486756047 0.43966403989652675
P 6.203282964426929 1.1539075576797282 6.531000092118231 0.35162046879303316 1.2904269064573777 0.2686993065177695
Ni 2.574483588107575 1.1040837134372006 10.083661066728022 1.3156913374511212 -1.5281508476395553 -0.3939896777878634
Ni 8.525515866363863 5.071631175555872 1.0533372054124037 -2.3984574406602888 2.3731040494971642 -0.31493005535053503
Ni 4.9290656414410305 0.8828652858102068 8.777471113727454 0.7048622752395732 0.7232515763800383 -0.9079053772101138
Ni 7.056644444827751 8.067157002972214 1.4495234416170144 0.4634534290066405 -0.6947516691681326 0.7177455589601446
Ni 3.8647403491670596 9.352082817734145 1.7125814098272438 1.1136159987104886 -0.9476829142183679 -0.7824702528320394
Ni 1.7839750829352607 3.831645610875773 9.067154921933284 -2.3416023793444576 1.047574385799383 0.9196707452761581
Ni 7.050111239662392 0.054629151779274174 12.74383495665069 -2.0493779931215546 -1.5540421135840206 -1.6391286589417189
Ni 2.779277668426561 6.546672328646145 1.148170266524528 -0.6570371853364942 1.1182966920156094 0.5560879619149262
Ni 8.702136081896997 0.30226931498942633 0.661611442805712 2.419437385346065 -1.1287078600466045 -0.22174196393162454
Ni 4.724569795879949 5.250264475704868 1.5081918103986662 0.2922611529981095 -0.3693757358939251 0.5189604609350095
Ni 8.439745413957581 1.7986258654173508 12.260169942067174 -0.5561530108249068 1.070472116333163 0.14463432301434445
Ni 2.9330363257990304 5.7462102384287475 12.351725216793195 0.778892305672794 -1.5081625774430865 -1.479531543969955
Ni 0.5630206237439832 1.1089393480893435 8.25210635610347 -0.1498775736911548 -0.734266182322987 -1.871646887553241
Ni 4.3080010779397595 8.324878432983178 9.689940859177838 0.9860553433489793 -2.0188481999638133 1.7612308622918185
Ni 3.5405964466689093 5.0125900133268395 9.933124276724547 0.1550524330238749 0.7248204635290548 1.3128240432056553
Ni 0.26912238561550683 1.3003035444664142 10.430225699135308 0.04024393512171134 -0.08873519785387943 0.7841283572607528
Ni 6.1771874231102295 2.7015315949751644 13.183442309639053 0.6896210328097865 0.018504229451774584 0.35465668451619564
Ni 2.190161503365878 3.1336551195073445 4.24872225988802 -0.9420696817966485 1.4124735739791934 1.6201451758606809
Ni 8.886939113600155 3.0493572012182195 4.68730629486332 -0.12280308607186592 1.7669795918501374 0.6764443862185124
Ni 8.55427688082934 1.084586616139152 6.071969268537678 -0.6199783328109839 -1.2822037472166368 -0.622097950257148
Ni 5.205575861200019 5.79524189659559 11.797591988834787 1.86630207830156 0.7816937796773312 -0.48207618631415045
Ni 5.027837265324739 1.2184381034214529 11.429557249809184 0.30103452831536537 -0.8509199609640056 -0.8305797067447566
Ni 3.1308498488157994 1.5506995832363335 3.1533209058403333 0.5946681361809694 -0.6328009384969489 1.0692482712283908
Ni 6.804347159476187 1.1629850781234656 1.12427327456376 -2.598281521472899 0.5594265393698559 2.1521244176528613
P 2.141614476680632 8.783433012934701 3.0427363895927253 -0.4156725620779357 -0.21042473914659246 -0.8564390910100219
P 5.295726636613032 0.2594474636723404 3.3952349616987068 -0.40006210923418845 1.0893370715584658 -0.2448019310748816
P 9.107921749371679 7.402279889567441 0.8629515918347095 -0.9351076486565185 0.5858081146871781 -2.3710286550253747
P 2.8659521449427423 4.5921349236976985 0.483575544156146 3.1775695756533726 -2.267032417247367 1.304934098934617
P 7.4039295005721035 1.2439185355499733 10.224976810810517 -0.8062030776726051 0.4799647963981024 0.47293102947977256
P 4.628463645145017 0.9571471761518113 -0.0775373091208628 2.1813946273718883 0.21211755346798306 -0.08755737549569437
P 5.223749541759864 7.713394661079611 7.274886116777405 0.8011827416398782 0.24635847692872412 1.2244230887627428
P 0.940054596589373 8.726768408932726 9.533129023471314 1.4166248771434053 1.022767096947716 -0.1206515869465019
