# total energy = -340890.4448328045 ev
CRYSTAL
PRIMVEC
9.04808628870203 0.00000000000000 0.00000000000000

0.00000000000000 9.04808628870203 0.00000000000000

0.00000000000000 0.00000000000000 13.24278887809358

PRIMCOORD
 96 1
Ni 6.542245889388258 1.7830520638824645 11.492197802354038 -0.7606302741388126 1.0022671772221514 -0.04929756068354736
Ni 4.775652294349429 0.34474656211801297 6.315989445240951 -0.4838145091614958 0.34400126168487855 -1.3004264408722508
Ni 2.581219942152101 1.451566376936102 4.828042523210572 0.7688038110885405 -0.1722096615294518 0.6256077631826193
Ni 3.3141511187380592 4.410462486214203 4.9092210480144285 0.8944369104100338 -0.7669677863210662 -0.6497907881867261
Ni 5.262792208627877 4.4103629572657255 2.870718889779054 1.292432624033497 1.3267326828669475 0.6687958685343192
Ni 7.3455259363751315 5.817530375094781 2.3094760541248553 0.14554320798185902 0.9737713837753035 1.1690392126757996
Ni 4.998968110473546 4.408309041692606 11.395088312133474 0.6034304557546318 -0.35057171581354457 -0.4974320999449305
Ni 5.580506708339487 7.734955567507663 12.37105560877137 0.3317723237188544 -0.24938003736386732 1.0805868361696616
Ni 2.0156602645598607 6.394092525536862 0.25946473021102956 -1.0714167396346193 -0.06592771304106065 2.2671558301991084
Ni 2.6468276153710137 1.1110506999369918 0.34443440314324364 0.12626559069916965 1.427536638959903 0.4962249670107067
Ni 0.1610722213637339 0.22937441466051034 4.845708911565271 1.868779336197459 -1.2004961456335004 -0.24665312535100742
Ni 8.67141439564323 2.348819847457885 1.2807421282388496 0.510148004849702 -0.21094821575023026 0.5805949459173549
Ni 6.945066688134083 1.0218637140152127 4.822997310331401 -2.0829943956244192 -0.528131071690684 -0.8232037259956598
Ni 0.5308448851720227 7.306745838813932 2.3809876036057096 0.00769942552678674 -0.5813914736767213 0.028126068812254785
Ni 7.4766598500369295 4.058645749519821 4.079163189844079 0.6353751269820284 -1.444984659233021 -0.44217523635415457
Ni 7.706996981071802 3.80827615558236 12.355733579557619 0.08600237230374866 0.10886744982738025 0.16154009763074761
Ni 7.844138823987131 0.14078550723821695 6.842072322632652 0.8577117870748584 -1.385064585838621 0.961115642684506
Ni 7.120300974057497 0.6414188325043026 0.6196328504912704 -1.4909559837568127 -0.6531093110369978 -1.3675965109608448
Ni 1.8973565371653938 6.69204600493264 9.06595981472749 -0.11689109146280514 -0.9877887811003183 0.18524104079211326
Ni 0.21471289574119912 4.718287427681672 1.2352438266554402 0.018092081615020454 -0.18751312465574158 -0.13565217412039218
Ni 6.4676806108064 2.033249744181646 7.244825260731788 -1.1924951297058946 0.23361814654392024 -0.0050491323881332395
Ni 3.8630713657621607 4.501223839139167 0.9624756952675018 -1.1143217665282614 0.40428771727976176 -0.41578980438209034
Ni 6.217301968782714 5.855505192981937 4.931376191945448 -1.158185043570115 -0.44658236428291476 0.27379086210806397
Ni 5.2135253791316725 2.963809220098384 9.362360642527022 1.0303104565126127 -1.1187471492894667 0.41851003152673083
P 0.26532969970220305 5.413153305518222 12.402586379648941 -0.5529429885280412 1.0834281622731987 -0.6940037352585144
P 4.06614661300051 5.904799166736818 12.555991252745441 0.29909925896586553 1.4642509636618009 0.6071654973170318
P 2.0277485077567254 8.347049552556099 1.3381839036395204 3.1056097974856187 -0.24132682804208758 1.1443828475797002
P 6.486075370102227 8.011727477050252 5.6042027413546585 -0.41176268550056827 -1.2356269278983625 -0.044939797935483895
P 4.943847169189639 0.9165801826988063 12.74599925385736 -0.1471432054791272 -0.5550374091632247 0.4332967029176021
P 3.961532640064768 6.457429129113249 8.003928026724132 -1.0564814584810256 0.03333280982417485 0.19306259371906107
P 4.786084737767083 0.9908559225214585 3.949966471443097 -1.1294298258142936 0.38979183765643194 0.06149435986005539
P 0.18891680191315896 5.41381381581266 3.4180430543930305 0.04971459361630793 -0.15047844049994727 0.8009261455443819
Ni 1.6362649610510738 1.1661173527035482 2.5923418497401154 -0.8313281548750069 0.547094243056748 0.080340546032281
Ni 1.9129916301625365 6.381705695494565 4.615959001326416 -0.8672282112057258 1.0694081938450228 -0.38923622226327803
Ni 5.736432378258328 5.695544076606658 8.99503186680816 0.8786379957045642 -0.8333793809770809 0.8306362710143049
Ni 8.762266229430447 2.4625995317397527 10.213911324716706 -0.6503119507975188 -0.14293430960410222 0.9219839667903669
Ni 2.314681418130212 5.377856721153723 6.733851782527546 -0.5083541461740729 -0.37190390163241754 1.8962212344584954
Ni 0.6616186850020579 0.30990871572513223 9.409173631038954 -1.5257278400203593 -0.7683947485755799 -1.6299050834609219
Ni 1.4093661027817777 0.9107803594284541 11.501321892503528 0.12147691106127467 1.1063449189703722 0.9944060293065198
Ni 4.140549026030315 6.863353421434319 1.4725452696578467 0.4666459678020093 1.2167329192073368 -0.03516292105437815
Ni 6.017864052206894 7.9097374491198185 7.758579215833034 -1.025368282015989 0.03185339706517095 0.4797452241881286
Ni 5.3041962511943845 2.8941118119056815 4.997828051609172 -0.6622416123555692 0.030496625926960383 0.2075160501402297
Ni 0.5721855911349534 7.393815572559015 6.704678038111639 0.17851374937060868 0.9527929817514237 -0.02007208815952672
Ni 4.815527210343878 4.783759379607206 6.985915178206363 0.7278883038211013 -1.0956002788593584 -1.906307157939588
Ni 8.474727097279871 7.0719027608389124 9.125274543976778 -0.7629159848491958 0.8435421804426957 0.34813379579601333
Ni 4.59605683086547 0.2968288022779857 10.644129728552434 0.05168662974101421 -0.0784387010238778 -0.8170287075331992
Ni 8.172557209703152 7.088867922511159 4.533271255740196 0.39490190518948765 0.5627370918003276 -0.4695837102740945
Ni 7.360799105923267 6.053233021261194 7.234469726047049 -0.9246178048687882 0.4024097835307585 -1.7534183082259351
Ni 2.216744932828666 5.02718909140994 2.655205238406925 0.36563426657362186 0.011318767446928894 -1.0386544576019339
Ni 2.2675951774142806 5.681990043441311 11.407139458176816 -0.376749402650177 -1.095377621325591 -2.1996893119160177
Ni 1.145297706299367 3.4127662105064944 4.086379943417298 -0.8175282728774372 -0.4282699391269721 -0.7587202016002933
Ni 3.711959277715125 2.852210124596789 2.9761182365991434 -1.1880118971235605 -1.559029796606599 -0.2884086120212388
Ni 1.200156253082744 3.2553747506191715 8.448859523570652 0.46934382634914656 0.32936088606388436 -0.9105412721710642
Ni 3.5906153933489913 2.43645056254893 7.069570164210056 -0.25365218237665993 0.34740823048389846 -0.09371285357412892
Ni 4.047670420928655 6.921016874947506 5.767327068674268 0.32754954388675844 0.8949177067011943 -0.05823702926502229
Ni 0.5298269754716879 7.511323068365664 11.40818541694445 1.0330733639697305 -0.7655415953975009 -0.5162078378905368
P 0.3229108156307421 5.515351439431835 7.763492326653316 0.8783569741290357 0.1960252758918108 2.908796992695507
P 8.558268077397127 1.7672902976781693 8.123762690307903 -0.6832981759155522 -0.14128906069119537 0.8984948825294913
P 2.2249244027762454 3.6550287191861774 10.607672274725243 -0.11337562211037892 -0.6082813560890299 -1.429028907234713
P 3.943843631494505 6.147830762745642 3.5330433255066773 0.19401827276411102 -0.4954520934004241 0.9380531044380878
P 6.926346197734148 4.0854914213499836 10.11423308281681 -0.06815325993746972 -0.023126301604818236 2.5378713958159578
P 6.217510074765893 7.574822537494105 9.903129468670842 1.3620889508790541 1.1108741742992934 1.5849218338820124
P 2.215822028033696 8.373171377488246 5.608559394872092 0.1825796919098662 0.7611781762224826 0.6732459338858728
P 6.984217757230517 3.753055685349975 1.584526194398145 0.3209430943138344 0.8548429501674956 -0.7048594470260957
Ni 5.304847713402598 2.901323136627165 0.4672585544158196 0.6849297979817043 -1.2175423024825096 -0.8032920746733972
Ni 1.1955688733665686 1.04112708958866 6.971308852613026 1.4626093142933199 -0.3140959894850139 0.2021558142695809
Ni 6.869288965998049 0.7368860950749918 9.322618733400086 -0.13534158485850886 -0.5051464378700526 -0.42222938935984705
Ni 2.800473167561105 1.6909425461099465 9.500390102701045 0.3366324800246331 -0.1282887917767855 -0.30240672607254365
Ni 6.234837159887148 1.9608288620351593 2.569511718576695 1.4189969769200077 0.6323923902046206 0.9184132187199732
Ni 4.173411675200234 6.898107120625305 10.381975907115274 -0.7787650360663104 0.0792030899937281 0.006122825068286229
Ni 7.9855785078594295 7.076969689125024 0.058159288638329205 0.28913417733335367 -0.18364489994958696 1.2835065251884605
Ni 7.745578020736047 3.9500325224725406 8.195988133791925 0.9341082608577267 -1.1001465034691442 -0.39977723100391793
Ni 3.2417211885053474 8.162957190218215 12.490995230155352 -0.4948543119154252 -0.07930207746543762 -0.8027521430095271
Ni 0.12654924837149004 4.854497317715807 10.032749637507166 0.3194382276335337 0.7361366598728226 0.8821642636902678
Ni 8.505237244031239 2.335663930086447 5.897662941131004 0.8323627667871085 2.3944064105193665 0.03284481444416279
Ni 3.614764735484045 2.351669994618822 11.761092448028968 -0.2832890314064863 0.6087199862883452 -0.2156006269205771
Ni 1.1768936233977594 3.2683858986110064 12.559699158480528 0.2575823706690016 -0.15502852176447493 -0.030557046851250602
Ni 2.9953056082482985 8.510050825903045 8.061985071988115 0.6924309914547558 0.6713474313115793 -0.6959294915263176
Ni 5.396604355812333 7.864877037615285 3.601190796529003 1.6055503087656415 0.018139389913188114 -0.12591746333113152
Ni 3.0913329473563276 8.376365351925742 3.4954078108529654 -0.6452491915626306 -0.03872801269781718 -0.3824875906855348
Ni 3.486408584293383 4.207975364580491 8.809990360225253 -1.7549290884435067 1.5906654212340088 0.9410440687456116
Ni 7.242042974217539 6.126893491220533 11.358684242015013 -0.18236243369273755 -1.2927249584629348 -1.686821594142308
Ni 0.42707238425522415 8.856574432155687 0.22682375915362693 -1.3951625935045715 0.8731288929608769 -0.20701905589915315
Ni 4.706416338554211 0.45566252710960553 1.6702604306163884 -0.47134131639514953 -1.0448523588825296 -0.31596723836579776
Ni 6.065031725698852 5.435592559356712 0.3655562556273464 -0.3999476951435112 0.17940309395409748 -0.7200022162048052
Ni 7.5458324692285705 8.64262338527465 11.39507564481276 0.509068398632278 0.3824850195823736 -0.2481345949925404
Ni 0.01156978785616098 5.146795743220835 5.7450923015844655 -0.24489577634026855 -1.5676342504461585 -1.215385404040507
Ni 7.953294936207922 8.94075782639493 2.7235780067762576 -0.6800225904880741 -0.03517963322492651 0.07907427772534768
P 8.590524504789958 1.8413126910865159 3.6162477168163556 0.14739594491988162 0.6249109942259109 -1.2354690621642594
P 2.2214770819244447 3.1331170095442933 1.3443148868657149 -1.2740623490564251 -0.565269114193562 0.083385760616508
P 4.749991921814766 1.0165162950561206 8.436013955556739 -0.0022630850025638443 0.04214500879916613 -0.2589879927672766
P 8.518565075040957 1.6141785825753647 12.364911053415838 0.31427288138251036 -0.21843243994241737 0.010803518373407199
P 6.376484949742627 7.6545814175692275 1.4137471861320186 -0.28459618025368405 0.22180984105508253 0.41370695371113264
P 1.6181597405144519 3.201439108630765 6.145408590063156 1.2700357443955352 -0.2439701792022056 0.43416470734485224
P 6.777604708278115 3.935039843597387 6.243683473789525 -0.07105912073035504 1.5003070859544096 -1.1324007355171595
P 2.357116942526392 8.484562367006662 10.319403866824917 1.4673542851774728 -0.9871367493386161 0.14751113034150723
