# total energy = -340891.13586059154 ev
CRYSTAL
PRIMVEC
9.09825707800607 0.00000000000000 0.00000000000000

0.00000000000000 9.09825707800607 0.00000000000000

0.00000000000000 0.00000000000000 13.31621889958426

PRIMCOORD
 96 1
Ni 6.12663887954564 2.007057294850218 11.433584853045629 2.337238445948807 1.141472873021757 1.1334569446958158
Ni 4.7084298751604345 0.6214036736164155 5.725401197284051 -0.5929372695327917 -0.9249016546577941 0.7397719426325646
Ni 2.372343214627104 1.4829249063347676 4.845758966124402 1.7684410068870124 -0.20182079952766532 0.3476378299962013
Ni 3.7055108109534642 4.3897816206996545 4.817381502581496 -0.8600880006165187 -0.027853788987474606 0.5894703940301138
Ni 4.946704127396775 4.7838726220978405 2.457974189738715 0.4828277197681943 -0.42552220117850587 -0.3096071004757249
Ni 7.36210029408705 6.271282969127271 2.5905639986380784 -0.7033828624805692 -1.2206916467447688 0.1897947216010667
Ni 5.029152532214284 4.590470973322099 11.790659595891615 0.584718224057109 -0.34594681544702355 -1.6377978559454374
Ni 5.717108136040268 7.835737356323845 12.592681867216834 -0.27446629090853375 0.5112474085614679 -0.2034339096510561
Ni 1.634065151405221 6.671688160874536 0.42596856440404673 0.9642888982061653 -1.5798151087830663 -1.721642815586551
Ni 2.5034581960688507 1.4672850025738653 0.35056675962308237 0.1998348794458881 0.6573626869967131 0.1957573669424048
Ni 0.6178826481623904 9.075575032476072 4.893910581403168 -1.1495926739154136 -0.814534737466752 -0.49241407790504876
Ni 8.526640795413664 2.458503708295367 1.3923972493126746 0.3216331784023235 -0.17869089837842128 -2.1854376870930105e-05
Ni 7.018914040531938 0.7017358238587138 5.1117101161156375 0.7898488046842977 0.20276542282912177 -1.8939890026938673
Ni 0.6934691475601937 7.175294881626988 2.440197105411533 -0.7628041418616798 1.6351388210560358 1.2320605507033429
Ni 7.795350193557908 4.045321611166344 3.997808693528075 -0.4100374752793454 -0.8454867057635762 -1.2389400514319953
Ni 7.538870329090289 4.033411992770171 12.865477635939499 0.6207424646705181 -1.4968690068071382 -0.5883928446952189
Ni 7.815803075265011 8.543154131845332 7.03383973111935 0.11823886373995122 1.6412284788935414 0.8610421369996719
Ni 6.924874456312809 0.8070863611642635 0.1679865777078509 0.15104022654068827 -0.5804239675571293 0.46599059360619743
Ni 1.9126264855806399 6.385356915232095 9.271071100010255 0.419334070089923 0.936462105801884 -0.18202921872303487
Ni 0.09420153319350215 4.8882569245113565 1.425341128037428 -0.24239949228097607 -0.16965089966334007 -0.05878313157647941
Ni 6.490414488662659 2.1370622889395334 6.945153561311456 0.06171521762160984 -0.38824171956049264 1.144572594993003
Ni 3.5682636043023814 4.098955836105564 0.19621210035907088 -0.8829186253577891 0.11031600934844873 1.198816186827916
Ni 5.788702320272112 5.723522407216206 4.646082249504626 2.158146969697857 -0.27318588153421336 0.619816610422139
Ni 5.276352174555013 2.7435884927305696 9.417682232752506 -0.32371191530822313 0.5873949995583239 -1.0818983558922335
P 0.06063988281932159 5.602815831767752 12.558245874346188 0.3802769561874612 0.05184243859258814 -0.29468544616888603
P 3.875511742758269 6.213099615694478 12.886238038732767 -0.3899196214835478 -0.8943348376145307 -1.898947375140407
P 2.1004963941081973 8.468675800148564 1.3942214498385972 1.1656576977980764 1.7207917804401656 0.8389908136265875
P 6.364449120675636 7.819888192652238 5.608751534626165 -1.7269536862765031 -0.6071552129043867 1.0626523631784281
P 4.685547758837765 1.1158648264453888 12.830176398829376 -0.555258009814463 -0.3683429237540366 -0.3546569416265118
P 4.179311641816029 6.187669987415408 8.385808875509646 -1.7840620012537207 -0.394952555921765 -1.2194297493132096
P 4.599951357102704 1.2150358276052695 3.635207669388096 -0.8564763720058605 -0.24717068841737427 0.8261288700622547
P 0.15741622274018577 5.605463424551011 3.6958766666297764 1.0893967211518076 -1.1632573158867 0.5671413915156104
Ni 1.4872283818896872 1.0442342491855958 2.673617437545232 -0.719905799836257 0.15815832564270826 -0.9793164819632489
Ni 1.7309251952903666 6.589021397889337 4.8924057296974945 0.8197468777953109 -0.13027445474824662 -0.05024886885322314
Ni 5.886563172425844 5.613251532532008 9.513200283732049 1.0192400576310638 0.020014495448713917 0.41953538746745167
Ni 8.546120163623142 2.2981014376120004 10.137956665048227 0.2145891549369272 0.2693359116605039 0.0970545163528522
Ni 2.554972527130066 5.2586651629720045 7.045238937298545 -0.9113064324718627 -0.023339703167204965 -0.1524435346461181
Ni 0.5925057897738454 -0.21171825974226216 9.345482104605319 -0.012978671647855067 -0.061772553222106515 -0.6940620993002756
Ni 1.333322266695142 1.1861033703861483 11.295602507229983 0.9391136844921182 0.572640981177601 0.35672770811261145
Ni 4.0918046061136675 7.228819927482363 1.3751660604047207 0.1022903108304948 -0.8583483922175927 1.6678375968406376
Ni 5.274286870218932 7.981082011693488 7.992714133251552 2.0259686130586787 0.11448068224909962 0.13044748999100114
Ni 5.563775211035912 2.8537228935599597 4.835705392153606 -0.16554433369413427 0.5292276471889724 -0.1900304917609566
Ni 0.7084203132671691 7.356140935760469 7.191903749757021 0.4378704383312136 -0.27496431359087486 -0.09322280131158783
Ni 5.697455900948035 4.693454144159594 7.3606727775657665 -2.797799126788685 0.2156916439724866 -0.3673170535926835
Ni 8.105719034160387 6.884541883088795 9.18442202994178 0.20172772559322677 0.4969343343729055 -0.06974914366967987
Ni 4.80889282881249 0.3203523579944725 10.747320615193553 -1.283559232803267 -1.231691083179066 -0.9388799712147572
Ni 8.191733955716856 7.203544969572072 4.687642177596206 0.6435178106938207 0.7280523402027912 -0.25760036839113054
Ni 7.4547205502161855 6.289270223190857 6.777622806278662 0.1303742135509045 -1.717169867416862 0.6330295095679872
Ni 2.3286260898038718 5.275178499403673 2.529296336086644 0.34464969390215483 -0.01830394051551041 -0.06252845755152457
Ni 2.451525345186227 5.188872433623615 11.269343117913685 0.608995608547235 0.6591835422555357 1.6514270166930978
Ni 1.2975479202216875 3.3352845376325586 3.6394028756848686 -1.6677077561309923 0.5909757749310467 0.6902378404581789
Ni 3.523263625243962 2.9297843219724924 2.871615525750879 0.020585794571151644 -0.7961174113018289 -0.940343186023845
Ni 1.119767978692874 3.2215381287792715 8.164267227698364 -0.7226625366457876 1.0841321303187585 -0.03775047927589628
Ni 3.8554136930736655 3.072263026391183 7.16190224734191 0.8050697353991104 -1.130870157805246 -0.22225309924008824
Ni 4.203130878608374 6.7974806619788035 6.059465538383849 -0.3227328392244055 1.1402652258669008 0.11690394697861156
Ni 0.8269342087817203 7.398775368002232 11.4442916818681 0.30792251368445034 -0.40625024032277135 -0.3650315999926165
P 0.36698729383348166 5.411661452467835 8.100841458589578 -0.24812893856558554 -0.08337856152765641 -0.7152621304166585
P 8.575816874429183 1.2695434852152552 8.07512796469251 0.40806749603716824 1.0245226461862422 -0.4020310600351012
P 1.7365752128793839 3.235367479399732 10.335356997769818 0.38771335786084843 -0.5701503535452631 -0.23195387146761987
P 3.978585896165635 6.238074331124191 3.7298331813571988 -1.3861755595146128 1.4132443907069467 -0.34601340701890093
P 6.958083094315888 3.8585161987062824 10.422125255004824 -0.4292384736878285 0.7558495649207176 0.7323733361756484
P 6.48569249328633 7.783085743139237 10.38601154354575 -0.5948758813164013 0.2578880748348784 0.12332990510961339
P 2.290195052290171 8.41976357058567 6.083714212905988 1.0041335410069288 0.3071758653264129 -0.7272229023229605
P 6.973258986970445 4.159249985159374 1.7206023129127517 -0.18600928641670547 -0.09905432039170038 0.4223288910521888
Ni 5.557324546832027 2.727803016857873 0.7005712469643592 -0.558205008257929 1.091248943869198 -0.24605842918980206
Ni 1.6495776795683028 1.1089592493921456 7.311549468440773 -0.8568838918569243 -0.8091734731548387 -1.6526503475772376
Ni 6.770504330011918 0.6577803247024187 9.213691122669427 -0.01073769813247828 -0.6011051500555648 -0.06297582950158832
Ni 2.9326775676944044 1.664762670479848 9.074404086801827 0.722079410448808 -0.141458239279208 1.8299669913159518
Ni 6.436907639321259 1.783658692787859 2.676613493571099 0.6984514866172229 0.6936643496412247 0.5900990287530482
Ni 4.07713821585039 6.881657735623869 10.531211536629295 0.09113172311051401 1.0770363998142418 0.6941312619753142
Ni 8.168715365539379 7.281016627817613 13.762311933502057 0.30198609359535733 -0.736883565341176 -1.0851428309714601
Ni 7.67953848036854 3.9149708833115167 8.295045573631587 1.2325387758913418 0.07625069223362352 0.49004557767287216
Ni 3.117153826365757 8.422866076218288 12.708532702911247 0.4164253810835603 -0.028329700182628627 -1.1476769449499395
Ni 0.26343366228289317 4.992295493159359 10.335556249597838 -1.302166306381493 -1.1429921378797605 0.19817677501717482
Ni 8.864495470374308 2.031950125967047 5.9313502522707635 0.1996451320325852 1.1402914511191458 0.036645676247491724
Ni 3.643660859954852 2.5603768917804297 11.472455336371809 -0.3829586167846824 0.09625593171095681 -0.15165163487244207
Ni 1.3572415843143462 3.5222355222044146 12.52222587493408 -1.851277836978586 -0.28504046687995427 0.18960060331238962
Ni 2.9552594415364983 8.392932810730581 8.277521420848647 0.29889537048517556 -0.4746945491380985 -0.3210027439071762
Ni 5.675365332983246 8.233367579690032 3.5616628188582076 -0.2307914757284025 -0.13628955059407497 -0.4075080239892723
Ni 3.0948721950042386 8.371706577179571 3.6351548994975706 0.057444615270713976 -0.15583610526743483 -0.06448892371200506
Ni 3.3168787637475643 4.307051169915544 9.189309613595276 0.8217448820619462 -0.5699294957837088 0.22330365199178961
Ni 7.198650107312989 6.0275497626986425 11.595710333602359 0.4255836505440606 0.13843205085837448 -0.751521626969325
Ni 0.45374008403160826 -0.015017582982981576 0.01180953756931424 0.5967098492013465 0.38594855265094175 0.8828193807757635
Ni 4.5224978953711386 0.4187390894020613 1.6107435892700719 0.14272399336550903 0.42269270214951077 -0.2892359930185406
Ni 5.912848036861706 5.649198745888217 0.3666661253618355 0.2759675580444086 0.6455926909449784 1.249900407098241
Ni 8.248552570601577 9.049472133179954 11.328893029545947 -1.9035684188521864 -0.16239061855650097 -0.4062366134760165
Ni 0.2879725712029221 4.579098152088168 5.856206837988235 0.10614747979305592 0.3149575661543608 0.5306363546110409
Ni 7.965223749764893 9.063674512336886 2.3084461558063842 1.217559014653058 -0.25198147954245637 0.5640537537292222
P 8.582667861940504 1.7120190172710792 3.5990539255982776 0.07037315040692396 -0.3771134708578151 0.870219946844198
P 1.6358393115177141 3.280922452134367 1.3580012887727726 1.5309800895582344 -0.3904703517806952 1.3809199675426282
P 4.801241194686301 1.0040108550454279 8.047803169483016 -0.10644315665660377 0.9487689481936951 0.03772425402365116
P 8.659657312565724 1.8210798237759867 12.498230131956186 -0.6423955241639195 0.1068077390848741 -0.11493782439117625
P 6.421149458219524 7.829641524142458 1.4575398595149343 -1.9667437659590903 0.5727934475950651 -0.3919101695510154
P 2.1172007939365955 3.2415269993800293 5.976145520546972 -1.080515616612094 0.4147119979368793 0.059713356700232645
P 7.1605648035648 4.088256285888681 6.07047806864109 0.4568693480312196 -0.4657581658804172 -0.9982310594795647
P 2.53083485134317 8.637248305606386 10.423349880395293 0.15810587513821803 -0.37927011218950163 0.22886880478439292
