# total energy = -340858.746192554 ev
CRYSTAL
PRIMVEC
9.38581455950535 0.00000000000000 0.00000000000000

0.00000000000000 9.38581455950535 0.00000000000000

0.00000000000000 0.00000000000000 13.73708834051218

PRIMCOORD
 96 1
Ni 8.431342891249352 3.6815200479260652 3.455605369398798 -0.5277055541174912 0.9781322318471607 -2.0464945009261726
Ni 7.383961076435155 6.616905384130238 7.705434609835408 1.088237924957016 -1.3702951408389303 0.8361510301849471
Ni 0.04091558127213002 7.825648122310678 4.286631019201096 -0.5539590884973815 -0.6448396148290378 -3.428419255584231
Ni 0.5613017433839025 4.58858393554591 10.260120984385876 -0.1379517687878463 0.03894964179032002 -0.19777336893116906
Ni 3.206823092355389 4.922653232042808 5.917607764066222 -1.5136673093113997 2.4124352429966196 -0.44522122226933003
Ni 3.8192287186816207 9.345145793700338 10.121912049715977 -0.20777804555236473 -1.4215264282100808 3.9516850287628142
Ni 5.145228437760994 1.5027627640861463 6.54765966028664 -2.6698504919601374 -0.33158823273250637 0.4662721294023583
Ni 6.62175785024124 7.9871404470803125 4.138366122845842 0.5431242026654066 -0.014926025182213006 0.136345600642991
Ni 1.6839277561065746 7.110364582942487 9.848434756067814 0.3617436732699641 1.0016843081354878 -0.8376849503309702
Ni 4.286623510549473 3.9467068516016006 9.550367566937611 0.37043374484479424 -0.5784637585069651 1.7152009166159492
Ni 2.673098749217804 5.153131293593613 3.336051679684851 0.7501286032765403 0.16141642756868976 -0.5775114218960248
Ni 9.125020285573973 5.726520088926739 0.4176706236611475 -2.6504018963172227 -0.34386653587922716 0.3318805671619446
Ni 1.7527914772988804 0.22254892543750818 5.341584370595072 -3.2012563777473515 -1.2062484747362452 -1.4488996780167112
Ni 6.522080499953345 5.236186366352331 4.967619730865244 0.08714162811451445 2.192954564295346 -0.40357552170408556
Ni 4.848082935617447 0.4656218115035041 2.8845545804646098 0.2741137926651214 -0.8976693013044024 -2.2337255755651206
Ni 2.7715841010606366 7.460615023685742 6.411291283845691 -0.1306153830274331 -0.4620668330717591 -0.11815658843879008
Ni 6.403575205722181 2.9287589511473686 11.110667251243614 -0.5921209442790833 0.13322710961866732 -1.1352451469444902
Ni 2.332844200946922 7.4436454710190265 3.837015775793729 1.3271252903196757 0.9692588406169308 0.7076454944116651
Ni 6.051682247436516 2.76362493034085 1.6524477341794939 -0.4828547163513879 1.054460314285939 -0.1296805299179896
Ni 2.8305551737403776 4.98002871625278 11.45416272127103 -1.4998957094486038 -0.581702834269553 -1.7876790291810178
Ni 8.420258244291725 0.5252517683631138 4.976246232997975 -0.3860354559377932 -0.36085561423805596 -0.5841569522370004
Ni 4.5967589799998425 5.556918420404868 12.579793133224133 0.9902953495722557 1.6823363046774447 -0.17824146954582853
Ni 2.7568671438806542 8.667367969186236 0.1144421751219711 0.3635005080600707 -0.4552091867199773 0.4703650685248093
Ni 6.302602613029414 3.9727994159895808 6.942078805617449 -0.11633958983470931 0.860852132476053 2.5185762950317723
P 2.456568008055682 8.003021245261774 11.837262574281011 -0.33121696543601664 0.029605481571258693 -1.0736664549007444
P 2.3614521636284196 3.435133030750215 4.473812318334004 -0.29937436700412307 -1.0749198676918712 0.7773457871212806
P 9.06653727524969 8.17182511954876 8.951333910569495 -1.5808237525532387 -1.2361825432915161 1.267271551386837
P 6.88249577783048 4.759649791134156 0.34265074671989365 -0.01991216554289474 0.09941658882712555 2.13438174895746
P 0.665314401402304 4.312162311880298 12.387653308276054 -0.8738860828418756 -0.4564235187430526 0.34954250321808183
P 2.1760447834413124 3.161076632345672 9.715981202866514 0.7419848911234835 0.1817389411761257 -0.1980209661656009
P 8.740061102705987 8.027677780026963 0.36278425746401455 -0.31754178194176924 -0.3130613775729124 -0.6412662956554828
P 8.0617201293202 6.865291579800563 5.615350747330699 -2.0635134040816716 -0.16736184651884725 -0.356312989172696
Ni 7.017604577961764 9.330109718826401 1.2846936879228767 -0.8386989934177814 -0.9176215760566132 -0.822294583917829
Ni 3.5508882813246605 3.3011880716204076 7.445254199629135 0.6730286756687441 0.23823533360095747 0.444859210944221
Ni 3.7121741181746777 4.41778088276445 0.7552793108165725 0.8944513085877369 -1.9092194464903764 0.06866876612130754
Ni 4.190287510233564 8.166681693187389 8.314578665613142 0.18759462862595433 0.3668336861983618 -3.2046443203829775
Ni 0.7163507064800307 5.3368586129801985 4.637572255893616 0.3372107211256063 0.345359832595302 0.6172938440002853
Ni 9.135626255990669 1.6600596297617427 9.085146529714457 1.7141310805905383 0.180021958485019 -1.3569685989333533
Ni 1.2185321427331968 2.249028877211432 11.458847181301982 -0.17769408168279074 1.106359060037759 0.6665939757869939
Ni 8.455924339498317 2.8801216602630118 0.6007709706372599 -0.4273857367498059 0.3468919529691123 -0.00031573146820590783
Ni 8.697074072167515 0.9596150631623989 12.614548804421503 1.0091183958160297 0.07289771660099058 0.7663964871986284
Ni 1.391822436364591 1.1355615423052314 0.9651207819645533 -0.45313944867514216 -0.3287152820600855 0.06975917097200889
Ni 6.744195800759656 8.68184089518849 7.592241686627121 0.706163767659816 1.3211086518119506 -1.3712238233007867
Ni 1.7041072573418832 2.2806966154290738 6.543936307663363 1.720666567716211 -1.264125035338055 2.255250851231406
Ni 8.398783500651547 4.847754432108966 6.388158066778405 0.12882255279306845 1.173603177897398 -2.7899307797842017
Ni 7.592560804321074 1.043101883389407 10.463567900095898 -0.32060730824097045 -0.31782614595140746 0.49077834207383864
Ni 1.2652641132683597 -0.22040145107349024 8.201962031416878 1.7018062404765981 1.3162333259975203 -0.5042892320760799
Ni 7.8417541800408115 4.638131650439488 12.230404310254553 0.8353640155072775 0.20682930848585024 -1.621733346283407
Ni 6.738648784373579 6.912793187127026 13.567064437474885 -0.22008180262038224 0.328706283199021 -1.2835882862689894
Ni 9.592302447667489 3.0919313367175243 5.359744983125396 -1.2504614218080334 -0.392077291256499 -1.270588531575212
Ni 4.757106235397054 8.954170303719872 5.385886353748923 -1.4283305956161079 -0.3289924469808721 0.16151232971660573
Ni 9.344742203675631 9.108351078972156 2.1695394753919204 -0.8176491147260176 -0.01902539206256723 0.15741244861561923
Ni 4.23296480889261 6.662454742034866 9.877612437691164 0.708956757023921 -1.4261641840924084 1.861221064234227
Ni 4.474292872037841 1.3406791330012444 0.1378241162742502 0.42903741342061597 -1.112121159332517 0.6296078854809479
Ni 5.501851846568797 3.5976859525615192 12.975668956969693 1.0309995121598374 -1.0236083619020888 1.738707741488638
Ni 7.168725577677903 2.771546557802525 4.963786564211988 -0.3147997004202578 -0.9047611751541773 2.7116401743024134
P 9.067644801364 1.0666321204112292 6.83306163129269 1.391070682823385 0.6530494043333399 1.4739273104093003
P 1.184292691334869 5.506450895687541 6.780118128702863 0.12921953112117102 0.64921074731354 1.0503858871062492
P 2.51656213451898 2.6188393554311453 0.06432567986799329 0.46886945781588935 0.1930721068007578 -0.6514306377829941
P 2.950768686215647 6.159102894710052 1.4644423605310224 0.7860196607461947 2.274427167049541 1.3877164216391713
P 1.910135272047117 0.5176032681042055 3.2361012021941895 -0.08477158522044109 -0.9272192470473772 -1.9727519198263832
P 6.728746750046486 1.320105427555758 13.320153691848368 0.2872295041114731 1.5389703068525624 1.1201049488689419
P 5.9534503125859395 1.06340340021358 4.514501701476008 0.9599164801700825 -0.3310840394025782 0.6944382516927717
P 8.907917009725638 5.580871019080452 2.9253134186341216 -0.37592253587350744 2.1534079123509753 -2.2073977363038693
Ni 6.979535714235992 5.522115820134856 9.845013626672339 -0.3913113596247519 -0.685225217734936 -0.005065073227733212
Ni 2.4483272629000536 5.269215047676539 8.573537042767864 -0.11059960202713855 -0.3185131447161031 -0.4731721989563013
Ni 0.2896687622905021 7.949578417339055 6.389778996947399 0.17288714721245066 0.1691816733364054 3.201285945433706
Ni 6.291808926322156 8.52643996404756 9.935252601870827 -0.07924962696094738 -1.0923912850037574 0.4194058038681229
Ni 7.17957557927233 6.892641843335301 2.0383774102696806 1.4025588859686424 -0.6433830848881694 1.1859159338264802
Ni 1.285105725180658 3.5915288582311184 1.6414306650864683 -0.11489848651280858 0.8252552092080496 0.037735566877560814
Ni 5.0316225387134725 5.792427278542708 2.6805182356022286 -0.17321444864488234 0.012728503310261948 0.5001276444992225
Ni 1.8617326265259613 5.582128718227211 13.551472722380888 1.1495386807490267 0.8820997290009196 -0.5372312342197393
Ni 7.063275951455258 1.8033528601614879 7.343339271157753 3.1061281318829344 0.08219893939725843 1.7553414933905769
Ni 3.460118069023885 1.5105905334025405 4.3518136239355 0.1857318643856027 1.1351207055514838 1.4280999676625405
Ni 0.18561949959544113 1.8444908852379327 3.0260607517782145 2.411388032679028 0.3649917478936166 0.4920081007158818
Ni 0.9826384661997064 0.07391235082694395 10.753887099333193 -0.0806015130031515 -1.3508442312031703 -0.1357146519272114
Ni 3.4925366724037707 2.3678439033220218 2.0797538350351377 -0.4452518183969493 0.30882342823216496 0.665426437841454
Ni 3.1999432903063285 1.4147238238130337 8.738903831774676 -0.6609308639639455 1.4145692801659573 -0.9815741676491742
Ni 8.108527186371589 8.36862687857292 11.663104092805773 -0.21287397201803337 -1.5575431847587433 0.18823380487185
Ni 4.729821672564012 3.436034068944908 5.483543876750382 -0.02165614481719496 -0.31100629481609665 -2.476019652616484
Ni 5.437155427026945 6.937881469360504 6.379970820765586 -0.3302047221214184 -1.2495818474165576 1.7395500348842752
Ni 7.441289631572487 1.404127239210865 2.9854126662201335 -1.2727999374042336 -0.2937487932872295 -0.5244554226113097
Ni 4.752582272794534 8.04199114718224 12.350686339175876 -1.5286046473475223 0.5936252967387519 0.5987988705198912
Ni 0.5741950368010853 6.580591667721211 11.711842750487031 -0.4223245201768146 0.27195535156122197 1.3741209423429237
Ni 0.9915925332594666 7.011757215510789 1.992866534204617 -0.10074636338214261 -0.6339864741646178 -0.4498430373120575
Ni 8.961387995091942 3.9329190900598947 8.161108396520632 0.9522083128925471 -0.8280739096037674 0.6241021251713703
Ni 5.5650277641571035 0.7738425747901505 11.718876479894353 -0.7062738108751192 0.25852467997761286 -0.8729394026578902
Ni 3.7279047433236903 2.6513705885853676 12.04605283420185 -0.9719842099678937 -0.03785460895392835 -1.9041026940891015
P 4.805471337660099 8.58098093227006 1.0162546995133717 0.8049784612368847 -0.5103968876357144 -0.8403334436974109
P 7.986004763522419 3.4445751601654333 9.892599706329554 0.06893256130565546 -0.12747246652307725 0.614696001366122
P 6.185655364009907 6.840635045035374 11.376741014392051 0.6999306422659107 -0.5705745855668753 0.22638460490995851
P 3.0402999709987197 0.32051899606275086 6.827814022390058 2.574598833143979 0.12984070964493769 1.5032021481140176
P 4.497410133220429 7.045039313827255 4.515875784722915 -0.8257774002601068 -1.4016152911084505 -1.2217709958518765
P 5.2037677629724435 5.373763635704492 8.274493728926744 0.38937300495145843 1.2848977491090323 -0.7095074873210684
P 5.481146739719917 0.622939325971062 8.582177623622385 -0.5673743334620228 1.1486557639234412 0.9125554743876154
P 5.868452376219916 3.798748871381415 3.6942190549825176 -1.0328399078026858 -0.4121748333373224 -3.4853097981236876
