# total energy = -340871.3846237379 ev
CRYSTAL
PRIMVEC
9.19713252799435 0.00000000000000 0.00000000000000
0.00000000000000 9.19713252799435 0.00000000000000
0.00000000000000 0.00000000000000 13.46093311511994
PRIMCOORD
 96 1
Ni 9.026231570522699 6.218015863436504 0.706851151182742 -0.3160070904647977 -0.2216283211718957 -0.7556778152295437
Ni 5.51781975746837 2.0274251273540878 1.0468893804302994 0.4969027098040217 -0.6672616912779799 -1.2472922800514326
Ni 5.1879370021373 8.808857339390496 9.268646834830431 1.9334207263269283 -1.3142808302568396 -0.994952902948925
Ni 3.0052918663711883 6.438204417171899 6.541636291118836 1.3628998768161238 -1.2260757938748175 1.5716156036914095
Ni 2.1313527267530255 6.065895288741068 0.930947566598191 0.043322831157351194 1.3641756582047537 1.5846097019582324
Ni 7.892684966459066 3.177830075638805 0.6784844348264462 -0.6095435106309052 -0.3136879554133178 0.3595944881374452
Ni 0.35914527241138866 8.257774345728112 11.101918651668463 -2.5299012331262882 1.0005370819049222 -0.5477267344344245
Ni 4.156837259109487 4.602318775223322 7.820923418930734 1.9788372067885145 -0.8872666179138397 0.5849655641812248
Ni 8.608148312692885 6.213684013939433 4.477617612217094 0.9634273215368182 -0.12678701042027843 1.0342437301287477
Ni 5.895334463001839 4.058446333590033 2.0865654496916974 -2.2970919556369083 -0.8198448368257558 1.0386279752393726
Ni 0.8274228016110828 1.8340370182778525 0.43989149886474904 1.2565433663360552 2.982694354205605 0.270561813647805
Ni 5.522436718078836 5.742137823781652 10.47035798782727 0.09492821403846877 -0.5768619612374839 1.5881691371747164
Ni 0.7471217163799269 0.8701710743549999 4.075795804696772 -0.7215785595529896 -0.789855232442201 0.3546371441321699
Ni 9.099477535267225 1.257983809361653 11.877281083686828 -0.6696440754672274 -0.820840882190438 0.27846821297907526
Ni 5.814620426512894 3.427044780144381 11.959918240621287 0.22140463519686387 -0.10546665167594739 0.2816617802157085
Ni 7.749476413340406 4.8113879955363 12.168387807882867 0.43469306904449656 -0.1943458313068588 -0.7198438362500699
Ni 8.542416405356228 0.8937221720347219 1.7571094413174513 -1.3546260668431058 0.8842093191447546 0.04831179973151035
Ni 4.439455949545766 6.525190898155541 4.4256317393991695 -0.5417077819338542 -0.34288848823667395 -0.15603510865211837
Ni 6.639860748536599 6.701803437204903 8.63514833513142 -1.0240053402301912 0.5588686099838568 -1.0648629976765014
Ni 1.3880220684679874 7.502027558311342 5.592371715054901 -1.4848753247803717 0.7897210208571819 -1.893460640994223
Ni 3.657331785573585 2.5246405148501374 12.591424641379607 -0.14073550218057054 -1.6848403020462208 0.8416627040317958
Ni 2.5814328092119463 4.637525399161299 12.812694777919367 -0.3329180072875234 0.2842429106793234 -0.7941608017960904
Ni 4.220490614458164 2.1074953645547208 7.882588354191795 -0.12060479286896648 0.9278237134005958 0.022609252759083643
Ni 1.4480057678732856 7.268944624544327 9.481451010728888 1.0885204891944413 -1.798697748889025 -0.9748011105913986
P 8.069738967877555 4.062723000290963 5.903709372029509 0.6231266486319784 0.153978997454038 -0.6141398717523359
P 0.25253946797307314 8.52750785326546 13.233834242942125 -1.5743695122874626 -0.15615466494911817 0.4486150784422274
P 2.7143589679829945 9.107359477982701 4.509143543652464 0.5910889034701432 -0.35186858024809725 -0.336204391348279
P 1.8882173269556524 8.185861965223662 7.594765926079417 0.45292399023022645 -0.6048350494116422 -1.255307179936109
P 0.42639746578172943 4.011485774074018 13.097515261921673 -0.1295406619060156 0.8606690699309695 0.19816160550852321
P 7.469175400342049 8.978130566553101 9.799155842664902 0.47721371601552653 -0.8246150045208894 -1.7327142429093643
P 5.360079734699239 6.132252601100656 6.6927359840856635 -0.03518374698998457 0.00676791485145286 0.17537571796225923
P 9.030397871631347 5.593751284958426 8.527797562945201 0.6813207404742072 1.259394205521289 0.12099560054948194
Ni 2.102023070604069 4.936928856757141 8.835433374012016 -1.0609582633054566 0.16775239708904657 0.49413723124374254
Ni 3.806343729419743 8.021803512296382 10.907542770541301 0.12410483560242498 0.4937320253855239 -0.13870844444821273
Ni 4.321824622438473 6.054490844205256 1.7713107339043452 0.7572785840577603 -0.15786496277200554 0.4584215230096879
Ni 7.852337145347283 6.218144623294167 6.729591653914987 -0.28252952753264243 -0.44347981409819104 -0.009594585666970572
Ni 3.0689452217198654 0.2250933845990635 8.79133588190245 -0.6960436485066787 0.034498547997501884 0.9971424544010762
Ni 4.430902616143906 8.276573284946823 6.671224810436621 0.5327945386046243 0.8445310267185261 0.9086281143087512
Ni 8.470807530230553 8.099105412557273 2.7516432241956803 0.8504342795768386 -2.278846122052843 0.23747017330015877
Ni 7.14356931171191 0.5649697443112739 3.759073226532068 -0.5466576697399617 -0.57094353887052 -0.1143528984219837
Ni 7.919834902160452 6.467478890524715 10.43300383340614 0.49166254445100493 1.0912358312430754 0.26589886095449694
Ni 6.356874172792713 1.5100680192665625 8.714500276268952 0.9314155445169121 0.8621109445838185 -0.8835811986424524
Ni 6.088446658097368 3.276441732342824 6.564304464060302 0.8181183410529522 -0.20139399640289185 0.7263890935677554
Ni 2.684459089607247 2.596359755568095 4.45696912961439 -1.2359732554941874 -0.9712239347631014 -1.2244855665695622
Ni 6.2271670104632255 4.773229092004779 4.5804461542595565 0.6415956539704434 0.10368024919948597 0.691831410197544
Ni 0.8610824678305724 5.290742551348036 6.569366565892973 -0.005989641924531619 -1.28527313017058 0.01700707608095781
Ni 6.359136667434495 7.52979370190297 5.28076458209247 2.3777626313150986 -0.7927551796978153 -0.3161546717862555
Ni 4.1805934528482 6.666937107176464 8.837143120979118 -1.243528699243942 1.05804186098961 -0.17649234806520572
Ni 1.5959784357254543 2.363699889904827 8.643359535197206 -0.06361629129906464 -1.0078007054458709 1.050749441093255
Ni 3.6081731113446183 3.9980763546117473 10.761491383708108 0.029411877503213862 0.1958167594254305 -1.588400279348916
Ni 0.3782909435325186 3.2796607287843837 3.5499037574727677 -1.1197465370882587 0.8876425131960197 0.36447161372408843
Ni 4.505712093445761 0.15579207006535248 13.01206470209729 -0.40684725047682185 0.707313564993543 0.3243410642517898
Ni 4.7575663750334165 1.6013955468799652 10.493295636756558 -1.5868882135797637 0.44570458966365173 0.5688894845549687
Ni 2.0914555651430615 0.6373980839596433 12.413187888697161 1.3244775682841836 0.21947425094337042 -1.205818586287678
Ni 4.107338290970985 3.821003958927876 5.585681720736069 -0.3969562166153551 1.703679289129595 0.9827555895517848
Ni 1.3717799321371444 2.952316382075801 11.418546499366455 -0.7259885156952272 2.046765752309688 -0.40619958959049396
P 3.6932189973306335 8.080288079073183 1.0186440662255138 -0.757177796813838 -0.519483680428331 0.9781427733701219
P 4.659249026575484 4.300487274597275 13.44780921383204 -0.09528559737788751 1.0209752951546158 2.1384793160656006
P 1.7453214763484584 1.9295032556018323 2.541383894912595 -1.0203906262957394 0.6597957219182379 -1.9947379371791711
P 2.405565237910488 3.4758171748003606 7.112905151609609 1.8264556357285837 1.5469520395064584 -1.6511886754300467
P 5.527384775466149 3.579579225810875 9.748085084549649 0.17681167907783743 -0.3954608630167512 -1.3163500540810427
P 5.606562890795835 1.0679066680538791 6.469513296275781 0.11937400578565893 -0.4808898793155331 0.1512294597333589
P 6.424997334628813 7.106743992420463 2.7410232950783397 -0.20824392944518974 -0.7662177955289191 0.33051839670709526
P 8.936292809945511 2.361814477703342 9.65900073759938 -0.368085813437908 0.12125348219655892 1.8774346978796117
Ni 0.6679877472871535 5.683487708616429 11.41304109573812 1.3775556790560854 -0.6212883098716591 0.29294583776995997
Ni 3.5429194549078518 0.8280196955226751 2.446928422471265 0.4409385357335761 -0.202552021266735 0.4819023797404475
Ni 6.690086290157625 5.524864761109042 0.5943582621094478 -1.0333057916955108 1.383410852285282 -0.62299372259854
Ni 2.2983634592738493 5.273488730421275 4.579840063215275 -0.7092182382154237 -0.36048229005903726 -1.3058671522718477
Ni 7.6819418679964775 4.295971482446401 9.46508195396692 -0.9822765930328374 -0.8522610483729322 1.1197509079636327
Ni 0.22308657024606807 9.146962331346579 8.691375005832784 -0.8802004550956776 1.3280868829019967 0.955894760605199
Ni 7.230298272980227 7.9528618056508575 0.6957051460755231 0.7340170424266584 0.4310991810456511 -1.3994342242967317
Ni 8.138312789215474 2.7121792475354236 7.7599188377968265 -0.0815440794220789 -0.06086572513712099 -0.1720433111549166
Ni 7.172834587932035 1.8502515632106247 10.961318405380734 0.803791382907319 2.8645063983082473 -4.770574957874468
Ni 7.795590836648925 1.4237253375712329 5.774524606836822 -1.317246854863699 0.9599329352303145 0.17447068964948662
Ni 3.2528142984617734 3.2675940906948786 1.6744456126981901 0.8985046527215043 0.7776736027743445 0.15737285362693543
Ni 0.6878820650092634 2.596534501089208 6.3761072166743995 0.2712197589467781 1.2185532602455271 -2.429270055165771
Ni 6.198609913460243 9.172705105746369 11.512853897971473 -1.0411795380166327 -4.371333287659045 0.08524929618780802
Ni 2.7683461368743014 0.9727623303740555 6.391896854076887 -0.058589527508434575 -0.08600031542121964 -0.11950101828182647
Ni 7.144958078748125 8.656102162539439 7.266561647464304 0.05476655421791858 0.8751819188351636 0.32330979477379806
Ni 5.599306353103289 9.009410014832376 2.017403931574877 -0.11467325787587992 -0.4202555534629278 -0.32473881391084075
Ni 1.6431413321606536 9.01936131240314 1.2498406680777752 0.6570014470025524 -0.9098285623747556 1.0550077021489765
Ni 2.053931263767162 7.560245408240128 12.336286063708291 1.0153116691109352 -1.8260378314648746 1.9055101159595893
Ni 4.866386849023526 8.842408479444241 4.325818937165814 -1.3498821244002173 1.4395642595483982 -0.7537145208555859
Ni 4.617595212621697 6.776235832066462 12.818429190151688 -0.07020782847365327 -0.7331855476642987 0.054777095740879855
Ni 0.4670000474690294 0.35573405589660406 6.43031511675027 0.08057785885406768 -1.2414520192205716 0.2998055410042708
Ni 5.151681905072644 2.0037976934730373 4.507070509944099 1.0243812355123711 0.0951074199288104 -0.835658921039877
Ni 2.0707344251921054 7.352371815176872 3.1053299983554528 1.0857192723002207 1.0559075882554265 0.4068230821071058
Ni 7.811676621724035 5.076329796942069 2.7416956054779913 0.6904242454373721 -0.14741831351738482 -1.5448046541461524
P 7.160657584250249 2.4943451597687125 2.9064447630703016 0.7148736367289882 0.5649880926180334 -0.7020065509583329
P 0.7574473372511823 5.781860239870502 2.676787761230375 -0.488937432210358 -1.2499759975311826 0.4008282979762516
P 6.9924696187450825 1.3066642326907305 12.812708573618403 -0.0793504142048698 1.0576387120139206 5.672313029931605
P 6.8287882482581015 6.9580355539530805 12.19625144108101 -0.8041397673856732 -0.5516836621996434 0.7031974859426406
P 8.545828541584282 8.341468253208673 4.928896081065544 -0.6206995272477246 0.3372374605984837 1.1043356018498272
P 4.23527960382396 4.5469428392958005 3.520249442539848 -0.880375033000329 -0.8905992818314984 -0.3415538285856505
P 2.8587447540859965 6.04830117390477 10.808079459350173 0.25620040271981037 -0.027993914109764692 0.022927298220134704
P 2.5453524576684035 1.6062424358076857 10.472700497523457 2.407511066222125 -1.4199757958935093 -0.1478407457667841
