# total energy = -340892.4700091638 ev
CRYSTAL
PRIMVEC
9.07275899143065 0.00000000000000 0.00000000000000
0.00000000000000 9.07275899143065 0.00000000000000
0.00000000000000 0.00000000000000 13.27889987249430
PRIMCOORD
 96 1
Ni 6.120084095916992 2.202720748378357 11.53957699137111 1.4874196884687803 0.4387911503732701 -0.5869777095152472
Ni 4.848482469740155 9.436123114994851 6.129553334602747 -0.326326984333567 0.676689412349783 -0.5316642816549231
Ni 2.9560682285288133 1.6258202874485335 5.0574816413806625 -0.06250968849844718 -0.5461470486521304 -0.8471031583210766
Ni 3.315276907312407 4.371101103515758 4.964171035735946 0.26368231291915234 0.8456229742311243 -0.06119894010682364
Ni 5.002102427033644 4.5125363453211085 2.680718154946495 1.6828086163281726 1.0784631049584394 -0.9540157984149312
Ni 7.278040341450179 6.098690529929627 2.6106846200809053 -0.47421683817073174 -0.10548182118459898 -0.4041000267489879
Ni 5.169376886791501 4.693392725470436 11.458481948595514 -0.9400503373737745 -0.5768858724968838 -0.15363935472643217
Ni 5.688356853546884 7.896929531552828 12.449699027158486 -1.0510019234236931 0.16756419233764044 0.16686330961587392
Ni 1.8893022848357415 6.305377055272349 0.2491397797821082 0.1820983813980735 -0.0018576220340290586 0.08230178352370987
Ni 2.6304196857024973 1.5981120811188434 0.3203545878841505 0.6249271921758269 0.07643221211681031 0.7526344004175296
Ni 0.6703235687875352 -0.11383409403318821 4.568578778359254 -0.8241275233615096 -0.28456429857448406 0.2470984404185422
Ni 8.891449094432762 1.877752662485481 1.3728654124596031 0.13267612221120376 1.4341880828381495 0.6206401347646988
Ni 7.181587839324791 0.24878957128036422 4.790057530159057 -0.43920329821002424 1.6876579740006743 0.23811320620079635
Ni 1.038331916634379 7.225899194830426 2.395805393259562 -0.6450861836222052 0.27929122310100285 -0.026323725496193377
Ni 7.744770288476458 3.624358591999229 3.715196870785779 0.50288592397065 0.36463744987799135 1.1909187863577102
Ni 7.664739480344762 3.8534457595908065 12.896348236440984 -0.36478168876533956 -0.3010391563010557 -0.2957642810553616
Ni 7.661164813254422 8.664249060736593 7.121460850134181 1.1927447838228553 1.303776588291406 0.14400903072551974
Ni 7.036387402487738 0.5107872652767609 0.40786134952457676 -0.5328619015074499 0.27843735974113987 0.1057330179634566
Ni 1.7435211914154853 6.397338541637032 9.271022488320359 0.49520269639377945 0.38804580149960266 -0.5646206819762857
Ni 0.03328613863207837 4.902837369583368 1.4973817730718935 0.4516911462643898 -0.9557975729057023 -0.06973474549197667
Ni 6.633792789627989 1.9349473359309184 6.944359684981534 -1.3347473256413076 0.3462221805955973 0.7396055922580295
Ni 3.545625188420627 4.249635004517104 0.5273650107271898 -1.346622994032971 0.8150237612880286 -0.6505032408727184
Ni 5.928349477591731 5.63074483318227 4.638758384646556 0.2846735704588388 -0.008013614333095876 1.3828704064007797
Ni 5.159823271445999 3.0743044252834046 9.303807810649424 1.8208974249145158 -1.3958902156992152 -0.023587814622269054
P 0.04550986698440043 5.600069834622779 12.60532769331949 0.10189898892934708 -0.8168155630811288 -0.8622729240829794
P 3.878241610245372 6.180136688482878 12.599724357291587 0.09445487394647605 0.21529826518880987 -0.10116956696249027
P 2.422526483397808 8.716889209107537 1.4954166134481177 -0.21632079291605327 0.5696122216536061 -1.092814231473789
P 6.161973024739578 7.7311974408441015 5.784129806014744 0.529280611914095 -1.5757301400804151 0.6200014727394354
P 4.859651036207689 0.9731078513743453 12.641459956485171 -1.2452749925110875 0.03291731955331105 0.8414678144121702
P 4.004842890901723 6.204406319108917 8.164093254587902 0.09726380415018089 0.6959893982299755 0.008890874731726624
P 4.7484462277653146 1.1157769884190007 3.7748330237084007 0.43620076393827456 0.32087727407290545 0.7532995448053542
P 0.23618115794167055 5.539844859633754 3.5848113423035888 0.40049508300654896 0.26091837702077 0.5670853414666943
Ni 1.650715938453337 1.368435184184951 2.7927386044330866 0.6424821703404547 -1.1583398239804246 -0.4693901062060497
Ni 1.8848384873523727 6.633357297190588 4.791345861953038 -0.19931268839383093 -0.7797132589121926 -0.6610529913641067
Ni 5.962181796322384 5.668995585600729 9.159931089366887 0.17220863308818726 0.32686383067364355 0.730701090679548
Ni 8.483583208528628 2.082053052181605 10.079521456564109 0.6344582715947138 0.9274910126515252 0.7049376085621989
Ni 2.3915611565467167 5.447647481532146 6.94624591160103 -0.7046894971071348 -0.8732150249167799 0.6520996388255608
Ni 0.31914518909444917 8.881414622854294 9.080071756382422 0.9567568514951781 2.2429764047394274 -0.6349310974660742
Ni 1.653900476901838 1.1467150969927544 11.415193093041863 -1.4489428725498208 -0.42161695258682874 -0.67671152383697
Ni 3.8757193832120866 7.050413888075721 1.5689150350187857 0.8046928116756658 0.06374690333965795 -0.5083127514131762
Ni 5.597865154158433 7.897328732953779 8.055392527660588 -0.6618646886321247 -0.030531078709321615 0.5289396836349084
Ni 5.196277617560176 2.941225194620702 4.999625563795921 0.7403913213841185 -0.42448064728786894 -0.1744704325391705
Ni 0.7775508796349736 7.368876805684907 6.930284206494344 -0.15371211694589657 0.5046106199712407 -0.020275976640216693
Ni 5.265920116508015 4.641206215055118 6.9851925446434215 -0.25270910173710026 0.27264312165686594 0.15891782951655212
Ni 8.271026608040096 7.105440172093263 9.474389291103801 -0.9020142085366595 -1.8607312690820017 -0.020948320116892953
Ni 4.747157895971334 0.4545171059848907 10.45388073578973 -0.9910792789261318 -0.5388620849549428 -0.18121443613122337
Ni 8.081823289507234 6.972161340730084 4.778943400246198 0.7287120852739772 0.5381380623047248 0.3177744667778656
Ni 7.464794015022656 6.368251275922235 7.141591488053081 -0.7662604758413964 -1.5901154622678098 -0.35029146556896446
Ni 2.4429764824374676 5.116900048084583 2.6188119976939164 -0.19577562177484992 1.0251476813647507 -0.05218105287892948
Ni 2.428587086484983 5.169086558499901 11.159959140963863 -0.6165960466023123 0.38418400455135127 2.2404132719979413
Ni 1.2274989441307902 3.41721842870088 3.757822507648304 -1.3280010080564095 0.736605371979125 1.0145290253086399
Ni 3.5805643837630097 2.962655051644516 2.9820562397307664 -0.6829654751664819 -2.3234748165058114 -0.5258062802122493
Ni 1.1187619261670256 3.344781519946379 8.195883295242323 -0.6107763545967416 1.1922475324714628 -0.20851980881439572
Ni 3.6576556179422424 2.9250393923639346 7.223071215815048 -0.35667474338748895 0.21901325214655185 -1.135123019544329
Ni 3.9932660502741246 7.08851947634838 5.951682799477356 0.6924428185292978 -0.5249007376788443 -0.21227053410607957
Ni 0.6904170083940725 7.326189474060418 11.510721988289596 -0.020786597728048074 0.18454195784255958 -0.8009528850172593
P 0.1280592730457361 5.560512604892115 8.114947933027109 0.5802162224216976 -0.5986973119450205 -0.12640057361513715
P 8.687257577845989 1.5865987498050331 7.8467145316926645 -1.8376121665660354 -0.1068823010765514 1.3726245603030554
P 1.7579015146088577 3.162382770747921 10.417562481062241 -1.2477640774815284 0.29674927067645024 -1.06118914836934
P 4.109188693455019 6.25986809556386 3.6221384878443907 -1.5522264005315203 -0.18232386714531826 1.042937915468636
P 6.912217621273546 3.937532091045806 10.418704741434508 0.7299156186637752 0.40465692769372247 -0.21716360053232278
P 6.381125521102926 7.7449245253813706 10.29005846087419 -0.9352971389595055 0.6148350980471475 -0.6099844548230656
P 2.381980322923877 8.635043849153334 5.786905163027269 0.5430221298699035 -0.3089753804289969 1.1081189801516593
P 6.977477977570031 4.013643467240885 1.7901814842553554 -0.8277612634593551 0.9684831387931708 -2.046696846744965
Ni 5.332432513562029 2.952656871102499 0.5178930502137004 0.8337087392920417 -0.8545675850189217 -0.35150296937856235
Ni 1.4959346679934435 1.1948733023621048 7.028853383320686 0.41955929872685166 -0.6007189703607396 -0.7284431478833068
Ni 6.774384264835874 0.7613687064818512 9.220390141541019 0.023054824936934486 -0.48512911420786126 -0.3085984567055524
Ni 2.739519614030763 1.7316993862918488 9.01665226290987 0.2603709891577322 -1.199667736194934 1.5805257616968458
Ni 6.585534783908401 2.0172916976363107 2.3307528031467553 0.09463716516061121 -1.0510312339997319 1.4924719061807072
Ni 4.082596436496171 7.048935028340377 10.48420915495112 -0.09963590392678325 -0.07669883551463566 -0.6008722081091522
Ni 8.250286280708835 7.159350506739962 0.5112817306483942 -0.9120163140546939 0.43326816367251186 0.24706964406313578
Ni 7.573131831585469 3.9414424502233096 8.175911430607895 0.4112770041134014 -0.1699380918864557 -0.04230493141579811
Ni 3.072235836205746 8.522287598902714 12.517899864683342 0.828702801437018 -1.0617635328155712 -0.3623936481491372
Ni 0.026600422442049326 4.573260322061324 10.356108147213467 -0.3344673540525143 0.5284200636860126 0.14790322357360333
Ni 8.50804336709603 2.1947911569139986 5.698467536301896 1.4962514278277972 0.7573796284119988 -1.216735490310498
Ni 3.4215007710019982 2.731517440493505 11.495264728589566 2.5282104756874264 0.32595366015454835 0.8405136780290171
Ni 1.0673466002762744 3.5918871871354567 12.715888335864873 0.15398079722625096 -0.427573941501212 -0.19620216778930724
Ni 3.176636075313718 8.437920011915226 8.051276216851232 -0.4006994857078712 -0.13655617399190031 0.18105039974953335
Ni 5.653753350291665 7.8785662671090515 3.5698068132832734 -0.900439664960688 0.693894977594792 -0.3375742751126122
Ni 2.9269174535002294 8.473303772454123 3.5561822509239756 1.7338388434321106 -0.0789665485028898 0.6764060767814092
Ni 3.526663121875423 4.4688056463986765 9.31897292750603 -1.2087565858700795 0.549117444134364 -0.9329286387273289
Ni 7.199370447185365 6.177333205917104 11.589731203745218 0.6685616410363261 -1.037121051676543 -0.21424951220932137
Ni 0.7778602607207111 -0.2468235043806773 0.09674555224472343 -0.5862675708221 0.9265911265450751 0.49644016834530635
Ni 4.755522979873094 0.6472606151234644 1.671680362934678 -0.753439155707012 -1.109687867300676 -0.6630767066623549
Ni 5.779138881226936 5.595769346803437 0.3409860421060612 0.3924657849441693 0.45684363699960673 1.198035857018466
Ni 7.799787499734887 9.017560446097036 11.495278337728234 0.8667070485949332 0.1520900079614413 -0.7125367610656955
Ni 0.13962613363831042 4.859451435507213 5.70504075027893 -0.24890232639650034 -0.36333184369269045 0.5584199524822125
Ni 8.042919298432672 8.595894893582733 2.674303714253931 -0.4389533869827472 -1.011072434218607 -1.3720272930386885
P 8.5876205372721 1.3904094067555175 3.4344013271841156 -0.20464464212970562 1.4196757481545872 1.7788848279281557
P 1.7866258699591522 3.233331747007966 1.5531130104724788 0.5839792890085556 0.23182300231671044 -0.07118690455747095
P 4.763434425819226 1.2416524483463491 8.19656012307212 0.24450779687323054 -0.9130876927420015 -0.03262961310956316
P 8.764294375470547 1.7324342797799643 12.642893452424952 -0.4693322563849207 -1.168082505189485 -3.121199681504076
P 6.135054148452678 7.763877519167463 1.4122774780444671 1.2418263718408549 -0.48136630473131936 -0.2769803155796391
P 1.694936566367846 3.1784415543771125 5.939638711755462 0.2820764991556239 0.5843670113652775 0.7397811986039453
P 6.998209232142179 4.022625498762297 5.865967000485745 0.395250546778158 -0.4932131767675763 0.14710900980708214
P 2.1346296912387612 8.394642950948422 10.09689034660915 1.1879419631175734 0.7718433692458126 1.0426823478144043
