# total energy = -340858.743073177 ev
CRYSTAL
PRIMVEC
9.30044597639981 0.00000000000000 0.00000000000000

0.00000000000000 9.30044597639981 0.00000000000000

0.00000000000000 0.00000000000000 13.61214278994692

PRIMCOORD
 96 1
Ni 6.034268919026834 7.8976225902519825 7.503162770946504 -1.1383788074774652 -1.6205285273420285 -2.1101696704876303
Ni 0.05467360228630834 6.305153711356813 6.862248571056301 1.228028289615498 2.2439328551154256 -0.08987471077496134
Ni 7.267898687077136 2.3912190890055736 12.544746718253952 0.5419921459434924 -0.6851097752029943 -1.1085586387922393
Ni 2.0318498527345303 8.371731429728923 3.0954962979483365 0.426332355784627 0.8531498787357888 0.4478797429380997
Ni 8.028321758919606 2.2465227489976827 8.605691591058816 -0.17804529437462238 0.6755938652927591 -1.5613031660218077
Ni 6.126845559240135 0.3522450945789205 11.955762489058445 1.1280339739080314 -1.723403764141716 0.6419463524416428
Ni 9.03977317072563 7.491407007109893 3.325446106931438 -0.3761035415360619 2.213079874290311 1.3689699942696036
Ni 2.28631005729912 3.5192794936782206 3.332442832512357 -2.0289606058074674 0.14112630986108599 -1.3580412631722418
Ni 0.8587706388442333 7.544196339021758 10.832162578322537 0.05252480937159341 0.044857265524006616 -0.5864413773958029
Ni 1.5780066852512393 2.409829281598181 5.381261349107564 0.09726637525334217 -1.7490985978046587 0.8951735314657422
Ni 2.990688641104082 4.295057601987654 8.283233965163356 1.650501162444719 -1.4071081959022218 -1.0232862026759797
Ni 1.0209285663546828 0.911831543781437 0.7249911624371438 0.7125352184037986 -0.6182752340769481 -0.3913465837380615
Ni 2.322033070666539 7.190425971286821 12.742476991905434 -0.32023655516511296 -0.8387324177588781 -1.327869624684868
Ni 6.578475220557988 7.406810149627455 12.907442724085401 -1.5169724624252325 -1.1758827179601943 0.8076148704184671
Ni 0.9397728739193536 0.23979340110704725 7.055745281655232 -0.6760049846882487 -1.4532291586300004 -0.27828849286810137
Ni 3.6591396017280124 7.266661727749392 8.583681155381823 0.9434665621441751 -0.36793000458633407 0.27527515996307433
Ni 7.846804952907651 4.810609229167073 6.593014607904327 -0.8484398748546291 -2.412838391972309 -2.5067507631517536
Ni 5.654085284443818 3.3373999702694084 0.1363026874267669 -1.1661955725794175 0.7297760077621173 1.1146256709219255
Ni 6.732230195041241 8.59979696833758 4.543120959743051 0.8172814469739538 0.030953253848404753 0.5787378381039581
Ni 1.3489087971284495 6.530522120604224 1.8477940249445732 -1.065313969170991 -2.0803384460588106 -0.2692029856270654
Ni 8.046485530100698 1.2728218478030509 6.190421548507775 1.3067642101648205 2.199175605504393 -1.8640778169567318
Ni 1.551500413942428 2.1914269064596485 7.994057985541083 0.28821140840876813 1.2431312066952074 -0.09697198394137493
Ni 5.298938450690039 5.791369168931315 10.001208643638837 -1.5644715364474606 2.995228225006558 3.188131153219303
Ni 7.913814666865541 6.475575085203361 1.7214325843255216 -0.7053047620936305 0.05643905682433506 -1.6926996501896394
P 4.245774538245412 8.298611322700896 13.019701898323559 1.1651452769380322 0.2489465493708745 -1.9803443874616602
P 4.589714334480905 6.880135188944409 5.979950593780524 -0.1779041408110678 1.2962304005130323 -0.173405738720082
P 3.650397182419141 4.0643879384784825 12.987195909252884 0.4834995490242383 -0.11224973603605186 -0.5262071151950937
P 8.779137469968392 5.6890735625714495 4.339659751221222 -2.4381213349088138 -2.231374815944757 0.6401386098089427
P 8.27758301412924 8.16701931121024 6.074881176894969 0.5862588290713516 0.29466821977770546 0.6741008256870004
P 6.219338495438778 2.0286877010696194 10.500339403231296 0.3503243756894289 0.18085191058548208 -0.10754204614773738
P 5.632750061151744 4.531037820204662 8.589453012214893 0.17231430542811613 -3.181510819689308 -3.660357443322567
P 6.526588031915231 7.657485072640225 9.585684244022016 -0.45660323885402654 0.37998513597865524 0.2563101888247973
Ni 0.4804610441449816 0.29116999526038234 4.521178417322392 -0.10066177408813633 -0.3325891631931949 0.563467799318765
Ni 3.1921735048353415 7.638251750160708 1.1724449234681 1.7131854288478174 0.2348239939265633 0.9330589936576059
Ni 2.280404274042595 -0.010463001832425557 12.028097638437886 -0.1643698537700589 1.6296418024972064 -0.0033239221669104048
Ni 3.3619996501331997 5.10665172812524 1.5491976234946871 -1.4782863587089443 -0.5117608578627768 -1.7341162654632134
Ni 5.284773871320453 1.1070320961009903 4.910662497978675 0.5403337844044629 1.1314414569276836 0.9679308658341266
Ni 8.709114411482762 2.8054237553246 10.581454173703902 -0.28295555932646754 -1.4738257518344293 1.2103617255736703
Ni 6.347238229838347 2.8965495259504714 6.69820916330523 0.1737204417470234 0.055585964795420405 0.38544641620354264
Ni 8.430510248911972 0.11949027106012185 10.334965381468711 -2.2249542571303937 -0.04843161313882627 1.380971903826486
Ni 5.746364310382776 8.976232523153069 0.9399970146697194 -1.001900537911352 0.7129447951373914 -0.9537933979914798
Ni 8.373777527865043 8.780625541340113 13.142292938104507 -0.7121891479182896 3.1661286808062825 -1.6012524527212357
Ni 5.734031918889623 0.2874488867864682 9.1193598779084 -1.0832379006392636 0.08230229774434213 1.9733083065504853
Ni 0.6904214043828097 2.111108254170913 2.832264842692049 -0.03589619967597688 -0.3526931330319216 -0.4955027441327014
Ni 6.15011527531545 1.6953225120194313 2.576520246524741 -0.5453973149702994 0.5082651860046924 1.0161246519305338
Ni 8.193776694563029 4.2716669801133875 2.4462926104730323 0.6350359984750548 0.5997401513872381 1.9033218500590188
Ni 1.6338558639212086 5.18072048065274 13.382560661961293 0.1448544094449505 -2.577413419774638 0.592307863478909
Ni 4.785758437259303 2.313355754480181 8.607448445322058 1.020187509145998 1.4420322614729164 -0.6264785958233469
Ni 5.480418054917701 6.005986262518028 2.016625022512592 -0.4494979952678129 0.2717008123482547 -1.180722562550999
Ni 6.277084965107694 6.1200934353909435 4.185706677236609 0.4554549841821962 2.4148986169354476 1.232017099059917
Ni 2.4940262198994687 6.387341753306275 6.804737402673039 0.4812269509399777 -0.26494883833640176 -0.6110440064358316
Ni 2.6556586722067785 8.747869370270067 5.4227645897095185 0.17601875086289684 -0.5202010182103299 -0.16025994536674334
Ni 7.601952109136747 5.753237340030919 8.516927203690948 -0.7502610150893466 0.6238666121217965 1.1844115813668117
Ni 4.028906736708969 2.7806380665393426 6.366794277796606 -1.0809784151811253 -2.3624229156342342 -0.34268948485199047
Ni 2.3247581013660064 2.6192009235995717 12.629686762196494 -2.4008043436259103 -1.626699689149747 -2.1484821929145834
Ni 1.3920721673544822 3.7971396205631507 10.375080065471927 2.19232670090336 -2.128783943154708 0.5799930506672979
P 7.942711152815183 1.5494357149141627 4.136662634958449 -1.2455398161367002 0.7186644712299881 -0.19850099112581296
P 7.155242383791652 1.2902973859747198 0.76103876137252 -0.13616356653917194 0.0881808680123062 -1.5971849675200815
P 1.5580572284240815 7.782204054482738 8.314528106110686 0.1945756879294778 0.6236825211354484 -0.2544962755445101
P 3.5071331111065343 0.49400156358305125 1.0633851026791474 -0.42663780284018776 0.25731857548465364 1.5729476922392716
P 6.4148338718988525 5.328281358051197 12.106422275088514 -0.6549425075909946 -0.1084445033573487 1.3493995283368438
P 2.9929393490538123 6.21240036266812 10.76851218548631 0.400762991955955 -0.2875421502558854 0.3222258176809999
P 9.287406847872441 5.239508600281861 10.456221807238146 -1.8759876810204401 0.8625814564623339 0.7891227251515506
P 3.0923611175770382 6.03844481931373 3.4208268316358295 -0.6196654295562554 0.8438687105441789 0.168115179745104
Ni 4.229145340666411 1.3867523122005734 11.587200691888585 -1.0624731572880863 0.8847633918760118 -0.7866398108286968
Ni 7.7640030815173535 6.707667716961742 11.055714610451837 0.9881492497635305 0.55158493183825 -0.7626712158282413
Ni 7.6705242980349455 4.641406213756124 0.17647689428485175 -1.1689289123501803 0.6088403139162933 0.03219689644751875
Ni 4.196854191900027 7.986376747129171 10.721019457613172 0.7661483757435644 1.329555497027723 1.1947101350793425
Ni 1.3609528747933304 6.349619144033104 4.740878204688145 1.6016144640463448 0.7877996354647528 -0.20243760717605783
Ni 4.004148949261931 3.6041925663271503 10.50940454801891 0.5406204624069464 1.9761100376653384 1.5563879881083775
Ni 3.463504718576838 1.2417955597026316 3.43763738791326 -2.140875584211919 2.1208646883076314 -0.43038955657313616
Ni 4.751067773406017 4.88834235744744 6.524572625251154 1.293832846815133 0.19089001154777446 0.4661435742442939
Ni 4.694242047898355 8.806406377855211 3.1783130500523513 -0.520155252574059 -1.9033969262713286 -0.09562369744359661
Ni 1.6311029318835217 5.71016697426562 9.211337569394582 -0.8719168749306467 2.5451491604242937 -1.4257785186182155
Ni 6.457132300640072 4.031827076775974 4.4313240176747355 0.45556117074275737 -2.790591553296652 1.0656186448956033
Ni 8.385830905975997 0.5214992624432729 2.4315644240714067 -0.2373578160920106 -1.8076924961884673 -1.991234294901287
Ni 4.264775349573097 4.22262572796905 3.396692174075701 3.207732472389998 -0.2788135121336359 2.0317237703749007
Ni 4.419209256619698 5.923770319230346 13.184789466347087 1.6559521582569612 1.4804795097055212 -0.8282065785268898
Ni 8.977181168652542 3.3873619665749994 4.512752213180012 -0.5382110816345053 1.2842292622870979 1.8326903037843856
Ni 3.1987582206552148 0.45238578758361 8.357406882686877 -0.9951120542346088 -1.8941121585352927 0.8111899893642351
Ni 1.0373903559043658 1.1462613776380313 10.158184362597263 1.853011531840241 0.0995446297645576 0.02000652502891393
Ni 7.504195120460635 0.19896630293461906 7.854369935743647 0.8896999099456806 -1.2088540306798923 1.1894797399183386
Ni -0.20075849889293765 6.649623633018483 13.058591713578926 0.42616780518230474 -1.1640661849412404 0.128529704142998
Ni 7.182911210859621 4.389159515356972 10.319937720703525 -0.8588538710991015 -1.3911077067089073 0.45532025837654494
Ni 8.688867340381261 7.788993380116222 8.75967256638165 1.1784512500183189 -0.5375955595376934 -0.4529448161658328
Ni 3.4752232806291543 2.6033622639367975 0.9341442439558123 0.04219205998701766 -0.5075627606210291 2.5736981757065807
Ni 2.6877452111595503 4.342861894804248 5.375993576451665 0.18401025370880567 1.8425682250197302 0.39204592379793124
Ni -0.08175836134087697 3.522711358279256 12.669393156617094 2.6491916780592053 0.10633825564762331 0.8205320927007674
P 6.155955955449461 3.9195055895491264 2.308782725145955 -1.304230130889057 -0.3347602027025847 -1.3119472970276567
P 9.360433950439736 3.2420238957880536 7.024465091377013 -1.5800012566519437 0.22877753062216727 -1.2775148263813998
P 0.13263459149547033 8.124990595405144 1.12957637738259 1.1375730237467183 -0.3645322917586948 1.7560282350449563
P 2.9239114382980236 2.0827697949856683 9.655378996761256 -0.5927056131379599 0.26373039254826836 1.305179896396836
P 6.452919198568882 7.887215391095997 2.547376368709551 1.869677422531696 -1.4356096457760246 0.758919462095293
P 9.587085821245257 1.1520462550956032 12.242230178784183 0.09685911251259448 0.781973258590963 -0.802975828984559
P 0.5687538988969361 3.815303391744241 1.3422431674277389 1.4600641792739628 -0.1832926588164908 -1.4737738155505715
P 4.145236716193394 0.3991425939033702 6.567696003559072 1.4235329171171482 0.877361957205618 -0.9411127172000178
