# total energy = -340860.4753670171 ev
CRYSTAL
PRIMVEC
9.33751736312197 0.00000000000000 0.00000000000000

0.00000000000000 9.33751736312197 0.00000000000000

0.00000000000000 0.00000000000000 13.66640051164811

PRIMCOORD
 96 1
Ni 0.2916321503949871 7.608340051547308 6.919394660509243 -1.2833381179313963 0.5240152497500975 -0.6617739286905313
Ni 4.7688009546791434 0.6442849781922544 0.14557283286446684 1.3825305065628577 0.7548054399269194 -0.35507423166958846
Ni 3.154176089331399 7.156983126639668 10.559194496772902 -1.2806734266150395 0.9676660422085139 -0.022169079897871497
Ni 4.753543450949178 2.175043995620134 3.0454892521734704 -1.4552122504983003 -0.6808114049379564 0.23664767739886342
Ni 5.591445591223643 7.548309151008783 0.4399035258408248 -0.9750505075980433 -0.1069244671683965 0.99163129477486
Ni 2.628371136737702 0.0051804547548255754 0.7852348061015769 -1.5700539156312445 0.2840796456285817 0.24790705236276658
Ni 4.110141801920237 7.195855212336024 4.48688449132885 1.741595347449078 -0.961543474250544 -0.5072930518994102
Ni 6.405947912436115 2.777612680260372 1.62963585861353 0.6935339947109476 0.4112636343769627 -2.7161226355537997
Ni 6.338064159610625 1.1784694190645748 4.982181906476682 -0.5951499609133943 0.23833303552108634 0.8714605041195185
Ni 6.389719306877559 8.145191287441218 4.038927356573034 -0.5754293425560155 0.9530030408797008 1.7748613085910594
Ni 2.0451871385989384 7.1886092986919286 3.346956609838208 0.5929575812477659 2.1378902763313503 -1.5611435005154919
Ni 1.2019439382672275 8.22856598193624 12.281734920326253 -0.521179065852883 0.7979647489232128 0.33383511978515407
Ni 7.505552657998066 5.104157898658165 3.060426479050353 -1.5064088279767733 0.44878708524371747 1.339452701536777
Ni -0.02731597393613327 1.6618913793508578 3.00528283521456 -0.7561213305248655 0.8822642796032417 -1.8413261250825126
Ni 7.967078139553155 3.092165635065363 9.096861741942062 -1.0200309289634757 -2.048904138808929 -1.2564873162871395
Ni 4.095099061094672 5.019307876385093 3.496848978336385 -0.45475924366675224 0.22802702560938792 -0.10086154880376823
Ni 4.8883865423594814 8.074020728426653 6.941342495587141 2.247102253982343 0.33246575024145325 -0.9132872103473174
Ni 4.538210957976877 6.603016221016855 8.71231662284143 1.4024596413866168 -1.4587837698996424 0.7684657110228313
Ni 0.044680955384491454 5.508481747502255 8.003782053666832 -1.037645299611129 -0.8421108473128078 -0.16058647546822666
Ni 0.26343097979202346 6.180176074806471 1.9787852498138063 -0.012942161982964807 -0.3772623377308535 0.0904552658687797
Ni 8.46610309171996 0.1566583337385276 4.597937455442209 -1.833629013548571 0.23537549555465914 1.6206246866002607
Ni 0.7007050606815886 2.743820204128949 8.35233010873479 -2.3060399088588155 -0.801672022571471 -0.6262759928942375
Ni 2.1407753060919976 5.939146733446858 8.748751616448729 0.9508872800882785 -0.5042627497135187 0.6269601634454557
Ni 8.784475091216233 8.816670851841032 8.676224316129412 -0.7163797889608695 3.185950086407584 -0.5788468528779966
P 0.9024860143862646 1.361251325743938 4.879260052674249 1.2190865070411778 0.9330800767035284 1.311468300508709
P 3.894071645058911 6.888193345506991 2.057927247588635 0.10580783706545004 1.192859455023849 0.8691598810107999
P 7.334367948156289 3.121223989782409 6.91998199036519 -1.2180202705601926 -0.7331253838503246 0.3471984284659375
P 3.5527386898270277 3.4221535064343898 4.960316241553511 -1.509883416788935 0.25189509047623715 0.44306715204080466
P 5.66521198012617 3.393337927174491 9.466483640442185 -0.0177588666453178 -0.05008611802311374 -0.3410925726785158
P 0.30949015277170644 1.402429778283197 9.973561267772222 -0.8052034327634972 -0.7353005371247724 0.1337698694960148
P 6.582314944536234 0.9185138633167946 12.459493242546179 0.3275248612964101 1.8983727335838594 0.5306777493719377
P 2.7977537056860364 2.1255551524323626 1.840645080945088 1.0326401330870538 -0.7442749727092408 -1.803328819903133
Ni 8.041694242555698 1.0216364737472527 0.676747791819916 -0.8890921011583527 -0.653262034564778 1.045988786479818
Ni 9.122287802319477 4.959743851725698 12.792188060262399 0.549627293891247 -0.19126950637438028 -0.9420984781520549
Ni 3.180563914019822 0.23925147801188498 11.256905015565751 1.415808037669065 -1.101856287071399 1.64461359331569
Ni 7.5529218846945865 5.176570347511214 9.539311608827662 -0.77714061308901 2.604589465968798 -0.45413549403982434
Ni 2.4970949770439517 1.7846797355620263 9.87673494544771 -0.5332725066823073 1.3893020209587363 -0.022694613384038335
Ni 0.15579834836917034 8.695890061910124 1.490854202286887 1.4188421965096985 -0.08196728300242657 -0.4620642619685978
Ni 8.84411381601629 1.5268895501416506 6.648936264984557 -0.11637867060276086 0.09675549705519466 -0.2311187771608342
Ni 2.3235945628416914 6.816481210472636 0.08425242114778508 -0.21834862197935945 -0.8790917954125312 0.03855729144790779
Ni 7.111780204022309 3.7359501223151903 11.203059286673941 -0.9152546184863335 -0.3364753856214786 -0.3864506890983409
Ni 7.2831423266981545 2.7641666549414303 3.5507357923055602 1.7891358162322026 -0.4442344328760285 1.0597876400361232
Ni 2.9521775714670486 8.057175846707647 7.9211412880538035 -1.0308300764615086 -1.5574549959203114 2.5186873666883396
Ni 3.018212495811184 4.3066591969636026 10.555873141768771 -1.1792626901760206 1.538885203337924 -0.8834459586161689
Ni 2.556929789713242 8.293116240984743 5.712186229828947 -1.2959550353644584 1.1413741426603632 -1.0759377674334245
Ni 2.032992340636065 0.49304520590690865 3.1523739484379574 0.562659701595173 -0.6363560028380589 0.5611149828158724
Ni 4.435722364990277 3.2350296540791184 0.3927079769713396 -1.2256646744793278 -1.0415384640179481 -0.32830159156143457
Ni 5.0327912517743645 9.10773994992579 9.455455098425379 -0.8704855418007589 -1.529706107941817 -0.47165987607683285
Ni 6.408935918062547 1.1504942163871104 7.682061620365439 0.9651358195874926 -0.9086453406999319 -0.08734963036026247
Ni 1.2187421323983219 8.692257767570492 10.056038626827556 0.7870892396612896 0.012568837803946095 -0.6168505858152796
Ni 2.478429279396338 2.5699929768112972 12.481332762420118 -1.558824108353696 -0.7900987159115748 0.0585141941858089
Ni 6.414529091094524 1.363118829260458 10.12509517186142 0.7630368266977763 1.0441607321321436 1.4592519677853126
Ni 7.751680283957776 8.123005345664966 13.315352362883738 -0.6820920714225931 0.6927639493141424 -0.07015203553505338
Ni 4.912057149431368 5.278564052065937 1.260813251618477 2.2870422847103904 -0.24030610008705708 -0.8476081229819532
Ni 0.39523657673270723 3.6051221634654045 10.586294774052876 0.2538984940595111 0.5702236299853599 1.2200676400075245
Ni 7.885832399066966 4.888134429384751 6.008897989788869 -1.6812497564814852 0.09925666621049357 1.2765666035355177
P 6.505159036751223 0.3210668070706119 2.510299160657504 0.0989728164214876 1.887974163958355 -0.5892695908732174
P 3.25109952183877 4.6778722084598 12.668835717989243 -2.18721226249493 -1.9610233185355455 2.6676234024018317
P 3.7162666352510727 8.150961873307264 12.944268209130179 0.5961622042279926 0.9069674387768768 -1.4438816559768295
P 1.9396358398452462 6.452168624469977 6.587314251449957 0.8109377641441131 -1.54979439405126 -0.8133206625539927
P 0.7227677472257521 6.0492173907105276 10.48260817756043 0.2962134527776383 -0.4959722275699522 -0.07000188311043427
P 9.313538837446258 6.89469225774448 13.573168693353345 1.4653825061630827 -0.3711765365480898 0.6803835733719186
P 2.4051297663729403 3.644451787523309 8.623812829938288 2.516354090569473 1.9411697741447278 -0.9151672009788497
P 6.270852708051082 4.307499573546036 13.072240755103206 -0.8879358760667223 -0.7754526838636258 1.2788857385869974
Ni 1.0424964880267775 3.1120358724811323 0.6696643509817569 -0.4594679619963313 -0.5079540825221768 0.5688856279002267
Ni 1.7636516459660148 3.152355273402792 3.3981234049355726 1.547289111130903 -0.5409302803378813 0.01066904967807195
Ni 1.5310727580186547 0.42270008344664556 7.645284873614616 -1.7868493341908709 1.4434715650226044 -0.7583494485244359
Ni 3.386969740183159 4.736530493913683 6.916470150002374 -0.33823170619095294 0.3975912790961927 -0.09690770636234278
Ni 7.139718056629443 7.2991841819050585 8.075517532495144 -0.8895500146313777 -0.924435513654653 -0.23730819380099777
Ni 5.5362141747225735 3.760834606672815 4.652152016278533 2.710458752399803 1.010406518499834 1.751492809068448
Ni 4.492363746646319 6.040692237157616 11.974144952382606 2.122097018052836 1.661838698944725 -0.01360524948826044
Ni 4.48460426953518 3.0404824752456814 11.546592161048284 3.1600750184130346 -1.1046186803078848 -0.18805588453308902
Ni 8.814878048465173 6.278304047081996 4.649350761003754 0.22236519933792023 4.137546990968378 -0.7826204052566585
Ni 0.06416555332409947 4.2114165176211 4.511675600510649 -4.218282201335915 -5.098390096717788 0.01741588148360226
Ni 7.479482308907451 7.624858120150924 2.154740497388532 0.523606187237137 0.1096863461842498 -0.6073197635067089
Ni 8.378769289769917 7.415324225597417 10.303714413202462 -0.13441907304423947 -1.1646719368460392 1.3324790984324213
Ni 4.355363688674435 8.967957311714292 2.5918735817626 0.15491282212221708 -0.03140679644605559 -0.1900762573972275
Ni 5.811605580786146 8.426689430003812 11.887663665787855 -1.0694076796243903 -0.8163118839718327 -1.4492981990067104
Ni 6.9352264215705395 6.062728778652547 11.993769613085952 0.8465552562374066 0.3385610645059137 0.653965488389706
Ni 8.054225191151545 2.818454982166657 12.967719384538874 0.4543740924131917 -0.390989714619275 0.8241758601009419
Ni 2.633534783960879 5.223192572801128 1.6460493470202215 -1.7732016615004496 -2.0810776382176805 0.3666084575614332
Ni 8.409116221913361 0.16609669651101808 11.424264144453938 0.4355824136279853 0.9791416469482815 -0.5369862080884688
Ni 3.1507212078258373 1.351577657528366 5.652765069188566 0.7834974085449732 -1.1624049951887336 -0.6302326635491404
Ni 1.835139680578388 2.92932866594243 6.405414740182149 -1.2209330733316135 1.0360183055306675 -1.108004566060982
Ni 4.856274819392926 2.7220544506439115 7.040260421850155 -0.5735105282667479 0.30619678924259525 0.13819036716121363
Ni 5.6917211925431666 5.05821731215178 7.159622842860268 1.0613840379889656 0.16886465631661887 0.14059177751385465
Ni 7.323695165559379 5.640047370241067 0.8169160695075748 0.41646831850635374 -0.23186568262918775 -1.1486207969204476
Ni 1.654934928751822 5.2887139336782205 4.216576429837243 4.802289772479246 1.4868265349694716 1.320140117251094
P 0.3889318848609368 1.3185508578387157 12.858962515999078 1.2359945956504261 -0.04390364336148568 0.49006846049100755
P 6.179176960425131 6.98349204995499 10.212545692781246 -0.8452288241164992 0.1108590263361123 -1.24041277932278
P 7.755387278438067 8.904947743066918 6.721245067392441 -0.6788000309348825 0.0769538889482352 -0.3395496536714281
P 4.613013811331073 9.202711841258397 5.131583121550014 -0.3499091425288813 -0.18505669269544903 -0.5808368867248319
P 0.1595445604233088 8.13196936254426 3.5869924393270316 0.9012886432245445 -1.5531797655837252 -1.906681253449555
P 8.801880223990198 4.05843996706539 1.8134495609857701 0.23493300870060185 -1.334733955904869 -0.35624048406354775
P 3.471128786155118 0.7202550212442748 8.248028169833649 2.3823515362373615 1.3416646215864314 -0.3011911084978877
P 6.287156013750299 6.155440990730167 4.672064272523424 -0.430247117458001 -2.427042194276517 0.9671068272709343
