# total energy = -340890.607898655 ev
CRYSTAL
PRIMVEC
9.10658127962093 0.00000000000000 0.00000000000000

0.00000000000000 9.10658127962093 0.00000000000000

0.00000000000000 0.00000000000000 13.32840221006510

PRIMCOORD
 96 1
Ni 6.546293412192476 2.181263034095726 11.87340771391094 -0.291672113263859 0.3111201946861416 -1.5868876993591317
Ni 4.6575428816169895 0.27852843700905716 5.928992859092522 0.39477232159015885 -0.8717708362710856 0.7836131081872311
Ni 3.0209353788883435 1.6196055151170434 4.9248447249851335 -1.2011767166402927 0.7952769176784046 0.6243530648399119
Ni 3.4916636818510374 4.330079318400268 4.92217922858775 -0.12784321959893466 0.25605333561898486 0.03271780194799527
Ni 5.340290614452919 4.626635144094879 2.7789990075573483 -0.19832101390452297 0.28165920911254716 0.11784651339753897
Ni 7.386612324269734 6.263197113916156 2.6397429849761465 -0.07241640608919787 -1.5352249808775171 -2.127191144746291
Ni 4.762122863262219 4.818255831466782 11.295061473723354 1.1826470332672214 -1.3545376208943576 0.41123895178661435
Ni 5.831581578383475 7.81735362798093 12.239058815879936 -0.937508030567895 0.40619881825954557 1.2444473544034698
Ni 1.4621618280163486 6.865014657194339 0.4439039565734401 1.7214517826216675 0.177882543544513 -0.976623251401802
Ni 2.8651217698714606 1.5704299751584712 0.44559231677868444 -0.3949654114375714 -0.48043376561472095 0.381654296150962
Ni 0.4856275809119937 8.873143364309996 4.668246757481305 0.6628355371858262 1.6146479001915353 0.3294033092660456
Ni 8.658628731112938 2.240155296486853 1.4578343804999943 0.8992021930091612 0.27870089781517166 -0.21016942860267676
Ni 6.994191515400329 0.6140549674626888 4.890150470886214 -0.5224201373488357 0.1687633548520642 -0.7653767876848625
Ni 0.8204128356336573 7.537426420057496 2.642116160108221 0.24012663708639936 -0.3514237794011948 0.22411226393601402
Ni 7.5157800758942495 4.197132335464122 3.990763539395385 0.3867157698342694 -0.7600828862757748 -0.6350218574076676
Ni 7.832379487412716 4.314443318009738 12.649973270406353 -0.7319655592142684 -2.5912392699141376 1.0395080638514809
Ni 8.028453293125311 8.850795813373269 6.965116932728898 0.0330247916654528 0.3093816147284801 0.11187666896734925
Ni 7.074775654862071 0.47102608817688735 0.35875013452814103 -0.4641113743056136 0.5581638706073484 -0.4078548658057298
Ni 1.881283133766963 6.577447027414379 9.071577595940605 1.087529843146398 0.18661195299771086 1.4230114973960395
Ni 0.3549035145136038 5.056292764610692 1.3533263408484075 -0.9799821405717059 -1.4891181592171259 0.8451020687306477
Ni 6.504284751853793 1.9363870582649851 7.3036978106088455 -1.1747336919574154 -0.05407209925405526 -1.0399958021211768
Ni 3.545028249287562 4.338885382685443 0.4168847293406469 -0.2769998559636649 0.24323355814649722 -0.205817065171252
Ni 6.012966468178815 5.87373594402574 4.9246052218923735 -1.0300302062680327 -0.3332026284074778 -0.4213205043923325
Ni 5.338906414068901 2.9350603155903188 9.478880380254509 -0.24124583829250706 -0.3600652571262767 -0.22477509433099352
P 0.3195581398393065 5.548658305155158 12.436439416034021 1.1181110583673646 1.0842388310999522 -0.5602706325377061
P 3.894939535837223 6.268724808870759 12.693010974451576 0.3325963622820466 0.14224885350130342 0.5503626293953747
P 2.4211759230232412 8.627994191035043 1.6144156743351192 -0.05681006701050862 0.2916096354570397 -0.6722809988694421
P 6.321688686722435 7.879943162450424 6.087400933171294 0.22963422219550775 -0.9643413487106552 -1.1900767500723892
P 4.75787008971395 1.2707870183442391 12.798198365081108 0.7118541331763741 -1.1272482447819423 -0.8877543561835356
P 3.918434516039652 6.04429310844872 8.433493091942973 0.39329959369937423 0.8532938605128207 0.5884604647083607
P 4.822226300989363 0.8847772428323963 3.629630212495548 0.6437690074726784 0.7997748055487582 0.8608493042625754
P 0.23202021476416398 5.6698122650827205 3.667469879835522 -0.041867329657747254 -0.009513853027706194 -0.6020965674345565
Ni 1.9070547593378444 1.1765976461606262 2.902859443498928 -1.4947529889053999 0.7388283477723727 -0.9788914786106884
Ni 1.7459957593920474 6.645154460672154 4.840795531272608 0.9594652515652765 -0.5902376112134415 -0.19564115307951468
Ni 6.004542880315542 5.820480655566901 9.208220029638822 -0.1444170647972158 -0.4439112452086549 -0.1289207689338296
Ni 8.594126814533944 2.3918436240961003 10.191935726893425 0.11592718488763906 0.40963484052428806 0.1530719122587364
Ni 2.4414198536395197 5.115148600675924 7.147102856901509 -0.6324181012362334 -0.89027043773717 -1.166908539486042
Ni 0.5253395614029828 -0.09945115495918025 9.153920216284938 1.4793304837027426 0.1179555281715775 -0.359252274306678
Ni 1.4650304011805986 0.8609016075243623 11.519884757148766 -0.17368007542739122 -0.0391859261708422 0.36871856192590047
Ni 4.010329029691865 7.040616867753811 1.5364314638841503 0.022466556533632276 -1.0080950967578381 0.026593434217812264
Ni 5.545297976591321 8.078575917557158 8.072907070589713 0.7110907726477882 -0.04134770970885137 0.2741662431696117
Ni 5.235519394596739 2.6235150567898176 5.133887213374582 0.4824464251693756 0.2727973878465431 -0.5330249094478755
Ni 0.7809430902098715 7.4971571167803095 6.908617879949088 0.006176046903724847 -0.06786503927308958 0.4693744224767658
Ni 4.991007682024951 4.729585047656298 7.180556794603696 0.4918828879919271 -0.6797749932536422 -0.731886626347217
Ni 8.24944270575025 6.973419403058569 8.88140758699748 -0.12731691478181945 0.5047126927667437 0.5323535944124639
Ni 4.793449503532124 0.17813475086733763 10.218033368081068 -0.37536794892161807 1.342964057124145 0.018209323919175093
Ni 7.965171658463808 7.254585106062442 4.5497036544622835 0.19058790692632338 0.41531697851072985 2.0357637447722294
Ni 7.065386769362573 5.888807336364894 6.970648270316089 0.8914803988848711 1.351809680440233 0.776770631344101
Ni 2.5702233420050833 5.217543002767439 2.6409159126699726 -0.1593664870181965 0.15455132501774027 0.27000748380623174
Ni 2.2718462000157107 5.522686334791853 11.439861583105811 0.1280080273115731 -0.7564424613097102 0.5456657381403376
Ni 0.9482501157048495 3.583567302084724 3.6649373395276554 0.033870941715831986 -0.8086888202089364 0.09004800312803202
Ni 3.949706516820714 2.702951766985859 2.6077688667634527 0.1495466727142973 -0.257847194294614 0.37664038787613846
Ni 1.0691764110955677 3.366584785308262 8.361933574721778 -0.13162659790076686 0.2643256029301061 -0.45197833848750546
Ni 3.6616380250596943 2.87492045153728 7.247065801739518 -1.3404011814929755 -0.46218201849338464 -0.5023141106275801
Ni 3.872118442663856 6.7940470677689415 6.186698186903566 0.7311052680965021 0.9731579185610207 -0.25609498749019766
Ni 0.7831514362172705 7.3839623090608555 11.019883348038512 -0.9222670452484246 -0.40144819094843764 1.107158673120919
P 0.5098947992234016 5.59102212217132 7.9211759420475385 -2.4461269788221096 -1.6391134894330674 0.24751495913067045
P 8.51554612299644 1.8077292752030028 7.96969125484926 -0.12571100374728025 -0.3466258437919192 0.8920923214372571
P 1.6898172582801156 2.8786359367785943 10.772627822468664 -1.7936948963577946 1.985018653008878 -1.3301381090040705
P 4.113133227949702 6.3005614177031966 3.9064748425900975 -0.9993764859379174 -0.7285241376328871 -0.46359072591545325
P 6.9187070615639215 4.157008737490517 10.393407914103694 0.013441727327202656 -1.0859930947868974 0.5331202973751593
P 6.540410560560396 7.845383685757316 10.200320156456362 -0.46526322852186963 -0.7788431976024135 -0.5860567403628746
P 2.4244998252611816 8.588963382838294 6.041564776639167 -0.2816522671340117 0.8285863304638117 -0.3171244918986926
P 7.268882438976323 3.9602610447488598 1.5982086912861801 -0.7113088021958653 0.6680139960629721 0.11617323946017413
Ni 5.538668385278388 2.980820887496212 0.5840624413786968 -0.3969248491567874 0.34119156015022534 0.048964345713844705
Ni 1.0806415971710939 1.2948739263424658 6.929542982859607 2.4606048607233104 -1.2823994081672108 -0.7665751788683378
Ni 7.394580583059318 0.41924515525865835 9.211445580796846 -1.5469039598773424 0.6273142043507648 0.24770316388207658
Ni 2.571097573826569 1.6330468293723865 9.230758818786502 0.7615173047294562 -1.3504421106687452 -0.1567287922850333
Ni 6.545410073789516 1.8731782762552724 2.4519862201235814 -0.19339889401255725 -0.24966285871160873 1.41179968784062
Ni 4.272981052559483 6.953430456723558 10.536155400021954 -1.0791331344422705 0.8471149853956186 -0.49019932964191704
Ni 8.17156322098623 7.144204232018396 0.03105162150939609 -0.34258638361522287 0.13707707949237682 0.5025413961470377
Ni 7.695890044283257 3.838861207121503 8.293238988032241 -0.20366093806019764 0.9245478708628013 -0.19581213143974022
Ni 3.146770121693445 8.426729633882376 12.80445003326288 0.8571548861301239 -0.21152080042424865 -0.9723277093502416
Ni 9.238717970994612 4.838791172690223 10.184512041675974 0.07887810255414157 -0.025687120353458985 0.2788968158760616
Ni 8.595010152936904 2.562673985963295 5.652709194416759 -0.4988130394528571 -0.07113059739823878 0.10578289736478558
Ni 3.5296290200153497 2.6669443438384155 11.567387418090599 1.8029300418028176 -0.09881572201833304 0.5775733854822117
Ni 1.137229894449347 3.1426175205413878 13.124558210623205 -0.7209748645307197 0.21293670693516875 -2.325261990313221
Ni 3.1956724642078025 8.40154993610729 8.227902908590249 -0.48155193837956417 0.5900974860911514 -0.4656036425804239
Ni 5.690894001194589 7.814257390279835 3.4655842538263415 -0.37431868172149724 1.0643220375713671 -0.28727244153426656
Ni 3.1953173075303245 8.462272621374654 3.969424997685954 0.37630151647948096 -0.9034756235735344 -0.8714103676078734
Ni 3.1230565835356447 4.12928830348424 9.53499240332168 0.1658569798385466 0.40735092958611774 -0.34299158947344155
Ni 7.255076861462028 6.052397965960411 11.28974323014265 0.3982479388435851 1.2473164484211485 -0.2394931172674585
Ni 0.4804140630182377 0.058884977125947854 0.43078501530227 0.35304151751027585 0.2781373120022178 0.10353986696687975
Ni 4.717837557555083 0.2051685486304889 1.4865037202958415 0.24628005828230487 0.702092682914236 -0.027692837929578114
Ni 5.867889518719553 5.439743590728394 0.4915168071511064 0.026956473984185835 1.0514505809253376 -0.5840839329072199
Ni 8.081690368421203 8.832664609658915 11.475981017205381 -0.1486969231194923 -0.40658139840994495 -0.13361688885791828
Ni -0.05473875058092232 5.093984905330791 5.85610013834356 0.5433386326690578 -0.6647759487416487 -0.23300390999868903
Ni 7.91084179339106 8.667881017890327 2.467300758188087 -0.451859553521454 1.1074036992521896 0.12827310804750167
P 8.508552268424555 1.6561320134084938 3.581248766441492 0.6936615214277473 -0.8082324493978081 0.2750838698878746
P 2.0531789656665937 3.1934868846540887 1.6655573252338867 -0.4383404359890967 0.6111221679719346 1.724564102998404
P 4.53651641383006 1.141346069275509 8.050528557275973 0.4992192737523402 -0.3634372589223031 1.290765520743719
P 8.595784212362178 1.6224194487924506 12.226437093957234 0.0017882022486743396 0.41540079647378786 2.584978633716406
P 6.267959856026959 7.6416148186993516 1.1268711580228887 0.5526149157646612 -0.3074113783759867 1.189716795629809
P 1.6610222476599297 3.240376672662734 5.882543829627209 1.0355701622496551 0.05140303706232438 0.11218931511176163
P 6.762684001173141 3.908089439485404 6.0589847563404176 0.2901047687767391 0.23804250086386103 0.13203360353119842
P 2.5443788637824114 8.461908358115702 10.414693637640577 0.35751626545217785 0.4113883328802851 -0.5089964077437622
