# total energy = -340875.5739673071 ev
CRYSTAL
PRIMVEC
9.19205241395566 0.00000000000000 0.00000000000000
0.00000000000000 9.19205241395566 0.00000000000000
0.00000000000000 0.00000000000000 13.45349785472009
PRIMCOORD
 96 1
Ni 6.917442407619975 1.154475844911847 7.360933207290589 -0.651396185000633 0.7414295328406457 -1.7766016883209337
Ni 3.3144335543209054 7.070315434227156 2.433589488493332 -0.6115353442499533 0.17129563435561468 -0.08476207213874434
Ni 1.3504136378983587 5.70629755849712 9.739027516688525 0.07211044481300484 -0.31702190488255727 0.7671634472716401
Ni 7.031285978934385 0.008112905615026044 4.637555068877349 -0.2459938945004538 1.3817566045113108 -0.7664990742147638
Ni 0.4666262768317965 1.0086715067455845 7.515756787457151 0.6433059517933308 -0.030700514407650353 0.11102074872495718
Ni 6.367224523749332 8.509901174291125 8.759437825923929 0.05081399732807378 0.6783063791279157 0.7599450751463298
Ni 0.6788836399847679 8.881342827358866 11.16468178184865 0.1928779885120807 -0.40919363922181146 0.16205843202806283
Ni 7.007689979938495 6.673687557065635 7.433487916785858 0.5146757175167265 -0.2684367968850022 -1.2104208609463798
Ni 1.1090395289645618 6.3864175295551044 3.453889860969224 -0.3235226821155525 -0.16161491673274103 0.49539244380708225
Ni 0.5049470248699589 8.951910215084398 4.111389109811009 0.026948760674701974 -0.6069158432000709 -0.2046364145995895
Ni 0.13719322330091402 5.166751647682273 1.2430523020696918 0.6269629916589331 1.0118435080566768 0.6932558013488963
Ni 1.8915681579162753 3.249629583568658 8.589748858310482 -0.21941074469528665 0.7246551415957843 0.17380014594502324
Ni 5.715553955454214 4.808849888078088 10.962233258013368 1.0085918338885986 -0.9560418277060244 -0.6427413375391124
Ni 8.441282501714454 8.44176968050167 6.242436894622494 0.3138933865559046 -1.187732932430561 1.03341609202113
Ni 3.620418600902581 1.6273242221411182 2.933050696378193 0.6458107204930555 1.0152149956320708 0.06303496487429788
Ni 7.563708048992778 -0.19341457455083902 10.771825403864383 -0.564963410027685 0.011209238452258114 1.0994839301844808
Ni 0.201778423201544 4.083973812964403 4.828097126994135 0.8586723512159148 0.31062577154822635 -1.3486559653025998
Ni 1.8253669951705043 8.208631650687591 8.91140911217213 0.770630322774318 1.6370555784627743 1.7640462202534264
Ni 4.698159190801696 8.989257524753388 1.7833418499389864 0.47256387594834093 0.04808348577078816 -1.2716110593024552
Ni 4.787129067810349 1.6982225237598536 5.30270945911523 1.0331751796549173 1.3983404770119208 -0.06225463506484761
Ni 4.250000666826401 2.8731506856821616 8.440321013013648 0.1509895758084109 -0.8632352879962488 -0.9978009139206816
Ni 6.509646186562853 5.145885688305309 5.611978826086945 -0.11392352419404894 -0.39694053288607123 0.32969204415105796
Ni 1.344843254029442 2.077477421528219 3.699375575026068 -0.03136668723673953 0.807342590593687 0.8820933012430163
Ni 7.583829452110037 5.420865941504384 12.307569206061581 0.3629868016484458 0.05784570736387457 0.6440654556671745
P 2.4363443466542467 7.981201885531265 4.238578622279346 0.8729841398528965 -0.37520262698834733 0.093037167663343
P 2.456438173613738 6.5060153257902105 7.565938040950863 0.9007132303370488 -0.8770624236873282 1.1869263773688656
P 5.892923802211004 6.197465696536211 9.181326382805201 -1.0632853687767365 -0.19109672824194185 0.953549400301474
P 2.5589295599807675 5.462414019206534 0.6235199072413938 -0.5920934334752577 0.2364304191817347 1.6594809973458258
P 5.715673452137871 6.794195366507048 3.0738279009835465 0.47250088392088946 0.4988413215876313 -0.25253606649434573
P 5.9915912947010215 1.4112374498795814 3.282330310653923 -0.9349400127304027 0.0018385958706355432 -1.3415072700729607
P 8.682454385491294 5.824590083264591 5.794663517650678 -1.110717851227087 1.4832025650636393 -0.06014633047259319
P 3.07840921999389 1.5176538427021018 0.5474924402780125 0.4185180019465308 0.21505889548449417 1.3055123400355904
Ni 3.666185830743069 3.5864263904285654 13.33518829080881 -0.34579254925734637 0.5364318782468955 0.0695586249254286
Ni 1.6701683792583133 2.4506839486930416 6.230664632871799 -0.3599845244870123 2.4414061763076726 0.042330128226778715
Ni 4.620173816636864 5.496773911784109 7.450116339919306 0.10757469915788571 -0.8692431847532256 -0.7704475173395506
Ni 7.82871492513282 5.601811496718284 9.775325093951855 1.2540028593023889 0.025778908736316893 0.1383114661201102
Ni 6.4384721233664495 3.4030449412785884 9.06985068423771 0.9338670913811981 1.4536940140815608 -0.9221490316133215
Ni 6.607927612844135 2.1635518019713462 12.30237661555407 -0.6513427060548783 0.3668719956354649 -1.2471547260323037
Ni 4.533547913038398 0.41588063130912173 7.384907918853145 -0.5039549886651127 0.6540729605018477 0.2734972421270451
Ni 5.232566744219308 7.443577113707512 11.239213701855805 0.3400682451790595 0.09961276399833167 -2.8252232844379086
Ni 8.236924788556445 3.512632592244304 11.01653163186168 0.4896555413233051 -0.5520420739803267 0.09039278806196045
Ni 9.844780243314123 0.9301070332676471 0.3687594121222783 -1.5936371022678233 -0.3830416634167919 -0.9379296914863459
Ni 0.8690451471243699 4.744597440481179 12.513421546970557 -0.7878155763043528 2.3325073590217245 -0.688648127373556
Ni 8.428404436037306 1.3393372145286482 2.7491278353307256 -0.6827775275253919 0.8272709540864978 -0.12705054849431022
Ni 0.7586669796360028 4.778745915849207 7.246699892946408 0.28879839126048973 0.6368008036849613 0.6392122413399313
Ni 2.5986392271651235 0.43109623595964586 12.289097776384043 0.7249580175481837 -0.856325705360609 -0.7531941295757415
Ni 4.401926912016918 5.734746961259987 4.358421846318577 -0.8694352461593736 0.7588104473212545 0.47190233110494206
Ni 7.199656806206572 0.40357431130300697 0.9511108734334465 -0.7248034942481903 -0.12077628544982423 -0.8491698110421182
Ni 5.330471296344441 2.0264982978697845 0.8307087725968062 -1.114716687973835 -1.1423899855193873 0.41515242790840756
Ni 1.4879727048923135 2.6498205759805153 12.346597742149093 0.20820459156682206 -1.7606027417895163 -0.48842089758525564
Ni 7.93075590092299 7.306247848028281 3.359876304705003 0.6215274224656586 2.4563293732764087 -0.36795031630130826
Ni 0.2331959397453889 6.922231467018829 7.976417422158705 -1.7910803415530832 -0.2885716199616643 -0.7519466303218856
Ni 5.115294537289212 0.30850734581208944 12.17764873476906 -0.36544837581506096 1.9590798216559293 0.2144022357371017
Ni 7.419466359766641 5.288187854435173 3.5015285927168267 0.3558252509030001 -2.65275239882727 0.2104954444835278
Ni 8.096534569365087 1.5994906869017131 9.278957930968442 0.13664899081602272 1.2071115940674888 1.8197977640924337
Ni 8.278371753680117 7.4475388883733595 13.583324073627056 -0.3440256871649108 0.2303541310806678 -0.21180413599262232
P 5.978658076708339 3.329526904671996 6.565898790791581 -0.4989966162185729 -0.959535956902212 0.8686137786993428
P 3.0978044509566196 3.3950478555261836 4.74502211331079 0.6894821932390771 -1.1984667739082973 -0.35854933470238254
P 5.833019195488678 8.050730571314242 13.468296565939188 1.906932964449045 -0.7424916555565729 0.7893255851909761
P 5.777186668063266 1.6468113736297374 9.955884582957017 1.0325619715509506 -1.1979175862730465 0.44279795753981804
P 8.885111568920344 1.3075970569389304 5.415840646353994 0.03778956004394782 1.0167980238484748 -0.11347898045746263
P -0.06741175607173862 6.86771340311364 11.616974891078463 -0.12891254140371347 -0.7672187259896078 -0.3750403903788702
P 8.988292359231545 8.538212696265155 1.887916155422677 0.7759784744601087 0.14249799339763203 -0.03913193300445519
P 5.84774486373621 4.037094344760648 0.19973594911627457 1.0004926018202318 0.12638514699616943 -1.1609682627422069
Ni 8.167212261721687 3.2409614779772578 0.3198080552649707 0.6164032138652158 -0.2929779765594761 -0.203893622896294
Ni 1.9788926575115025 9.301162253202362 1.9977768103502849 0.834187478700673 -1.0545266487475 0.9611205277805125
Ni 4.009031008206519 0.45347520719275536 10.034924285553805 -0.3946141987457397 -1.1270512982797878 -1.3095361164830028
Ni 4.04798692707858 7.570960578485477 5.944778009275909 -1.1690908918493415 -1.272684751982608 1.0056610333950486
Ni 3.8330032011277195 5.013161640973152 9.74902387387903 -0.15731371825422583 0.5953229961561488 -1.542236379198344
Ni 2.519615151057738 5.136316761560189 5.882366729812571 0.6015509793437317 0.1079228265259238 -0.9550897482054003
Ni 3.0468988637188965 5.730077398544789 12.000156633712837 -1.3953708528606354 0.5247454430479027 -1.8677120712752093
Ni 1.8118914460750724 8.260667860393758 6.534565841131554 -0.8386411435966524 -0.30197503785176383 -0.4961254653183649
Ni 8.349371167877331 3.2201047106528824 6.852700942825333 -1.9137373889653881 -1.3723533089195397 -0.5042938600617701
Ni 3.7675282105364776 7.51222336244195 13.409357124738703 -0.617899081684452 1.9977546125183079 0.7120294824119737
Ni 5.067679704878341 5.927182582210099 12.762136429101906 3.3228032228146125 -2.4442472453008937 2.7108981539300667
Ni 1.564983721482715 7.506340448785008 0.1243408953710144 -1.900125711719224 -0.5229780667348348 0.10111737356831617
Ni 6.820990199803899 5.877131855863151 1.1694561330160933 1.0901909349183287 0.5455610942416733 -0.025916719865761818
Ni 1.6159536530885608 2.943745649565461 1.4841763871730684 -1.1324506149184883 -0.9886030494714974 -2.1555324148931456
Ni 2.529027812908844 4.285316532873229 2.8440826577800573 1.112055081981272 2.1473223682785276 1.2760418413802992
Ni 7.26570170405833 2.804532013105491 4.498768862862766 0.08441805853576428 -0.34379403077007886 0.8867719376656081
Ni 4.738732910929415 8.656955631609488 4.033640890602972 -0.1321996967954175 0.11750018580171377 -0.07811345647397515
Ni 4.70733285928549 5.31787818429755 1.7445421959609386 -1.7046285404167416 -0.9521764312133473 -0.12438919961206318
Ni 4.073228303487895 2.5567326594120034 10.966726333318858 0.21349849297590973 0.6896516289374057 1.1503930583295219
Ni 2.6401964969198626 0.7198516991685538 5.301498865789262 1.3664114895138082 -0.554736075872722 -1.2877192777182274
Ni 6.561618051900897 3.4978885398915938 2.177421690122845 3.497225575724667 -0.8777082848014433 -1.9622433069855754
Ni 4.265103209230081 7.563478247678054 8.760447113298198 -1.6087078805580168 -1.0406606893986852 0.17423029150390637
Ni 5.14095874811762 3.8193254268753307 3.572293609573022 -3.0783766728012787 -1.5457742171482733 3.2392182017031055
Ni 1.7961086917798086 1.537802821977127 10.062355208889814 -0.2619830708398585 -0.6057413632759955 0.9225064149527403
P 2.6228970539474186 1.0326811481079776 8.06468594555482 -0.1428777453345539 1.1667321618091777 -0.19213828213257875
P 5.944711826497269 8.390689444264757 6.337633468054916 1.4679849767829363 -0.049184946365083033 -0.21354425861218063
P 8.909654349332897 3.584348986543458 2.6159120131850595 -0.21036431822230225 -0.3420197124784755 0.42642697238096233
P 3.0175118715919553 7.812959746995323 10.827698376321187 -0.4308626395548128 -0.3922863219435115 0.6860775384329023
P 8.660660028802843 1.5225072464690788 12.03263399392019 0.3514124665472851 -0.020641330399435418 -0.2509144717305227
P 8.573528562311983 8.827817505133286 8.647477706184999 -0.4253887609244351 -2.0285638845896803 0.8477173948663078
P 8.792961241715906 3.7009134054242026 8.884434114644536 0.6120991871732232 0.8298034907003644 0.6511354751400785
P 2.430102942946335 3.9162648134786218 10.839671944023578 -1.7438304074271838 -0.1612503343044707 -0.23627923831585115
