# total energy = -340896.629698039 ev
CRYSTAL
PRIMVEC
9.06097470585491 0.00000000000000 0.00000000000000
0.00000000000000 9.06097470585491 0.00000000000000
0.00000000000000 0.00000000000000 13.26165237938333
PRIMCOORD
 96 1
Ni 6.358376014166098 1.8924117835393457 11.330517108082208 0.38687672089216596 0.4957649966551527 2.0175467075435707
Ni 4.674330408628844 0.23131581514088498 5.980421912292875 -0.34679219416645435 0.3651411289872873 -0.6095450532928018
Ni 2.4976849045403764 1.5294744353103593 4.655847832098636 1.049578303603289 0.26961359080192276 1.7252819550010352
Ni 3.334275652877265 4.524153811211612 4.701706331989329 -0.06264210031125342 -0.5298220862398617 0.20310506555672764
Ni 4.80016922755792 4.5541818819151665 2.4678081521170725 0.19436588591151688 1.5039765643861969 0.5448332149367133
Ni 7.173863752041738 6.063776538371091 2.510404701056263 0.4336720839791499 0.6607660562513072 0.3022563165376085
Ni 4.96853120152978 4.792222752601066 11.330742726356352 0.5052680510495814 -1.5831102345945702 0.13179449093719886
Ni 5.828952313762366 7.731548633050293 12.384129077612506 -1.048649621141433 0.6108208346814319 0.12997877788469875
Ni 1.9462974010631948 6.629380711411904 0.3228724356671562 -0.6916666024849055 -0.5748906964437261 0.06628278238763423
Ni 2.7642134802027316 1.591070942444566 0.34872430305530044 -0.21479792851362361 -0.35332073931359154 0.5099109491382314
Ni 0.5241166874251336 9.101114983938103 4.704889452459504 -0.10534015340041214 -0.39931803197931226 0.7052548826923015
Ni 8.608814097557445 2.4526518594599107 1.5393599588883853 -0.12188185980917719 0.1464451509708381 -0.22185354980882435
Ni 6.967998403102466 0.6562438229107179 4.882450128114599 -1.1203736291492963 0.4608013360957741 -0.3988382641294163
Ni 0.7584090328092646 7.4768808734865955 2.651521229705697 0.2546718818904259 -0.005175116443036249 -0.5613895766334978
Ni 7.7791549949925 3.900042923465654 3.703250328658991 0.325251234770885 -0.06589094626585426 0.7241900290339076
Ni 7.588040913133911 3.803226407030085 12.804444143078422 0.2483179146479401 -0.2149750775214362 -0.32539598787886537
Ni 7.874693913972064 8.892060171846252 6.961359426818672 0.24579720510861544 -0.5599119636467067 0.21508152119231347
Ni 6.746258226199213 0.7778892226721407 0.5410317153036475 0.7538176220923534 -0.15319198277636842 -0.7475150769130933
Ni 2.0505982827374893 6.393260767397446 9.136509870054368 -0.8129823053779676 0.4767455181298563 0.4430100735506241
Ni 0.3133421023038495 4.792286179425123 1.415747421483709 -0.8745167744473391 0.697283948671683 -0.04757106491074388
Ni 6.363912269808788 2.0712844883549346 6.987206763719383 0.5109324484242103 -0.15387563910695437 0.03909465200861654
Ni 3.30788103309469 4.182256046619817 0.05687936361933938 -0.08985157084650977 1.2156486850042223 0.8870671003085238
Ni 5.885420309122822 5.559116482274184 4.606064117896301 0.14967162832793576 -0.10618733189205583 0.7088724248402308
Ni 5.337503159019045 2.670251170849727 9.35660004343465 -0.44526056014769766 0.24375729186045117 -0.7894029753961308
P 0.15733929804823954 5.680696643016575 12.561358121587533 0.03090723110181774 -0.31108471346251587 -0.6834992361827649
P 4.023951754748425 6.295329751053446 12.578385505554378 -0.7067047277649507 -0.208306407252009 0.8929484987899653
P 2.26530714314528 8.579166587798234 1.4953707381124 1.8073878204638552 -0.4916635728922694 -0.6990176435333382
P 6.395562255013227 7.773183812556278 5.746724872957393 -0.21968045341690554 -0.8493659862133244 0.5219413979402043
P 4.773457473655061 0.955072055675354 12.736703388888067 0.029796514536142234 0.5866645491502026 -0.6314703926109834
P 4.122662014930838 6.041704003599256 8.28906316773138 0.3985040207184492 0.40862362565095434 -0.3394671212599509
P 4.6347158265178185 1.1555461245697825 3.8189317947640835 0.4514867435630676 -0.8588834387854561 0.5483509982819846
P 0.2901876871331005 5.665791339363182 3.589080233161428 -0.26565177794069733 -1.8793792232004924 -0.1555715387521385
Ni 1.3053331000678068 1.0562287790713947 2.603554240963852 -0.2538028490219113 0.6831493090425138 -0.6542807056372797
Ni 1.8607708593097707 6.6407069299935095 4.925722625778741 -0.02997289221300645 -0.2847077661308839 0.16292360824183552
Ni 6.168023054196193 5.643338243647006 9.14925413120239 -0.38969233596409014 -0.06909762612861003 0.04530643724628326
Ni 8.58224731925243 2.3233698700820256 10.30010032810955 0.44666155426028237 0.5774975379389538 0.14582860043276175
Ni 2.510986415642615 5.227792875350176 7.009433335063927 -0.9327064954141936 -0.2806739623811424 -0.3024774314094791
Ni 0.5792663109426901 9.136996444404632 9.341799847089694 0.28255909521899725 0.18408687258301198 0.06341780213501336
Ni 1.4136389326325574 1.1560172952627772 11.414728902382677 0.334638589523056 0.2629675462403149 0.1878643373475732
Ni 3.9327621037041975 6.993332888825803 1.6935134181739906 1.2674805820738493 0.5522019965969587 -0.681502260357394
Ni 5.770572452705337 7.852802598697536 8.105097288944014 -0.5453047552564931 0.49257811428673876 -0.32468147831034405
Ni 5.146180674738554 3.0699941989815005 4.790626208829803 0.7651261051266371 -0.7140123171699574 0.3162963395704424
Ni 0.8446550159669923 7.58166198682875 7.180667638068081 -0.017700245493240483 -0.35349943098330083 -0.2828061782327968
Ni 4.991573260612198 4.402908906539235 7.115062555653472 0.5869417140709892 0.047275388047196 -0.27117142220734586
Ni 8.390924834971939 7.196353091657375 9.200152345313155 -0.8699224702084373 -0.5090586284402653 -0.2065863392371087
Ni 4.599341780643746 0.3684446087521065 10.597771474383888 0.13447049510746517 -0.42305882723967786 -0.8372175237762485
Ni 8.350947813866302 7.063301736735532 4.8638705991533335 -0.9824473142827468 0.35939857007655523 0.14579620453292955
Ni 7.20539594457293 6.122301375025965 6.94101663214862 0.318658926265348 -0.8610817319883557 0.0763648492139846
Ni 2.4186550817653614 5.32894053777135 2.4219360607640814 -0.7266004382476131 -0.6380770992942236 0.5898935976104615
Ni 2.3765306096166525 5.448083296274983 11.315610898331325 -0.5100135361543667 -0.6922353305041821 0.5307093739408215
Ni 1.2306706671778593 3.334964286967027 3.712082060860184 -0.9232414933465518 0.763722282800575 -0.04991796787636565
Ni 3.6303158236758533 2.685482669598271 2.6966639125820326 -0.5310446457930532 -0.5639120859450353 -0.19331456182886708
Ni 1.148668844647031 3.2671610120501 8.180649509565734 -0.4579947198849145 0.8587322579195726 -0.2736124275486707
Ni 3.563128695049766 2.428730885815558 6.996649205626497 0.4227335826897752 0.7116908681256324 -0.4540727591226889
Ni 4.220973592219179 6.844769144934591 6.055018200066306 0.47525916339231694 -0.14743245458477192 -0.45303968987248433
Ni 0.7667859040722205 7.473075264043176 11.274831980950111 0.8418568223204727 -0.6527195317977468 -0.01558499892245058
P 0.23801459385879006 5.596483942618618 7.961129271504476 0.21965062862023463 -0.41463872149678266 0.21715897254663244
P 8.59527700110871 1.487359024136515 8.067368295702455 -0.19271832300576486 1.8451894646926608 0.20844730370524744
P 1.7668085499567665 3.27050451177539 10.416603624634922 -0.056216913511199965 0.17536491932898185 0.18187315276114485
P 3.8309982949921833 6.366965818338388 3.813812343965197 0.719390036542103 -0.03174386807050017 -0.2575142364352275
P 6.8712181305663576 3.9043650084763946 10.392666341235813 0.3225394922666768 0.22957045883710786 0.922754012187172
P 6.520223147209816 7.819865955062225 10.25257007835621 -0.5294947848074301 -1.0432222794782744 0.207448687237404
P 2.383815633408341 8.58713118470482 5.887816030877204 0.0803120067871907 0.1436966416914235 -0.04296184827350665
P 6.722319130605131 4.048244228362254 1.7634686746214225 1.4233148875690713 -0.44232873121288335 -0.9195866702027841
Ni 5.258926384987295 2.9394889779968025 0.4601407682913031 0.06661754001923365 -0.5856168246119786 -0.24617849970743405
Ni 1.5450955559781105 1.0766069115434203 7.240318753898711 -0.33408400257116655 -0.6640832935499983 -1.1086859083987228
Ni 6.99404870584016 0.6481297199188554 9.386067239794043 -0.35966442214343214 0.10198846331935985 -1.0892105732829307
Ni 2.7965974043712603 1.7346602111347358 9.212366539431558 0.604644530667391 -1.0674217595426134 0.49161240793935984
Ni 6.372402403257559 2.0833084020011676 2.626496629322753 -0.30180637348438344 -0.6230382026832302 0.756658176864942
Ni 4.26519114956177 6.837710645514535 10.42550240805012 0.09242036001495052 1.6727003242495773 -0.8368159174624556
Ni 7.935257469971629 7.260695074175763 0.293257545417459 0.5713484876184225 -0.2003033344418744 0.3787641190873606
Ni 7.709140842208443 3.800707456017536 8.374799924101678 0.04743428222256347 -0.21201985154785422 -1.3322924363429118
Ni 3.091876453281164 8.424160490777805 12.444190655604533 0.6440870529337295 0.0923421984788474 -0.37809177561068436
Ni 0.14218209929359094 4.896224622104805 10.125550614402188 0.18152888204784864 -0.2562806211384425 0.4159859795532965
Ni 8.73919246489403 2.20535067246169 5.817807314678067 0.12596837117372497 1.010052477594525 0.24621526648264047
Ni 3.70509604923905 2.6146802120009354 11.531046448923314 0.050132654990333016 -0.038514096914798186 -0.6350272567243064
Ni 1.082541850080182 3.5148427599926624 12.52504717091239 -0.5987291936242205 -0.10015680942725977 0.13896658320560581
Ni 3.24123756296052 8.08178249451815 7.913374309574479 0.2168959486932329 1.2465317477363242 0.5123666097675756
Ni 5.562269701527303 7.922563044185364 3.7497856833721213 -0.7883992167219648 0.30681385400130384 -0.6156923038411203
Ni 2.9324848444259373 8.469565035827747 3.654765958252338 1.1438244039730687 -0.2273215149019311 -0.2996664443232452
Ni 3.462941495964311 4.205751154445501 9.317544523472813 0.04174006005126359 0.042343240852901275 -0.09790040929291527
Ni 7.230250198628406 5.952471523125931 11.33945575978681 0.7744597238227372 0.04543216419087014 0.7293222080541505
Ni 0.7068421187534418 -0.14910559018815514 0.15772257728504108 -0.9759894744725449 0.533665628355668 -0.10782126795105301
Ni 4.632251241354461 0.3688061416492314 1.649352038875565 -1.1261228729282475 0.2812637734463414 0.6543321277005053
Ni 5.893185564582372 5.476897196346588 0.3857864085467753 -0.5699469792852054 1.1480145307950165 -0.6188375343383213
Ni 8.010826000348105 8.885617818717034 11.618945153896467 -0.36169585075116417 0.6964581103362779 -0.3425215918155585
Ni 0.11501910884243989 4.872865428902101 5.8253532945458755 -0.09067226697559223 -0.7577956329034949 0.04698819582408037
Ni 7.827015064230935 8.650086838068818 2.7359187739909068 -0.5880475455406582 0.6788900195455276 -0.5274939523273173
P 8.437462001880043 1.61410394055212 3.6451504517252977 0.18748767073444486 0.5478236650236049 -0.5948959359210594
P 1.8746794557279831 3.203806675792028 1.5473961374964063 -0.44021039931829997 0.1933654696714605 -0.6082474175273009
P 4.81477551904076 0.9473521050901313 8.075365512118555 0.08740696596075916 -0.4016592785179792 1.0812491523440089
P 8.567278588774979 1.7050851891744458 12.676230442637156 -0.18907558404685504 -0.18306048820102666 -0.4913455274312183
P 6.090379560575567 7.841621355713774 1.430667222696887 1.3247904715389118 -1.0349348426585014 0.631695621247912
P 1.8886605399451177 3.3545722365755033 5.8915554952041065 -0.6091341910076283 -0.5346107658777567 0.4826287163835107
P 6.915698456180041 3.960552113616026 6.008350555120143 0.220015211048505 0.6057429059378923 -0.5718287696889507
P 2.5812723976726297 8.686665993599973 10.045171612469732 -0.38945502314230346 -0.925932924135786 1.047748706593718
