# total energy = -340875.2439045136 ev
CRYSTAL
PRIMVEC
9.16337798621502 0.00000000000000 0.00000000000000

0.00000000000000 9.16337798621502 0.00000000000000

0.00000000000000 0.00000000000000 13.41152993126747

PRIMCOORD
 96 1
Ni 2.232492124386663 6.144365709864103 8.632330981987826 1.2169617473886911 0.9515771070664515 -0.34543413747666313
Ni 8.288073864192718 6.979112797944188 13.113767159736508 -0.27898988981050016 -0.6888157632996718 -0.6415910259847531
Ni 7.1353667206843925 0.7849514590069673 5.831722246388353 0.912358784995777 -1.228130105300685 0.19599879352924954
Ni 8.83303828439008 4.119983064679456 4.67332831045377 1.2172065164096457 3.5659979573033747 0.05304185821732801
Ni 6.155490050833292 2.6771083914097358 13.35714648110525 0.45006492351487654 0.018834873318315952 0.9196123812343968
Ni 8.811880044441267 7.947736839533211 5.697486088459325 0.6650001489373129 1.3170252257711963 -0.39206700684385387
Ni 8.320209831061701 3.607328715534285 13.208841788835205 0.012435140439559228 0.4281588674704046 -1.0441735876479499
Ni 8.493782538342074 2.7463468760581633 8.754980048355455 0.3392817447220221 -0.20633102869319303 1.151668839718152
Ni 8.28460094390662 6.636484928768786 10.316216243396854 -0.31450299511544544 0.12274626469200149 -0.4338137517633367
Ni 6.118204265492576 6.454463586913788 2.5754828633333835 -0.43927580331917254 0.2633326428892175 0.8020276061386767
Ni 3.8884519911469235 2.7906701357517103 8.767868339601883 0.08912086332807233 -0.3623023739869115 -0.7651700709906951
Ni 5.98251296312705 0.48492596712477104 3.7928073999326712 -0.4965247576393127 -0.20901834571736905 -1.6554767612824393
Ni 1.2864924632366255 4.338749552569418 9.865186528067078 -1.2522632509034628 0.353401729063172 0.44957847079676116
Ni 2.8586440742273633 4.8598158827769575 0.8852831181007417 0.5808520562334835 2.4336725551088407 -0.20972334220419364
Ni 1.482368832723759 3.3105452268109836 5.80440255102959 2.603892954122406 -0.04862573142750336 0.25677401583509324
Ni 6.922125749766771 8.074768749628651 7.757524354027177 0.32586238599232265 0.38334659625172046 -0.6385792357416228
Ni 3.3774287232970703 0.5177143665118809 3.7268897234944864 -0.03695343729589765 1.2883276007261877 -0.43445112823701953
Ni 1.2357823290327616 5.7838967435989055 3.196450173865709 1.3454153468781151 -0.5623930781973475 -0.07355206235553785
Ni 4.799649142411476 0.21349846184120846 5.93517861740181 -1.176592599543025 -0.9940324480171849 -0.3421269274803011
Ni 5.174614572773261 7.237098543946282 11.507535113051695 -0.3524923298750252 1.024308730403223 0.5767467758158583
Ni 1.9003105062037442 0.33657820697782576 1.6387418793787896 -0.9753251014156686 0.3395280564048733 0.9317598152302081
Ni 0.7607418141629831 1.796746007329138 3.398723497579029 1.8982644901407697 -0.14808294368457722 0.865045344621794
Ni 1.505799590432339 1.0867858017189147 9.446022459953411 0.28101514777064507 -1.515373750479545 1.659493338641
Ni 4.502169236955343 7.643072845675229 4.132561633747335 0.46377250290895605 -0.45044570389306293 -0.4455616363278842
P 6.788926886234539 3.767751975293419 5.514324822373219 -0.22599919654608172 -1.1683766393911363 -0.11275855735167033
P 6.769454707849428 7.652666902507799 4.986970582138449 -1.8166003402010584 1.3462432420960493 -0.6720639977626296
P 0.38132023304887863 7.642807107711385 2.382504870327761 0.9646349686916742 -0.3656016135634736 0.37299430648311893
P 3.5896159057373804 7.8599333509279665 7.686510006710027 1.1790426037454147 1.0375149446808518 -0.3747575690311288
P 3.0343610119746156 6.571260003712208 12.64901711843213 1.3833558306776306 0.2568097541690352 0.1206490158433406
P 1.5784651784765458 2.8519914617532027 8.432647228915274 0.07355849011344105 0.919538590573668 -2.2305854872742423
P 1.0570689666587176 0.714804883592439 5.368219340838432 -0.48274055937102667 -0.5590449876607211 0.0924509561425698
P 3.8072369713693948 3.1024632377431587 -0.24892224875940458 -0.2122651347894409 0.6116595285326434 -1.2689512530821048
Ni 2.316575281498093 0.8560317826461745 12.218051535710376 -1.6129967377413572 2.2635534575598304 -0.3135092637436085
Ni 3.346071643563492 5.169913759826642 10.889049245298986 1.3703311362831885 -0.15079905706415966 -0.4145824143375505
Ni 5.955545141485928 4.63645854247714 7.301545498205262 -1.013231903763771 -0.2858922733572883 1.250416684613027
Ni 0.48664593318730537 5.027890563219182 0.9575051986466714 -0.37293902776515125 1.427387000755916 -0.0980230509137086
Ni 1.48989196611396 6.499858961840775 10.974641610777491 -1.382063337118452 -0.8018805390378512 1.1236499859077227
Ni 5.085821439337148 3.2472079576355037 11.1989491933825 -1.4207700096600306 1.053786685257682 0.44784606148668676
Ni 3.49166855761575 8.897447668799 0.17602482725018898 2.0591165605655566 -3.1797043626081885 -0.5046088201990278
Ni 1.9567202615631563 2.8185176416869364 1.133703213742262 -1.7570664465014838 -1.7671238307374857 -0.3919644198277185
Ni 3.8880396391340626 3.9882503416373978 6.0895723743951065 0.11875539836505354 0.8642493310830598 0.12991244342313754
Ni 2.7660481388948646 8.248726318787696 10.879714512065616 2.5311929553545185 1.5123385631976471 -0.7542451965480752
Ni 0.40870315571628135 0.23764029768752218 7.446832690078971 -1.1027026942320945 1.4578424890322959 -0.0028739791136853728
Ni 5.4000886534057635 2.2822034503815964 6.7325345412934485 0.7655459662728751 1.4117025001411236 -0.5459282477731049
Ni 8.347993193350481 0.020718397801759394 3.6133343935171562 0.37983472644372 -0.8526492849502864 -0.09834418169855322
Ni 0.2321257767688584 8.806876840018553 11.562629923658983 0.9426702914951249 -0.5016199127740328 1.5632253227451853
Ni 8.344511109686321 2.1577281227658958 1.6413167886146562 -0.9836259079718802 -0.04559851456540533 0.31765645314276264
Ni 2.924977768029635 6.037016735849237 5.043875159913295 0.800896320747711 -1.252520104109275 0.07458975959143282
Ni 4.929036040669256 4.025490310087796 1.532333984291054 0.7495771016484446 0.9270801503663517 1.5262834554135134
Ni 8.174805347948778 9.362131733781316 9.655081265122815 -0.3280282832953899 -0.20987863683513533 -1.1159598163523168
Ni 7.72459942030692 2.3307418639843918 4.1222885706002526 -2.040891552917098 -2.3421795920041664 -0.6173696915435432
Ni 5.075897500894289 5.071893104680504 12.664467490185139 -0.5181328228273915 0.01366001398559583 0.8637114563017191
Ni 6.434863121235787 -0.12017587062826807 0.3852137523880947 -0.18304069070668477 1.5149271498604295 0.09577333564758345
Ni 5.936338701064659 5.31893777727468 10.352936648311047 1.143281386985405 -0.12709785679247787 -0.8993055513562448
Ni 4.92733165234943 2.8301001515593045 3.9059870314093943 1.0586571259761057 0.3542661339459963 0.621912059498587
Ni 2.7774565445840245 3.632280594001419 3.2135902725336396 -0.58734743414984 0.09479143135028836 0.8422520008763623
P 7.338683753159155 3.2187465053700173 11.320283314998004 -0.4380383313676456 1.1842143777543412 -0.48554229048587993
P 7.116526815385667 1.131961255572375 7.927407885299154 0.7188251651775684 0.5788311691487128 0.2342979462197642
P 3.281414847946856 2.1838162601129145 5.174449631968115 0.19850870443529683 -0.9381888586850036 0.3209965732595891
P 4.807877855912573 8.60734428268405 1.855913939485688 0.48130768357924203 -0.564289523889112 1.3038676053433158
P 7.236154716005734 5.266477437860672 1.0169828529817708 -0.344108219576388 0.133166431584061 -0.7268758033961868
P 0.9240350439316309 8.0712591758303 9.598270153804217 0.07018263166267269 0.33094725671439773 -1.016906524401881
P 0.38666889682459155 3.8123501363288734 2.6846663456365785 0.45305151694702617 -0.5600425756873 -0.1702383967356939
P 4.351413341053288 4.853154106924732 8.916896938738951 -0.7532656062436253 0.9059626516614462 -0.20633205713445757
Ni 0.334537522683066 2.4379167338160492 11.275006147648039 -0.8790385735770926 -0.6742931442034645 -1.162975522980223
Ni 8.68613100727473 9.035466469192674 1.1028730282473396 -0.13936793240908257 0.3960848697539953 -1.157789093683277
Ni 8.644373493438986 2.7521381309943473 6.440954018634649 -2.1312763705592586 -2.020999184868545 0.8849755078868178
Ni 4.980222670532426 1.1354525026145998 12.1389770810485 -0.9525122172862113 -1.683754782291526 0.6590511304427296
Ni 1.391129077344671 7.479607344398986 13.753255490010945 -0.46578901911835263 -0.17865824536827296 -0.9927335267001032
Ni 4.983109134622456 0.6433488614526249 8.263554497170185 -0.045946899043759586 -1.9429386931196924 0.28796818204971053
Ni 1.5986062834602994 4.043239773396954 12.417266123826073 0.9622924366014265 0.3695832239190409 0.5963203270724117
Ni 1.75792077447374 7.978452482802338 4.273691400993596 -0.5705275343790239 1.1879483908754769 -1.4236833266520836
Ni 4.08947817910579 1.6457610269754936 1.336451200439276 0.4434433044333008 -0.13855932046485814 0.8351554990408971
Ni 6.366559301149845 2.0670198433144953 9.862316558057564 0.2126256034526532 -1.7677869182427812 -2.184865359529308
Ni 7.151842474442713 4.219112488571288 2.967850464975717 -0.33076085173520453 0.5649477262984013 -1.0621317147882676
Ni 1.9148986040809668 7.544273303393686 6.535452271253147 0.21139095971460367 0.9347890889748354 0.6894819361287609
Ni 7.523005102908111 6.088175875578217 6.25929554655097 0.7082566456331028 -1.6838751099194744 0.8290915522350044
Ni 7.449441503813673 1.062475359716231 11.816912748585583 0.26210494112970345 0.619842835674384 1.4535808855424641
Ni 3.0845488336288556 7.109177786178675 1.9026673270416974 0.9992186202038147 0.037481798995541896 1.2986708916337248
Ni 5.987507004171703 6.909736862624807 0.3765030452008535 -0.8685410164798784 -0.5645687456924277 -0.876002100743614
Ni 5.202507895598805 6.746876144300761 6.531776840311845 -1.436318498917591 1.6630368330178844 0.4167660522524307
Ni 5.669638582524098 5.417819789958796 4.719584126580926 -0.09491433008139782 -0.5441606143497209 -0.3899646157888703
Ni 2.6998244056293563 1.0297712634073062 7.249817312698535 0.1576793291237607 0.10473542993687769 -0.9913379319041571
Ni 0.3321028131315722 4.776759024008647 7.596317625443607 -0.24072544701266285 -0.37451305712049043 -0.39194230834053145
Ni 2.719644792380884 2.774844981835904 10.823628223951848 1.1011451199369875 -0.9748291356158567 0.049567012294850124
Ni 8.304494637682657 6.497916325691296 3.8719221734580276 -1.1534598701803038 0.06950643153125449 -0.35681975360578544
Ni 5.111011565633936 7.365129262250654 9.0385398661952 -0.4048441040038641 -0.9545333614812982 0.7972237569921303
Ni 0.015869138130511686 7.143732884856442 7.839964517451808 -0.4558216234929956 -1.2633477908523985 2.238147101671584
P 0.7847159601907333 5.906401944930936 5.665459165789299 -0.3460023512753073 -0.5809127342680898 -0.3571779082761526
P 6.064030374380677 2.24478937774799 2.1563994329466762 1.8248900910136763 -0.6769465226659116 0.4538115350415023
P 0.004031886347976177 5.154684225484969 11.70146609737593 -1.5469235002613682 0.09088849675145637 0.4482697792876667
P 7.207583303203484 8.167309704692768 11.437500330849543 -1.3052513730647197 -0.5684973913228726 0.7714258220924198
P 4.048884414284121 5.426305078045672 3.253034033408329 -0.413173706915482 0.16378878445560824 -1.1258768183557124
P 7.435000019985468 5.510947201218982 8.582815752283453 1.2641818567179195 0.5417365782892606 -0.22571894630150158
P 0.3991356726800952 1.5358188169686342 13.168419379183325 0.2702705076596313 -0.818969376199338 1.1488707081477247
P 4.329063861956211 1.010491515961529 10.202325533782396 -1.5813613702242635 0.06308253028278167 0.11985325941492261
