# total energy = -340869.8948807448 ev
CRYSTAL
PRIMVEC
9.27221461220170 0.00000000000000 0.00000000000000

0.00000000000000 9.27221461220170 0.00000000000000

0.00000000000000 0.00000000000000 13.57082333477368

PRIMCOORD
 96 1
Ni 2.18038904907614 1.9574293799497207 5.290287000381983 1.1413520311731762 -0.26111095264755035 0.0023291623538088915
Ni 1.0918032537484765 0.6959325475360469 1.3925976000151608 -0.525185873019431 0.07531583912417997 -1.5371882752514752
Ni 5.048655872978932 7.125743180653698 12.739705570948011 0.43896032896128273 -0.743579746414429 0.9895145055421734
Ni 2.059803899904175 4.8744587797460435 4.536549613402039 -2.0886127702524613 -2.5743658911975666 -0.0650576517312815
Ni 6.866111903301587 3.2294195774781898 4.400896188496175 1.0282854556627838 -1.5040434130683904 -0.9801968276856732
Ni 4.894449674141642 8.110387451781612 9.45738430103724 -0.7961932588450868 1.0657582557972611 -1.6160252401550361
Ni 1.0062948919135002 7.433052184806444 10.118025873082061 -0.10524605102470908 0.036832595447317214 -0.5709641076958102
Ni 3.287213290264723 6.261174086901943 5.666674002330279 1.100470462467466 1.170915603762906 1.5848485574419158
Ni 2.85783558262494 2.447503003504897 11.134792804017076 -0.32851756422698264 -0.3825567533605734 0.980066472755396
Ni 7.997832040339976 5.346507218373092 4.375965985452832 0.79286445158217 0.04533600493263805 0.9620204138869626
Ni 8.073521127052068 2.1599438161715505 8.867854123421068 -0.7435769182009517 0.8198376377369042 -1.6712491936253475
Ni 5.006680558076856 -0.053770498928346414 0.6224641561893289 -0.18136278878362957 0.8618762028651931 -0.230360558838571
Ni 6.912945858585523 8.760258419499008 12.508051346313824 0.2956861195192585 -0.2786088523219976 -0.15070521179877272
Ni 5.884685090594486 7.493646106362675 5.305553701505523 -0.7592614188157439 -1.4393264325059794 0.14422166095695807
Ni 0.48880982072302387 4.526565292861603 8.413937500188544 0.503275703209901 -1.0898183820702585 -0.36471895384820413
Ni 0.6197019634989537 2.331368517278148 10.219426810517247 0.46468575875184487 0.42689491315631645 0.34764528619536905
Ni 5.703960358375278 2.9061623644384182 7.716967391853393 0.36859154942973293 0.8113866787560737 -0.9138644230070261
Ni 3.4484107388117913 0.8553330409189838 7.950575272076243 0.012873256418242347 0.8119587492094597 1.2478743778071477
Ni 3.3578490200910998 7.004981859406818 10.919803530448382 -0.28983917382017826 0.9826866839870625 0.9517755962305028
Ni 1.0277786128386401 6.145039600675194 6.629346834051973 0.3953397640578546 -1.206765780692296 -0.0032933260392911026
Ni 6.21301420494891 6.692424781864504 10.61950802932014 1.2117223533666226 0.04725173389811217 1.3348396282447978
Ni 0.4154944209150476 8.166530710392628 12.843440324765098 -0.09890956728371997 -0.06010262171885133 0.21223762398561513
Ni 7.86470158499118 3.7232113590355156 6.522232358060864 0.592286009102038 0.3772980760647954 0.2637684448750554
Ni 6.385282677572205 0.7446867784365554 5.954890589669491 0.16903717733874113 1.705026804296425 -0.5879223328167037
P 2.5455010382298875 2.630425250553304 3.2181167480402335 -1.0431022089606423 -0.8564208361775767 -0.9487632917667401
P 8.361395569677367 6.99159278171329 6.270521406308345 -1.1345864303145685 -1.0119332395570055 -1.2199851075960473
P 1.1198795191612185 3.62551003517354 6.269394832250336 -0.7402013168604994 1.1572563611082585 0.43364791560943383
P 7.600851450055583 8.241589286520814 10.224787077701892 0.01044819191651749 -0.03610934412804749 0.04805211831222047
P 3.104680476224022 0.8819674769817651 13.2482309012969 -0.1534516641956583 -0.537976597026196 0.3002092042005927
P 1.4382131863178444 5.992548761514706 11.477944480421968 -0.6424343478216549 -0.8530094965031825 2.596453724235541
P 8.327032742854506 3.9046315073399125 12.808292141376697 0.76811912631669 -0.18114707322839768 -0.1477021633063908
P 4.716311889759343 5.233775634856539 11.13328606916583 0.3537745390215585 2.501780563630672 1.351375678226608
Ni 8.118157567506804 9.129756166096687 2.2901581600697822 -0.18344512523395504 1.1469027857880765 -0.4250020670089778
Ni 8.830291455384886 7.1509636040099265 1.4387926997221696 2.9125544028554096 1.0350312590270496 -0.2806266540829747
Ni 4.785853498278354 7.194867539521595 1.8135774630101882 1.1050408554469677 0.2704985645100374 0.0057708410455061905
Ni 7.957785346047494 1.3952086556096879 11.181788095832777 -0.6746446140056123 -1.5616901170475814 0.4289158002410871
Ni 7.465940729528701 3.6434239535280373 10.802660227287383 -0.8712566156388285 -0.9356959170598207 0.1114354676648726
Ni 2.805327032085852 4.9235736997894035 10.083663973480645 -2.479829770391194 0.7217197131165441 -0.42823162968986894
Ni 6.207469420696327 4.9022661509391785 2.6709550272196307 0.021792156174426987 0.08939262893222023 -0.2843089880305684
Ni 4.580928286294531 3.6031176372304183 9.893876578839242 1.4753532442225494 -4.768366894479556 -0.8229787544690471
Ni 6.408815557895038 4.942906266957689 12.714707680739046 -0.9139076175401358 -0.00327558542747823 0.6077049147602696
Ni 0.24868728261411263 3.0034927997216263 3.4153821836510483 -0.6687238776458032 -0.245312552162713 1.9228120975731464
Ni 4.636431762107172 2.2448216674226216 4.0255272756965965 0.3504526737371771 -2.387032486652799 0.021924310876917076
Ni 2.8776224883022157 6.7214746297965124 7.996715665717884 -1.1234147299684651 -0.12249789612662129 2.0291801780174406
Ni 4.105365678383656 4.059245683613847 2.951463622670596 -0.7828510332102259 1.418361400218538 -0.37969768664522346
Ni 1.693124906505132 9.700127166955147 11.55527104020932 0.4378704383312136 -1.0834145354264437 -0.575514446070654
Ni 3.8867917667011684 5.258050292336909 0.7145307553183714 0.8938684395010733 -0.6931452439129611 -0.30801070252288243
Ni 7.172271152860151 7.037675687625222 2.9964783694756756 -1.2788402300610426 0.5940253603906479 0.5319604727391032
Ni 3.9882761540665794 2.3625138856801957 1.1290655020358564 -0.09245301302509884 0.1436354494361849 -0.32256443196734125
Ni 4.976341872333629 5.551664235718643 8.944814430736889 0.4577314389211988 0.47632154321856035 -1.60735085230949
Ni 4.193841148848776 8.956532655383064 6.1307687353856455 -0.555317916518121 -0.2578721339952785 -0.5089465283424331
Ni 0.6178929544560124 7.120152035328769 4.499745412509437 -0.4801522298185601 -1.77448669886046 -0.9193583562420619
Ni 8.732803392455702 6.865555570433434 8.330477370529815 -0.42329099785514196 1.1018367466873733 -0.29900515659016247
Ni 3.1246991872630283 0.47429602341438276 2.461584715619273 1.4718043505290266 0.4007784185749227 0.21063634093676628
Ni 1.080509696524989 -0.057471966944451655 3.804648291497066 0.07718323135022191 1.3730189675279967 -0.38773701200993227
Ni 7.857061280268559 8.436296518159576 4.77545007364391 1.2129035181589174 1.6274463375077843 -0.38622623179236065
P 7.960298116168648 1.2728710579030436 3.8748231922643233 -0.4835337446962833 0.8194216332454081 0.49758379503144634
P 2.0300400914580377 8.348479374921768 5.627874420883905 0.9286577792661167 0.0644603844669148 -0.5797313123654789
P 2.5033124623950207 3.6105632254491873 13.418368619035173 -0.18939697194201577 0.717414657983287 -0.6457359013910621
P 6.1001528104297895 3.3633010821989906 1.0769890366910333 -1.5860333217786362 2.3636243921415034 1.6042860973412372
P 4.776525650522338 6.918666814913021 7.309991354371201 1.6202670461505255 1.3896239230745293 -0.7173041005473518
P 2.304117478953165 3.078532831420874 9.154768891848805 0.13513101150959952 -0.7557156104460147 -1.37709648003148
P 4.678648154585447 6.005502045128181 4.0750742809342215 1.7851881444383644 -1.2008203617421382 -0.9421915520864934
P 0.4993254391525453 5.4907365144415206 2.8108161830516196 0.6556487896293999 -0.807058997914997 1.113606999849424
Ni 1.1435051216287442 1.5021914661553348 7.71494512187766 0.20602095365194195 1.8058428445742385 0.7330035135604795
Ni 1.1732040245735964 8.481211125048388 7.556342966160522 0.2789546656971906 -0.39104319356502976 0.33744212041012206
Ni 6.400739459092363 2.218432945043274 13.002015591060276 0.11462569246739612 -1.5658645601402452 -1.76466097101929
Ni 8.3798101876132 6.134803075901195 12.785195055133915 0.820665018734206 0.1981772892378071 -0.908511900445861
Ni 4.404107156366859 3.6542631722425334 12.39656687564338 0.6543964052795376 -1.2510615172858777 1.1654697501569862
Ni 5.580547183790206 9.153205596489297 3.5454185010314707 0.45522667022147406 -0.10047151245420116 0.09389308790573507
Ni 0.5262426777566372 2.2304126461374825 12.686778843536365 0.5805029004241808 0.5466764387930392 0.23824844622708
Ni 3.62202368253312 7.881864453973673 3.9290517385874484 -0.3935016824078513 2.364683686643953 0.8725581080590714
Ni 8.324139811940114 4.946290625238947 1.3822423908959567 -0.5673380809074486 -1.471941133217207 -0.3544445685053896
Ni 1.0989614033187 3.2736944015686276 1.4019745905078642 1.0436269711158608 0.724664654677481 -0.7344525873021802
Ni 2.916092906134933 6.1426751859855475 2.8059306532477972 -2.1584223348464313 -1.3867867107360503 -1.9163511724391513
Ni 2.8857542203917057 7.910867940833335 13.573944323949563 -0.055747944294581415 0.3494134338393853 -0.14954333028018763
Ni 5.901115454633911 1.2020684282162208 9.089221753323127 -0.13011324658003398 -2.1959339586386437 -0.5687997530546397
Ni 3.456496109828935 3.734022761106605 7.149584825718356 -2.029899572681969 0.21475524820114628 1.1436014893289854
Ni 8.26496453919767 5.584395152794926 10.061000826875024 0.6582296629826986 0.5781925071234493 1.3394982100627317
Ni 4.393230848794485 0.01825699028985775 11.658232491339673 0.07016411971991142 0.17547290566175586 -0.03907639717617141
Ni 1.6321044630833172 5.802366370536914 0.3512472468579504 -1.0499392864871337 -0.04886021603581263 -0.40161376999202447
Ni 8.121634647932755 2.496423207044404 1.0526123848515025 1.5094908093362067 0.512703424281704 0.636898248494774
Ni 6.5677320416826825 5.690914352617112 6.923915815524036 0.47509358434873017 0.9019278194704402 -0.12591026424227994
Ni 5.170214604670163 4.219237744279919 5.62708720987547 -0.11505506669533089 0.94287649396866 -1.0664779075721051
Ni -0.05305282952843021 0.08913750657822168 9.455267454473923 -0.4200310961569476 1.001452651740656 -0.15927675551786763
Ni 9.088077562057627 1.8340532942225258 5.808746581313171 -1.096011398254848 -0.5318830825339486 -1.4252000204069262
Ni 6.325004011307926 1.5293126934777492 2.108404212044494 -1.0361064943690994 -0.2508697345355163 0.8543744951715093
Ni 6.5695030346463 8.455703263043615 7.6948605781159225 0.29473841089400854 -0.9256745282680768 0.5524501080520228
P 8.374144864572518 0.42282039756716366 7.303980177730818 -0.12137278138324259 0.6369512132198966 0.5798027890333627
P 4.365914904968218 2.0610000155707016 6.079620418709189 0.583560199193266 -0.9534606972424097 1.170100049840146
P 5.617960569173435 1.7629446814582193 10.987128152487807 -0.5917699886975679 0.8591276935857785 1.7343985725903226
P 8.492430504556122 0.6721762068445059 13.640577238789588 -0.2887585391614898 -1.6626267420636593 -0.7992796110798945
P 6.7955132623330865 6.674668491155983 0.8776577516964803 -1.2273238073493058 0.07766171364853722 -1.128838729197514
P 7.1929574633409405 4.3810564311964235 8.535301515375922 0.7163445648475599 -0.3158170859411787 0.7891952302606989
P 1.9212306546619582 7.8563473197544305 1.9847332698971787 -0.512515219530298 1.2899435390630558 -0.05148196992937585
P 2.6838888391827203 8.719868653271165 9.608061495047552 0.5606192741263764 0.8341044320685634 -0.27809668857226943
