# total energy = -340887.4678767968 ev
CRYSTAL
PRIMVEC
9.14474945649352 0.00000000000000 0.00000000000000
0.00000000000000 9.14474945649352 0.00000000000000
0.00000000000000 0.00000000000000 13.38426519501950
PRIMCOORD
 96 1
Ni 6.337146755263479 2.3610737127295116 11.045525845968173 -0.6158344858459394 -0.5503888546476198 0.8231433050713695
Ni 4.661362275942534 0.16482313492632983 5.910022943248029 1.5855237291320694 0.3935014252975352 0.7637860461589749
Ni 3.0940802487072134 1.7592760416927762 4.991126513062947 -1.2596598004778499 -0.29779262433930004 0.5094568923199484
Ni 3.6211927510812174 4.5423890857500355 4.861834387604253 -0.39922727203771885 -0.8418722489394405 -0.37161208142361163
Ni 3.522392878149646 2.652654048570235 2.879570946657678 0.24561877054922215 0.3588388409183433 -1.0904673285081672
Ni 5.102239791113213 4.465216545240081 2.442896358328849 0.7894001471826534 -0.6425251077632482 -0.4282655682515979
Ni 5.295495780993156 4.7305605949422755 11.46042404245954 0.10142950549209627 0.11550578107950431 -0.5501728819820718
Ni 5.7407536311447895 8.04121594459714 12.447567737702776 -0.16957916588514022 0.20205348436376172 -0.15517867418909403
Ni 1.9896048457956552 6.472580494444948 0.11988492171149848 -0.18182738712487395 0.252960555626274 0.258727025796406
Ni 2.8890366768012794 1.6827070546457519 0.38639675591696454 -0.33138125892802284 0.33801187687066303 -1.0907756037772052
Ni 8.095215690030399 -0.23681243145464537 7.1651324878574245 0.7914835120742434 -0.7118590182723804 -2.1246100142826765
Ni 8.563646335258726 2.7323413951757254 1.4623652314044584 0.6072094631810897 -0.941479099400501 -0.09085738640320482
Ni 7.121309019599123 0.6822458607954939 5.064431739035436 -0.2258001931613982 -0.5961933145762442 -1.6241512116962804
Ni 0.6526946029855739 7.643190725294411 2.455772165537999 0.3726991438402033 -1.8039088607763192 0.29320166253450797
Ni 7.71294687400989 4.029880748229022 4.07409012491362 0.13403109357720142 -2.891763177141671 -2.352605929543813
Ni 7.666235493878968 4.112393822410953 12.468594260086297 0.693137016382845 -1.367169193615439 0.813197249602251
Ni 8.362178360383174 7.457277969213435 9.198376077972727 -0.44258892685280543 -1.6330801387547942 -0.2857320936303402
Ni 7.016309006548373 0.8272907316366327 13.483576401569659 -0.687176685034352 0.5667521264969917 -0.9160658015337191
Ni 1.7770260003525487 6.840931001820338 9.10647957639214 1.597487586362165 0.7173290402480162 1.1360617293085145
Ni 9.349683273229225 5.057183610630627 1.1985392101090258 -1.519128846646603 0.016474600616255497 0.10600349801602388
Ni 6.637890130041396 1.9259391002060953 6.975825200784946 0.3254481812730395 0.031078980792991633 0.7377623684017036
Ni 3.8284310628523475 4.53888664671516 0.42717502261230567 -0.7608274777512832 -0.07211712968122418 -0.5681888589435182
Ni 6.099364980368373 5.45702863507158 4.409085158712751 -1.1602115870818406 2.040077284545919 0.9612387985259316
Ni 5.587368748815906 3.442303162568869 8.920800011421841 -0.33164942498774497 -1.4046031700921808 -0.44126995093106586
P 0.13041692963960766 5.632836443023215 12.47185985011072 1.4586850395382491 0.46020021217666546 -0.6108038654005674
P 4.135676354480906 6.2974493979517465 12.551857203722172 -0.5617402751046972 0.108393081294123 -0.17600152447171624
P 2.3830759798781016 8.321584817626487 1.394841316026873 0.6097466277806467 -0.1834952617456001 -0.7917830455925332
P 6.643066058223484 7.660840091710362 5.485567569118679 -0.5165161131595749 0.2421336402140991 0.013474380337350987
P 4.798057990546489 1.120277529940969 12.867592480729263 0.8828520337859117 -0.09036579147876696 -2.330268699499193
P 4.135036222020225 6.631589397678396 8.167159262811522 -0.8587692818050953 -0.763132471735376 -0.9846458645959623
P 4.779832504915924 1.0149574506598773 3.816764191518943 1.9182548172197673 0.49120694497082495 -1.0732504504092484
P 0.16075829380099813 5.342655253846554 3.7259248229734254 1.6634996315869155 1.9753757306024753 -0.2667681509333277
Ni 0.821759072701395 0.12836301891576177 4.377430608532018 0.12212174373412515 0.5319527594296193 0.7490723940978841
Ni 1.979774240149465 6.553996198694279 4.382944892443323 -0.4425349336864185 0.012113752544398492 0.24859456534809446
Ni 6.145399649040858 5.7335018448402035 8.781965339924263 0.18487363015036548 1.1619941329035601 1.2336631193037721
Ni 8.614957524357118 2.6403360710768227 10.362245714011205 0.09767518065598663 -0.3556398743650714 -0.7494457182769028
Ni 2.2952040825253177 5.772211569212598 6.768703941806627 1.0567344550320963 -1.6449174977093544 0.25265150902628747
Ni 0.5739317905482973 0.1255994756355025 9.340330023503713 1.2526985386686682 0.710502504244486 -0.504675411770905
Ni 1.4891767222826586 1.6168557139404343 11.097617082193658 0.6365233816538586 0.6750477629813019 1.3785812921071225
Ni 4.182012799884856 6.994279305151468 1.333625448811838 -0.11249656193953528 0.7584695190420679 0.7232924569203028
Ni 5.818749199104191 8.092124764720248 7.89307557607113 -0.02316203993876011 -0.4669488437544087 -0.5133212603713612
Ni 5.554465940336843 2.852914916519929 4.797456266033448 0.06085081273878552 -0.17829212027810584 -1.3683806974250368
Ni 1.035542281645528 7.65591107176311 7.036255534023229 -0.736717472076957 1.3669899877250973 -0.5191049569326738
Ni 5.055116897257567 5.246388476509397 6.593932233966353 0.3129693320797384 -0.6727936768398026 1.8974067701261645
Ni 0.6176592389374956 7.509064685282622 11.332497228091986 0.3742451481710845 0.34658676302386765 -0.07308103625639026
Ni 4.986915355946603 0.2697701084303382 10.424482135263556 -0.7051504959039534 0.48704587161459995 0.1259542301063379
Ni 8.80735390778986 7.324541931116271 5.040821824935591 -0.6636158669952765 -0.6168603560072925 -0.7580586567568944
Ni 7.5761139881643595 6.250774596818579 6.9115677899067265 0.1420796749132908 -0.2828511725381193 0.19646622008397133
Ni 2.2097189647759343 5.1793848973748515 2.2787517638108423 0.8599090518364932 -0.35044264643484807 1.0618013280320422
Ni 2.4029658099064397 5.758704774292204 11.174777734529341 -0.7037574722111686 -1.2801394084884405 1.0106582294993238
Ni 1.3782783458441936 3.32561615973595 4.094287218523086 -0.6053860368191057 0.09345600036831647 -0.42171079785221566
Ni 1.446232978920324 0.8864362275788327 2.103752351709554 -0.5464442681775751 1.516377509153711 1.2577530703734403
Ni 1.2034124470847047 3.558322598692791 8.247906485876914 1.305559905444074 -0.31555560474967587 -0.3376084707846573
Ni 4.3521417184352975 2.8325495595207983 6.753365453573738 -0.6272149597687391 -0.10412813537018197 1.6948465213293133
Ni 4.249089537014909 6.95602681825099 5.292512763726377 0.339755341924331 0.841543661955428 -0.12093826494898526
Ni 0.5608017593047624 0.016362700169979802 13.260822193426538 1.4890862775379259 1.0969207974429946 -0.7282652275445458
P 0.3881031661621544 5.7153403724557075 8.032405892988265 -1.213230305370717 -0.4627083233104999 -1.2297383303280691
P 9.021542229134111 1.6373033736845102 7.904907967369367 -1.2632094655023212 0.4675677082853302 1.3548291839928472
P 2.2361472906526694 3.6873458685179994 10.37927049404052 -1.064335921528438 -0.7745301720493564 0.36722732209235465
P 4.045024453298875 6.014318810592029 3.3306338837527543 -0.5812534054369604 1.4392734677808567 0.48336945120427716
P 7.125808236322776 4.3030527034504145 10.199412476562655 -0.2784119058198431 -0.36801613654223714 0.12072100673185661
P 6.470916150047174 7.81936432322358 10.18857137610353 0.22813963992785222 0.0960877815642087 0.3012589856213457
P 2.699081941468568 8.500346379646698 5.879827895077651 -1.5393582863196007 -0.3930761648346585 -0.3769859441410153
P 7.064392099095041 4.332471362393479 1.4296937850861846 -0.014343156095549491 -0.4930234293542735 0.23423418286136435
Ni 5.619603990585971 3.043354323572871 0.06307499477584456 0.1717977708030138 0.4728263855811083 -0.20879800217644687
Ni 1.759239462695023 1.0382491274792696 7.015376242105665 0.48590995823794386 0.6227463824744243 0.250559145273633
Ni 7.254529729416519 0.5366248707397412 9.046853066629485 -1.444032836842713 1.778951162389717 1.2300162665798042
Ni 3.2807520189915693 1.9744519959763647 9.21123908253266 -0.14132017103944694 0.0673598175018969 0.203911620618423
Ni 6.1742879125165 2.228794912104263 2.187189960059698 0.8830543796047049 -0.0959394289118025 1.6166903845428608
Ni 4.30264118972569 6.901917335824471 10.406775156926145 0.6292744134009293 1.2812645232318192 -0.24442346468954038
Ni 8.280177392169788 7.367988635697713 0.013070590372185846 -0.4687481017466765 -0.07659881960166162 0.5781791373870107
Ni 8.002222732992157 3.7916325911125615 8.125346724954706 -0.6796950319453262 0.2967937507611405 -0.23780056005638403
Ni 3.201997436828787 8.575964312752138 12.630476443593265 -0.059374485303575156 -0.20412399373954523 -0.37033347182150417
Ni 0.12152548976073246 4.974743694444204 10.107850672811509 0.6509619256766918 0.2805973435069361 0.6226885326532954
Ni 9.05815780588513 2.039251690496276 5.815316260165047 -0.3277755438546355 0.30960890024793775 -1.0362499619254992
Ni 3.85335050507176 2.9032567621778615 11.694059587959314 -0.4102722169979709 -0.624867542582485 -0.0613074406602299
Ni 1.6009347051683251 3.743394037825442 12.889007654963914 -0.7138066289170545 0.1060045264572884 -1.0261244434557233
Ni 3.3358399896079876 8.703423830423393 8.210644375340605 -0.16431868881714926 -0.39368783027672843 0.5017826636041423
Ni 5.8544228666630636 8.147605959562513 3.3274222477500173 -0.5639717355383772 0.07000856797865362 0.42481309092662317
Ni 3.1629950804743667 8.746669350517193 3.719246412458623 -0.08547529615568505 -0.7031838590958858 -1.002960346634434
Ni 3.622162094521679 4.789544228819416 9.204586277316286 0.31877899678298005 -0.30717740798830967 -0.6307006043244944
Ni 7.4399669585267025 6.208260656679847 11.382902172521042 -0.739854732154358 0.6129993303899894 -0.9858874503125472
Ni 8.338420301342428 0.0779909955846827 1.7715409796394466 -1.2524990210633526 0.4642872377618456 1.812288600199582
Ni 4.605405554129474 0.5272085222431067 1.5137468350735275 0.05357459079234644 -1.5992192243412908 1.303138183376459
Ni 6.037089236693437 5.897805557998438 0.2692964104094334 1.0256755288437627 -0.5237116024667497 -0.13983355919159143
Ni 8.113468609909278 0.31975530886017645 11.231955280392414 -0.012604576137887968 -0.5596826212447199 0.8321815040142377
Ni -0.13832896685363913 4.465756085456943 5.873577458836562 1.9581832779835886 1.1690129874235544 1.2220530458686696
Ni 7.499316382381377 6.307782964817045 2.5953027524678327 0.5119994562361441 -0.5296349099297201 -0.38509520351171095
P 8.519916143444695 1.6325572487260236 3.4948461494166043 0.07287072001779708 -0.12704257807451022 0.03584760582622859
P 1.7901304262976563 3.0855024737340724 1.5839208988383373 -0.47542474243590377 0.6498090430191711 0.5852337302409469
P 5.008835320350247 1.0177283097396872 8.228419024823861 0.5725859595699493 1.4112008779143568 -0.23830141095220245
P 8.857951806432066 2.052950525154874 12.485552283444711 -0.2893961727454887 -0.668861431664932 0.31596852391737845
P 6.5062148828790765 7.848225152450906 1.242658053774184 0.03315257549256871 0.8131201165074126 0.18704029878438108
P 2.294289607581486 3.4050748876054824 6.2651208797374105 -0.8902874070180344 0.11931589885421386 -0.25253246694991993
P 6.871465320194877 4.007311506615257 6.145291740997486 -0.3159847218672945 0.22776734419009806 0.6536592700031968
P 2.4159787883571644 8.902614762688804 10.512108953331394 0.5698348791873734 -0.7000975068610782 -0.6393492811384279
