# total energy = -340872.1872334371 ev
CRYSTAL
PRIMVEC
9.22994466014604 0.00000000000000 0.00000000000000

0.00000000000000 9.22994466014604 0.00000000000000

0.00000000000000 0.00000000000000 13.50895698722829

PRIMCOORD
 96 1
Ni 2.4101416596838003 1.6357585165330462 10.588658266997951 -0.7589161196611833 0.029208246132840017 0.37865433298237366
Ni 0.23848331508991977 5.749554167082328 12.619595026386943 -0.4065744564314095 -1.166501019634978 1.9179781665196125
Ni 1.243347411143777 1.4582297572467424 12.791644890409009 0.29068995185624774 0.9368107473905544 0.9347163267553709
Ni 6.193237616125304 2.760805724506783 3.961637240678089 -2.1636149347909637 1.0172096574645966 -1.202890871117922
Ni 3.3314378350462674 0.09696426264980429 9.26009262102322 0.8874712777254781 -0.24000528101718663 -0.7560058879929238
Ni -0.06318451047989608 5.3214139451703755 1.4973462635301655 0.7050821045598631 -0.25582476454794656 -0.3885070574067374
Ni 6.260782352553358 8.871693772661182 4.084028155406604 1.6595928403333418 -2.315620353458399 -0.8621343416225863
Ni 2.8877451560584384 3.6390257472442538 5.411269304295052 -0.6658606971653953 1.1261249298107765 -0.023339703167204965
Ni 7.928448788440296 6.9156561697584396 5.118111487878921 0.8575276960885102 1.7656963542623396 2.0584020509970355
Ni 6.37120018281966 8.024809412696769 12.413962008020322 -0.8603952474442924 -0.21909655588897747 -0.5117492878985509
Ni 6.834451114949201 5.949253253903502 10.59466973008016 0.6920119016394662 -0.3748467863108254 0.9977808593160237
Ni 2.25389715322656 6.698263278655688 11.992131376409299 0.3761891592713328 -0.22984633820631387 1.1789184194627245
Ni 6.017287177408719 7.560118609170292 1.9396562967791422 0.7797353703993798 -0.08508500269580184 0.7543102454580557
Ni 0.8400505087958791 7.245848216899348 6.7132767069521995 -0.8381202380961759 -0.22828799258025845 1.5266619217988546
Ni 6.429478054616151 2.0235546494962393 0.21382367142842357 -0.16119556980713529 0.6682124852270235 0.020483207555016335
Ni 6.663263327776325 5.375307593162095 2.7552594506451245 2.173715513560076 -0.4282244306010174 -1.1841290171293863
Ni 4.014878331568761 6.291914956539668 10.461417939244118 1.212200321444306 -0.9649782109637057 -0.6502389314677381
Ni 4.094523525697986 5.8456655828277935 6.365568993465361 -0.8117494614121311 -1.720246706569973 -0.4011674264832252
Ni 8.28032197603891 3.2636438901072062 5.161516226540654 -1.3441727327202657 -2.45318594255142 -1.038045363263025
Ni -0.14383299961455015 4.945838259191432 3.8324373956321423 0.5304257812621317 0.6959469750278143 -0.48546027229503486
Ni 3.5564638905417487 4.325465975843698 8.313439018168435 0.2646888998067958 1.017424858799196 0.18382487717087695
Ni 1.5863229319049168 8.636662456945968 0.35768897584995624 -0.5970142678156428 -0.9839244130489055 0.8419848632579048
Ni 7.405978530139344 0.8736244331955842 2.1103558198693384 -1.0534858661878115 -0.8284654886152314 -0.5293955402254044
Ni 9.000396123679598 0.13403449015950492 5.836045211308394 -1.3188939035488187 0.6811657029535818 1.2227253893453458
P 3.223945897298098 3.557691473207085 10.737838173665356 0.8727090318146389 1.0010158213135534 0.2786451048765717
P 5.802312531857232 3.621073504506817 1.4920510441684856 -0.6640336712589855 -0.7959366627495905 0.9098535020754203
P 7.940493866472354 8.181875384245851 7.711737067267634 -0.2039314181127649 0.6196628584530941 0.014202516752627155
P 7.022160503407428 2.9598956349677157 7.146941050858165 2.198921580512058 0.23033870446170007 0.6741368211312583
P 7.622042309183384 1.3850547544588765 4.183845394010208 2.331670722053042 -1.8163224039493235 1.0356966605251907
P 1.5442713031585094 8.433585210308905 5.015200371760874 0.20450451700741554 -0.3702046595531237 -1.2862856305954944
P 2.2689881130598297 6.03547016876746 0.8367471115332936 0.07039063390842071 -0.09477729028290129 0.06484399305857866
P 8.567622469451866 7.7369458926478325 12.495164293846104 -0.15965959277858308 0.2619177648195618 -0.14587925116503908
Ni 3.8838315745578984 8.197787809170961 0.7194585103190492 0.10271094330768117 -0.35287773823890195 -0.04669457584306152
Ni 8.961150398168245 8.946539395467289 3.4911601847237983 0.8423623012019816 -0.4941331174786845 0.08429773090781612
Ni 3.3995271382205976 4.52129771577182 12.844086668075485 0.8763700256059939 1.077238745633035 -0.3985711265109588
Ni 2.049721543152092 0.05794836276526988 7.1054007610565675 -0.1806703907022953 1.3021081994500479 -0.7881403066336233
Ni 4.968460854024059 5.522848261623754 1.4660327526247523 -2.9432209787013313 -0.39169753931957707 -2.409781093203224
Ni 5.9057156040358985 7.32543803135946 6.564070033444726 0.45171377197220913 3.170353517520908 -0.9176845680840647
Ni 7.87598578190066 3.2400613810099568 2.034881637818801 0.08949881549278134 0.35708046346633987 0.41900753998843965
Ni 5.614141646156397 7.434886717416285 8.799599596415502 -0.2618815122649877 -0.1642047889471043 1.133301392954558
Ni 4.557552939151076 2.440591247751052 9.34625323322358 0.7623421146235967 -0.456600153530233 1.4706887488673444
Ni 0.6492786246357066 2.6397826876053574 6.429155929540811 2.1508370663000056 -0.4658059883992171 1.7141218246191576
Ni 0.04195656031443023 2.033338391039521 10.40886817122287 -0.8268336094387632 -0.5858852477820168 0.44962886441872246
Ni 8.507581678188613 7.754713536488227 1.1550094549527947 0.6084682752888553 1.2061255760051357 0.7386943932976698
Ni 3.6085300094527417 2.139935024137032 7.29274279770968 -1.4116608482699107 -1.9425867090969127 -0.5149459404589778
Ni 8.159031270736774 1.647582075888654 8.204503517045389 1.1117246952250468 -1.4738974856126292 0.2130963724414846
Ni 5.3138084706122015 3.3426060683173726 6.275883465325965 -1.9803073635761377 1.5400784523150766 -1.2054190368564144
Ni 3.7382753442394514 8.730069498849751 11.88697738369218 -0.2917291917540395 0.36116928882373284 -0.4901322238494075
Ni 8.280460425211693 0.6114183138466617 13.276602806841842 -0.22137352484861225 -0.4321852150209783 -0.798786987714192
Ni 6.0934619122735345 0.8624442009961718 5.886298569050425 -0.49330856469486 1.6162183300024489 0.12899353115329398
Ni 2.247353122326384 9.337750608025777 2.784750047442237 0.5942832420377249 -1.2065788614924704 0.6887095767391107
Ni 1.6618977203543426 5.532410484490585 9.34184962653462 0.4290590106871707 -0.23757404586787473 -0.46560569946295294
Ni 0.5486999155817994 8.874287387164637 9.043057851780734 -0.028356953876138256 -0.2541571470375365 -0.17076444444249297
Ni 0.18008914598829093 3.7828559778753483 8.670588965239025 -0.05272895496259951 -0.31731732463578904 -1.008157060344025
Ni 7.622097688852498 4.039863792283539 12.457501503876895 1.0171350954729192 -0.004741885560359576 -0.47905102633458135
Ni 8.804213645847094 5.0709870814417695 6.446487919984183 1.2986096993784861 -0.24642404005933688 -0.35712520066134623
P 1.4094771885376725 1.774023090418293 8.484895396736507 -0.27015635067927024 -0.0866862857446507 0.1763951603657091
P 2.75856284790771 1.1534015985595496 1.0779827961781252 0.6524595932681408 0.5392150974189874 -0.9307203182221003
P 5.237458366795195 -0.02397016678104039 10.406193333204717 0.050651246497964375 0.17335174555369498 -0.4052431392144956
P 5.214641943120673 6.576188028041118 4.692984842961196 0.7802627036577594 0.7484350176242013 -0.6870650991571522
P 1.6679433342325027 5.075583593978142 6.866899909071428 1.344627303759181 -0.1727051131086316 0.8439098481947594
P 7.0809921718950495 1.3622475607292073 10.915102033534401 0.23442315894371885 1.8692141097420325 0.3169296022790671
P 1.0627081604422979 3.0620803544258974 3.6449190670323537 0.37631231511275837 0.5343631686433249 0.19410954692633667
P 4.208384125394142 8.998134787190821 6.8999975683167625 0.8620271266207605 -0.024005618885978013 0.6880611445218343
Ni 2.1063195649854918 1.3887836521791461 4.7923433533056485 -0.13817442632161364 -0.21656221950289803 0.4015800885406116
Ni 5.987649824488456 0.5841770546100185 8.10295658677649 -0.5622596379432768 -0.6988708335428286 1.5261273894516232
Ni 1.7143330370594219 6.193976011713477 4.820684821968669 1.2693479742998912 -0.2097721931642581 0.2726325801339047
Ni 6.963144236022765 3.4752034560633973 9.545347758656938 0.44096630364771794 -0.05062784945919668 0.12116683602002357
Ni 3.637927383806848 2.10331060296369 12.770355099613033 0.03644050221522111 -0.41992953758207674 0.14905379223827878
Ni 7.3166049741359505 8.544778355942787 10.146172864796783 1.203034595784638 0.017996436577420616 -0.5979051550610284
Ni 6.639736198348189 5.318589582045616 7.105050023152185 -1.0381752039726702 -1.4172401421299012 1.3388199530487845
Ni 1.3894666680982055 7.134784290493395 2.626195285788504 -1.0032071725379175 -0.44893389523422683 -0.61263269107919
Ni 4.672742650905941 4.715791113696381 4.042042059268647 -0.7967146785661956 -0.25957548983963036 -0.08259000418809001
Ni 3.8718511061398044 2.8118565494840393 2.9739565329554845 0.1020645679729339 -1.1482011928845257 -0.9221942830289602
Ni 3.1809620441216233 7.319558556488639 7.908535182421777 0.032554279786937486 -1.0150620149939744 0.4399062378143198
Ni 0.41983880951192604 1.5471602758972332 2.1234734174932175 1.001494817832501 0.7254339287433377 -0.8853380334325591
Ni 7.149450672863465 6.077835615638841 0.1728510232352328 -0.9573021824756869 -0.7442088953579957 -0.5143371032303852
Ni 4.015819785943681 8.335960083607686 4.480934243938871 -1.1890110278120363 2.4766480302291023 2.672363745300294
Ni 9.246281854540944 6.795233079272403 10.650732415112135 0.041964260246927725 1.2434777914013488 -1.5839227031935368
Ni 1.2503713991762653 3.6134864898383476 11.916967320505796 0.2964641353358636 0.47650846241838585 -0.1683877166802003
Ni 2.4823659781518943 4.741487280164773 2.9718622584685312 -1.0846795181817965 0.7560274852594786 -0.16554870456950843
Ni 6.91197342176243 4.971525195714974 4.836760616917663 -1.382361327974845 -0.3719033874117853 1.6175254788496465
Ni 2.0808818369729596 3.2697448836544796 1.1565231659085478 -0.6903306572823015 -0.16832318199085206 -0.6358358686685308
Ni 1.0637049944863304 8.740757774988545 11.60857086513876 0.07077347116913618 0.5606069328312022 -1.2664433990585866
Ni 4.86967275427147 0.39931510413867943 2.4157257763193525 -1.6530982337479336 1.4877834995661021 0.6617376761359571
Ni 5.673250212989582 2.9996028577216762 11.753643446346954 -1.0321943037988868 0.013830735235505215 -1.3755659023195663
Ni 3.731417495214302 6.9314209155659166 2.9142738635524954 -0.23993406145961907 -1.1173127308357853 -1.4632585178415447
Ni 8.418872678214573 6.153659612599275 8.466928386087307 -0.24224933985635697 0.852674481761267 0.7503713154149657
P 9.159400383647633 3.110519105009994 0.26160617293353255 0.4411660783633499 -0.10637913618788775 -0.054089325645235886
P 9.031325668879163 4.6278574290899215 10.607030472226162 -0.8062866385253469 0.020858845726880206 -0.20433610975035132
P 8.016474772495275 7.041497237872688 3.1225817199372723 0.6329973707784712 -0.6348035707492745 -1.977490205842317
P 4.235427863810949 1.8890005134415582 4.985359037059379 0.35915868615160723 0.10606006228557217 -0.5675275712104354
P 5.883397597383393 -0.01697848355553477 0.6339264573631213 0.2575129508836468 0.5176566545219214 -1.179226951842079
P 2.3024651230385875 7.512759762133897 9.920627163406127 -1.407008179989248 1.0994001122214225 0.8555919125183781
P 5.634862872349479 5.214549643672153 9.039519090924417 -1.5934023605491978 -0.5414362734400223 -0.7427233119514047
P 5.356136997704174 5.851148170069972 12.199655610476128 -0.14311145861191482 -0.4500644092942443 1.4778292165668678
