# total energy = -340898.47930274 ev
CRYSTAL
PRIMVEC
9.01839117283344 0.00000000000000 0.00000000000000
0.00000000000000 9.01839117283344 0.00000000000000
0.00000000000000 0.00000000000000 13.19932707439592
PRIMCOORD
 96 1
Ni 6.348135550367355 1.9286189711586146 11.324599995596584 0.8643010102566019 0.724224738926585 0.7974165897292267
Ni 4.710684348354172 0.3186891927067615 6.042982060587881 -0.23541457632271068 -0.36505319725917135 -0.07169161210803138
Ni 2.9798206532229687 1.6216780362993954 4.802799095019238 -1.0203564306236943 -0.7437252708533579 0.022434160633800073
Ni 3.6183858588811657 4.276647230302035 4.920247403609178 -0.9702600281879354 0.2060716043842193 -0.7399740313410418
Ni 4.986448705813411 4.594960356107558 2.6114599670236966 0.5940011920209318 -0.3600295187923348 -0.033439253495052085
Ni 7.191490376968204 6.086728471247939 2.6450264180166747 -0.1925612286026103 -0.45775149352585676 -0.5367350113096111
Ni 5.093361730134141 4.637409922153756 11.3763673631382 -0.31876819814970264 -0.05895076750259525 -0.5373168519550102
Ni 5.708668505617461 7.832364290701146 12.562749314013448 -0.8808342320249346 -0.3416052506488762 -0.6625275190271042
Ni 1.893059455772985 6.534861334303307 0.25532687996319203 0.33004762771826385 0.2509283556875937 0.8008708668264143
Ni 2.7052286865829367 1.593739061238609 0.33407637128930295 0.6101685458094137 -0.7562432008147105 0.0904462670077152
Ni 0.5892679753887404 0.1699173069448955 4.607422870515724 0.03366525346292912 -0.5503160924281554 0.36617445534780807
Ni 8.547676003062794 2.269387890347404 1.4433591963762467 0.6491174162687853 0.9661169525538394 -0.7838295950734113
Ni 6.887074591565737 0.4566994325874021 4.657329744011169 -0.06369522416611612 0.9898456636293469 0.09151764569502303
Ni 0.7740142225184168 7.246917407543928 2.4482379134955625 -0.008489525528249895 -0.05616369167576134 0.1799085728356063
Ni 7.408617156685277 3.807447406064614 3.8511541358046384 0.926156867221134 0.0012873513528558474 0.011654553519792832
Ni 7.5550848435678555 3.929502308734944 12.52634567723799 1.047620151435654 -0.7305920759055096 -0.04526735647823171
Ni 7.859184985288227 8.943258702244954 6.808951878408356 0.6658126175362791 -0.20457136568960896 0.5304635764786025
Ni 6.747334624307221 0.8340703931518234 0.456550629137272 0.7004057821301164 -0.8728841239399225 -0.09999380148683423
Ni 1.7982851856265025 6.525410060622318 9.038265646877093 -0.14820738507758344 -0.2945998284336152 0.7128154686483787
Ni 0.22059254734646563 4.925457328041914 1.2511971263955426 -0.4135840549800232 -0.5723167650689628 0.6480761194884646
Ni 6.372692628834276 1.9682998911933014 7.124706486710734 0.6115877947544435 -0.07832223005067157 -0.4288438093525711
Ni 3.347879223326523 4.146466757415511 0.1589590601416801 -0.17878422942317598 0.12035308186947662 0.909417442979266
Ni 5.834565242818421 5.4403713758374765 4.875949969264092 0.2791672959286289 0.9135057541160267 -0.259142773177586
Ni 5.433174699885731 2.873556953048261 9.22188098778578 -0.37141307803892815 0.16823782136589738 0.2984271725995054
P 0.17956518154787462 5.620107906812774 12.323577979538923 0.9246741120280204 -0.4688954259578183 0.5847287655800704
P 4.014708066118517 6.084753443637122 12.700180573197219 -0.7132623263778103 0.9478230393406579 -0.8965228464047851
P 2.3905048803623683 8.466276006646185 1.386048223937967 0.2112922293532103 0.08616049514816775 -0.4453862870922846
P 6.3269333133215495 7.611864632781125 5.91517252267343 -0.360293828197315 0.2676932338507583 -0.5798909778717948
P 4.803871381699267 0.9919328169579995 12.654221049406134 -0.70086909491978 0.43817177162171633 -0.2361051746318321
P 3.7794182470946582 6.094177662145359 8.219563493686886 0.9276126258310541 1.0669049678071947 -0.46133509711205706
P 4.802094758688623 0.938823512847938 3.6923132165839707 0.061797750033087115 0.19879152578303827 0.4228518534351944
P 0.05317062916829687 5.503797719156556 3.6456673932441044 1.0833754546583922 -0.24873520469101681 -0.30507064605795203
Ni 1.569659957490288 1.1821306813969867 2.53944450819529 -0.5173049276094575 0.12936248445693851 0.06419993171667654
Ni 1.8708110853808095 6.489625085463764 4.74064344298036 0.03537477995486811 -0.06722123504150358 0.016480257043210326
Ni 6.001477621909782 5.644087808261008 9.113012776314251 -0.3907986816543915 -0.02697061505157291 1.2957192652045686
Ni 8.517031510726914 2.4101288989977045 10.259018489215116 0.5876066013484977 -0.3728372120799643 0.14348118324650774
Ni 2.3800615836805123 5.147174468735726 6.757091621440296 -0.818963205551751 -0.42092686849833955 1.2491074788833003
Ni 0.6515922713377661 8.974245893435677 8.939957069330248 -0.32184555152344574 0.20772148128281645 0.24519762385140353
Ni 1.3384554695518185 1.0483879440982584 11.51300680759946 0.38751409736584874 0.26830129974840244 -0.8451077251576027
Ni 4.120430662838206 6.799253500816242 1.704231484914286 0.2990599210874979 0.4616351448509791 -0.9939969667935591
Ni 5.501651342118317 7.772545303748856 8.065290389465666 -0.3602393208102957 0.47113562814224663 -0.1998924721567009
Ni 5.234833228448716 2.6824933230812444 4.979749845040283 0.9851346313069227 -0.27861836540369433 -0.5406312610402239
Ni 0.7555328340122613 7.350159946761449 6.818614182436803 -0.22849188106094842 0.3047276608962365 0.09744326715083863
Ni 5.083712051852978 4.573577751243412 7.17104929211579 -0.15683600728685893 -0.06445832758438576 -0.3899689866642445
Ni 8.035738024269833 7.2335882257686395 9.06289487247135 0.19376656176462112 -0.28195308620388215 -0.2834057594900087
Ni 4.71724973694173 0.45666786821919264 10.490362762212795 -0.923731288498777 -1.250030504918202 -0.6894662523994772
Ni 8.193839435435308 7.11713374385775 4.7315366718324 -0.3523966848374253 0.6735385254256271 0.5779024866868564
Ni 7.163551401907418 5.904466790815889 6.945644531376027 0.6206270221385763 0.3813966716142012 0.3218553217154586
Ni 2.3849946435120972 5.2970691441667554 2.6443130632951424 -0.3466919211431642 -0.9160686297471965 -0.816632243425729
Ni 2.266312619044716 5.291062895816051 11.376275375550847 0.12121620120072026 0.0313952264818298 -0.30871904144381673
Ni 1.0995041838156685 3.4388116589423743 3.6168662600116552 -0.8128851176784709 0.12414263081889589 0.35121166339038873
Ni 3.6759231929314615 2.6207894924273063 2.623735800739882 0.02324945744624383 0.11129508543226638 -0.2992458118460588
Ni 1.19004882862209 3.3525056578669306 8.465757449168457 -0.5922230170745865 0.5715222941921254 -1.1574638491333742
Ni 3.7753870263547706 2.693495759999953 7.018227246993111 -1.2692047638538078 -0.5003022224038738 0.10510541168178672
Ni 4.125535072097214 6.884080485781301 6.0999900150913495 0.02022763990078452 -0.06277785455816931 -0.5617847551893873
Ni 0.6791371427154806 7.516269689061198 11.331331322577014 0.9223804308978373 -1.0306943222145926 0.03624638392654402
P 0.18760056785489868 5.536714846003513 7.934564303928664 -0.1021895235865724 -0.18347752113378724 0.6069243278405032
P 8.552076977830279 1.7018695683331306 8.091926207038949 -0.4080443561087166 -0.1342799763632139 -0.05414948945920998
P 1.9597684933858437 3.3153408688980797 10.504090556866615 -0.8849976193740049 -0.509935888838896 0.48861553009456493
P 3.9805103277613507 6.18973653230162 3.819885570817305 -0.38482858011388565 -0.4512111213041778 0.49974455012819097
P 6.938317088755985 4.039039684812513 10.426808357742695 -0.349382837711766 0.07128023560222563 -0.4099125196657069
P 6.174396249351846 7.67670686347417 10.275451801144024 0.14060514725029333 0.3559399221039934 -0.5444408645943011
P 2.3932915631557132 8.459403992767449 5.692816879902695 -0.0026718904052083015 0.642856522960738 0.8897970976451773
P 7.025497873750376 4.01401365001791 1.5661265519290175 -0.16490130079349663 0.07134888405663195 0.7015663780971207
Ni 5.408437253600471 2.9064019327678814 0.4876397281453574 -0.8129450243821289 0.008471527806120894 -0.7665602664700024
Ni 1.4027295416170944 1.2161570703267306 6.958764486482041 0.5678669568277253 0.2498199531147633 -0.5431954222229742
Ni 6.833811974810088 0.5749269301525679 9.142750920362973 0.27740249071872225 0.23521248761423363 0.050464841518771154
Ni 2.8089762556918085 1.7306021617946108 9.270745335291224 0.07872897857078699 -1.479852931865116 -0.3568475215199274
Ni 6.306046719957836 2.0863596466874115 2.527579011265827 0.17183967978454276 -0.5555256616535529 0.9512328363531554
Ni 3.9850736335653396 6.926935879418764 10.393123765828705 0.48255286884025284 -0.082186083881452 -0.23305996004760507
Ni 8.060069642963828 7.070129890398481 0.4073670305933695 -0.012374719515269009 0.21005064363662534 0.1396373840203853
Ni 7.648623594158712 3.8526926732950737 8.333170869585286 0.3257235464216132 -0.30338220261193555 -0.8681057287146726
Ni 3.164805887711945 8.38944833442448 12.306009252193567 0.14638087339180594 -0.14014132023999737 0.6802557895448026
Ni 0.04430645273600287 4.854960566243927 10.229042259646183 0.33877575161988105 0.10780532711145305 -0.2554812651655987
Ni 8.504063064588305 2.2871451020629263 5.757612214962972 0.08699738922716631 0.2042864874593385 -0.16447784010283287
Ni 3.799664534703265 2.6118161934649167 11.44681272010796 -0.06566314652576434 -0.10412762114954971 0.03589337146249947
Ni 1.0350136703683854 3.2744244293077673 12.631610139699097 -0.4102043398745129 0.48673579657334887 -0.7200292127879987
Ni 2.9893260372494597 8.439202797113428 7.923766584483772 0.41943177201005183 0.10430451304704617 0.13899152290627032
Ni 5.5222042550181 7.811198127219008 3.628798493033904 -0.1056294025060568 -0.4153498886311943 0.24250696439311784
Ni 2.984429050981543 8.380096263043578 3.5258301129002585 0.6281595830701956 -0.061090182443101236 0.2128953121742721
Ni 3.477716997358201 4.2527665311538865 9.204154438599376 0.04122969607374835 0.10888364777729635 0.3108337737939743
Ni 7.35468717900177 6.230229107518833 11.383521652652636 -0.8146895178770615 -0.5949648414857818 -0.25179558878389535
Ni 0.529699699703942 8.932481725099167 0.41415787895385103 -0.18808185267501804 0.44518856925918165 -0.2829491315685643
Ni 4.600533721694249 0.22419719819598025 1.590914501203413 -0.6166469544449058 0.3398517582928792 -0.27890401496491324
Ni 5.897342261991479 5.336686935465023 0.328291073516064 -0.22236648488950092 1.8710869012847129 0.4872510456468706
Ni 7.9028430157173 8.78869250031893 11.285859693734537 -1.0895209054344979 1.0552825530769179 0.2823024991235009
Ni 0.07886492672984825 4.795330965500892 5.8467211319354115 -0.0010981181601852055 -0.5510056622960122 -0.691417462588577
Ni 8.052728672757413 8.82472999042316 2.522919208679027 -0.802967858564759 -0.13948826003703071 -0.2869438545502542
P 8.458213565166409 1.7197620559124076 3.5148357925333755 -0.11037257361799702 -0.32315809968728215 0.9761601957224544
P 1.8093056593270451 3.2421927001705013 1.5088282052380213 0.33681888500382634 0.03928799896634524 0.277591981021709
P 4.703920555166441 1.0430039647208247 8.208396922053488 -0.18209272497111864 -0.5813176830159924 0.1852713798094164
P 8.430572197005883 1.6248074179475855 12.44466881622023 -0.12051377581705694 -0.10601661064214646 -0.1821004382806025
P 6.264823655076347 7.758485632309292 1.4465408846917553 0.8195108505251046 -0.15055068849877942 0.9819469776075606
P 1.7307013640946973 3.1589980439614136 5.734829955828511 0.5227363830376739 0.26299479993382446 1.3173970072883183
P 6.839511597869615 3.8146981923618615 6.049792749408379 0.3802263054551839 0.5754650808899573 -0.0754374523037088
P 2.279136770928653 8.430031093550864 10.238718091261006 1.0386403165345466 0.7722334055953797 -0.2532392632089574
