# total energy = -340860.0684756023 ev
CRYSTAL
PRIMVEC
9.38578167507665 0.00000000000000 0.00000000000000

0.00000000000000 9.38578167507665 0.00000000000000

0.00000000000000 0.00000000000000 13.73704021082486

PRIMCOORD
 96 1
Ni 8.40979182122493 3.8071640244854317 3.410357576435898 -0.5780246140870174 -0.767585108190091 0.8557713755190359
Ni 2.590475754461516 6.628201506875741 3.758674260390234 0.17220606198502597 -0.143177793073476 -0.45332816764718054
Ni 4.5824295944800735 4.227121441723208 0.32052350712784533 0.8437496684678114 -2.6911790782345846 -1.333860295050664
Ni 9.014414493785278 2.956849743865158 12.828843113321264 -2.8579487996953876 0.5501466567298268 1.523569141806144
Ni 5.964298236977788 8.038049164677982 12.509127721999432 0.6375315112033988 -1.8751428165216415 0.40415119170189756
Ni 7.959668501542084 4.604035663997357 7.123465743736422 0.45053312140054663 -2.7431349024765854 1.0461919036295595
Ni 3.7332134503209304 5.841560369437595 1.5046177729759695 -0.08055266204308707 2.5032363222405922 1.6444786103997224
Ni 1.0235288822455897 7.842712275540834 5.2293614938736175 -1.232644962451903 1.4288856967886294 -0.1885950448660107
Ni 6.960261078314487 0.7154603074589415 11.911250610760574 -0.06127761586355899 0.8447066330644419 0.10392501822044038
Ni 5.8059225562503105 1.5471241012252641 6.311565590535932 1.4359307765608689 2.084979801485564 -0.11216900339678745
Ni 4.652813571591331 6.000001750637105 12.538854369860049 1.1273503175774457 -1.5192430036269642 1.1871176674440653
Ni 4.07234990117585 0.3124827079291237 6.709967621477706 -1.9158891452010682 -1.2545582175852266 0.24124018186555227
Ni 9.114504470037371 5.383440363730107 5.244678151060956 0.43379883936500124 -0.04929678935259897 -0.9737891243871165
Ni 2.2141528364356664 4.418760332863045 7.534491651090337 -0.1853109747981002 1.1443016007198035 -2.020191087144953
Ni 2.6114529766036227 4.032798217011718 3.4467884881784423 -0.19866014241149657 0.5221673979080814 -0.8011518884019428
Ni 3.8982999649775376 2.5724175104340374 7.840593904606841 -1.9152497118448566 -2.1533166381887496 -0.01750535587361501
Ni 4.111056864985268 8.201615182696102 0.19977824104660963 -1.729600379870731 -0.28982040476710086 1.2019110237031558
Ni 7.06025719674939 3.5936281045950187 1.0348772309221093 0.5046635846963631 0.27930562127870606 0.03343513972999403
Ni 2.095385154562637 3.4903563483401636 13.360343037664736 0.2383680025240798 0.2965422968719667 -0.34586531147681077
Ni 7.492678932110081 5.889925302635929 2.771749926848992 -0.22509571089520589 0.1475322133874298 -1.541318752480081
Ni 5.349116559983491 4.108907520971603 7.456753914002194 1.691474262422971 0.90673809637489 -1.0685057366354114
Ni 6.3577877497678035 6.033264961049465 6.83037218368254 -0.8974057632303707 2.432025763534037 -0.30999148039833707
Ni 0.4429009606500262 7.5068514625058675 12.512781606822662 0.2613904315611821 0.02445170528446111 -0.8404560853182043
Ni 7.894587491102098 5.244465093815934 9.651644310615826 0.5313063840948721 0.40995211465439074 -1.0835713727192824
P 1.8370884416540105 6.082052254425157 5.932066523976351 -0.16732045175795054 -1.7670284428102019 -0.692533064250259
P 8.004494995032331 6.878745564084421 13.465857057172274 -1.8501524651248913 1.6980022933494756 0.6557948282889609
P 7.878641047961409 1.5423467383302607 0.5637597946900627 -0.41376043265688744 -0.6061306282946142 -0.4225615758882852
P 1.147233485302846 2.2527471708644553 11.778083262574157 2.2652154186432862 -0.8164419817917938 -1.7218626449068408
P 8.966134032622417 7.493110678069159 3.4603058910102376 2.0762884443591534 0.5970816307184684 -1.8563375108896802
P 5.451083692579397 0.08983413256767211 4.590341808469244 0.3972814611652577 -0.16228417488562372 0.7075483067121685
P 9.042675082541379 3.3854983949747863 9.381327227059595 -0.28601054410270743 1.04273376987763 0.2468883812902651
P 6.1681855732610025 0.9851973497049346 8.940354105974665 0.33572179528490564 0.8367536967659523 -1.391972625812364
Ni 6.979126499569805 3.127652199588675 10.401686530818658 -0.7149898505918783 -0.1909802572687356 0.8293664031629459
Ni 7.6731581287859525 2.2995446785157054 8.132492654647887 -0.14047016433432583 0.12211145932148001 -0.9093562507240275
Ni 3.8057279998824147 7.255547156977943 5.673274241792958 1.1078395012380273 0.8943605486461434 -0.07831425963087157
Ni 0.3839760844395739 3.3303006126849737 1.6641328876041406 0.551283084327115 0.9437419272927488 0.06846256364777242
Ni 0.9297949573736467 0.3113320110903665 10.471731681209855 -0.4791633835427295 1.5267755645585832 -1.6656845550533765
Ni 3.7489721778272376 1.7757711296833691 13.601400885289959 0.41742296911013915 -0.24698582610007785 -0.7108084655206791
Ni 2.896076807234222 2.0102279570255743 1.899860549791107 -0.2789865473763905 0.7288894913921059 1.380245824293739
Ni 9.34132127106026 0.6097294763936916 12.8537482851128 -1.1188219683914602 -1.2478432674588962 -1.813506017546451
Ni 3.8656562161586345 2.933038015643894 11.475841381078704 1.2105735844741603 1.1535110351332134 1.469347661458418
Ni 1.5885717132966481 6.436130869776827 9.621176185999401 -0.2241991672228655 -1.500367763989016 0.6928809345079808
Ni 8.493146948671932 8.443852823083411 1.4782700065342145 0.41677299423096614 -0.4361699107003391 -0.7435756326493711
Ni 6.61447949400247 3.805361954395371 5.128517839349484 -0.9966811984939415 1.222929534936352 0.5062059894828185
Ni 7.48076837510859 7.659670760455658 10.874076679051809 0.4731310613057207 -0.989192089205748 0.18783117011679262
Ni 5.377846437825545 2.2551123878576593 2.0752686086041683 -0.7158393430763672 0.3685907780987846 -0.40432576960654887
Ni 3.061745240357411 8.48416475556679 9.401794801254358 1.7463968826027794 -1.2280576001915366 0.9783700588895796
Ni 8.962023060229466 0.6106070469844241 4.795353561402403 0.46732731013975 0.6298991914691217 -0.018352277254942585
Ni 9.263194024030774 0.6910159775498127 7.128837226614242 -0.7297803786374916 0.9025595395171682 0.6313606065059966
Ni 7.5905069349678795 7.96282212419969 4.803032069426769 -1.8861054861807325 1.1246529732509407 2.241203886220037
Ni 0.8955190211137989 1.2351125595384371 1.0371213713311374 1.052747188249574 -0.514056852985805 0.4066778147784932
Ni 5.4322088855423605 8.981113740246041 10.228462543411622 -0.5614795652441427 -1.2609425238450154 0.6091730146653638
Ni 4.462695177089981 5.0761967991565635 4.714428412842466 1.5710355628182235 2.620930883441299 -2.1058206494903153
Ni 2.6849718048090465 4.039293177961309 9.740963163767121 -0.4684323702784706 0.3834604961217654 0.4973202569574145
Ni 2.756744877614725 6.797868283011251 7.615553832063373 0.9381958006635391 0.5239669130106653 1.6674287914379928
Ni 3.2204588092267743 7.4920219273897475 11.855120820346057 -1.367946952321728 1.0575245550335595 -1.133018057386184
P 4.844874822908526 3.7912175813447426 9.504287537626531 0.30890827463648735 -0.8025911919516306 0.7666821367598473
P 4.581810132886615 0.199804521235423 12.317138741201472 -0.03078664636355343 1.2182377858876374 -1.8611642428543624
P 8.405502518979318 8.202619461340042 7.158975910292327 -0.6372602598198831 -1.209527145487517 -0.8478624050846043
P 1.9567196154451936 4.75414247103034 1.3775915417683364 -0.5633801247009652 0.06179363626802906 0.05188537601538161
P 5.25793369058279 7.221382911520552 8.529314119948172 -0.7259412073970595 0.13581492495050157 -0.1608600408445875
P 3.716422286825526 3.6334050475204096 5.760737525898395 -1.173293359966463 -2.628101175937493 3.056152571295756
P 2.4345403769809955 5.539488370591255 11.391316785229506 1.3999836690422987 -0.5970993713302813 0.6280541678405829
P 2.350321757615839 0.563385301999472 8.107243963245434 0.3892053690253426 1.1685231922713295 -0.48419323265715325
Ni 1.8419972054930809 0.8550109257924927 6.0248731336144505 0.06627661174004715 -1.0784713324885555 0.041667297831799205
Ni 3.089123565631919 1.4732861564413917 9.980495821862997 0.07375440817433104 0.4160057770476384 -1.3786684525042903
Ni 1.473924389598288 8.57714969505755 2.5934848360806475 0.05057334207217742 1.5587071231598575 1.016993170578416
Ni 0.06841108579390977 6.225532699564481 7.473320757314513 0.9627572920529871 1.2667272488475927 0.48766550747646975
Ni 4.626599083249986 5.804768105098866 10.24706234704429 -0.2830668880933512 0.7790586560473293 -1.0856539662799238
Ni 0.9274241089114112 8.353946419996502 8.512280803284415 -0.6741509621986455 0.30154514940319677 -3.2637951197115207
Ni 6.663642218646925 1.793087896955041 3.937461200622158 0.6245808645800018 -0.07853511739242604 0.5327222906057922
Ni 6.518819606721776 9.297020381346279 2.4770626610592124 -0.42263922320375596 -0.3972524076995352 0.5984232323480274
Ni 8.868324801328056 5.080411015148424 0.2536066377836105 1.1995024142616633 0.06011367746244486 1.2003269670454875
Ni 5.1757893289775465 7.259761372969802 3.53491159273873 1.4909302727252 -0.3151861372253991 1.2841626707152207
Ni 3.22471056834551 0.14371508968229973 4.30746842612925 0.4269321941521551 -4.288887522358303 -0.723002950704342
Ni 2.4428374080206474 0.35965940116182427 11.84856860612798 2.4107899940837125 0.18477824222308176 3.2204964569238856
Ni 1.2283454109189924 2.4526549356987877 8.17312651944423 -0.48364404502190256 -0.24629857022506613 0.5014710459009944
Ni 8.647449200133336 1.4627459235708835 2.6139392701810027 -0.7567525363509612 -0.43994814679584876 0.09654466659596922
Ni 1.5549612289606822 6.996368180587725 0.9703649988542985 0.0389594119823329 -0.9718983351223068 -0.638577693079726
Ni 0.3993537492080874 4.889804559997683 11.685111463177803 1.4584343569800238 -0.09088129766260478 -1.1186206510139316
Ni 6.1083512148019725 8.697287701061564 6.999571547888441 1.2492640590658228 -1.2338361545465266 0.5682693344724665
Ni 0.5476012328825229 5.710272054751335 2.8700932091231666 0.23181734588975558 -1.1243254147081927 -0.3658299275241958
Ni 3.985944394670152 2.1533048135509776 4.166444240065806 1.784991969267158 2.0734131796938873 0.5633279313067912
Ni 7.630809481669538 5.359591092381966 11.95872577185194 -1.8916896651367292 0.33775296678232153 -0.08812507507370629
Ni 5.9270929982434195 6.789655724007071 0.9356366679155917 1.0255428599206402 -0.020281633067171522 0.091981472705319
Ni 5.789422351988196 0.6315701904539524 0.2849016497694838 1.432771404996281 0.2441956649494504 1.439437504162547
Ni 1.5692182313919394 2.9574692054586165 5.366443651615055 -1.0177333911785504 1.8702371516899083 0.29927203709830397
Ni 8.156600973571473 0.36386986284099615 9.991155254161338 -1.5621716846696903 0.6484705267134058 -1.458897155549055
P 5.278066192370181 4.574545537836061 2.398926966826181 0.7593092413345439 -0.5525789203204032 0.10561963231404391
P 6.3324836822532085 3.8181829322236123 12.651044495904358 -0.7356460933896493 -0.268150375992835 -0.23869119019145343
P 3.9339940928551362 8.177409251642636 2.330749586997076 -2.7862268485700534 0.9223878870970049 -1.4558948783876218
P 1.7902346193124457 1.5700817233100932 3.7365707444418397 -1.7081015865670066 0.0017205822355325206 -1.0926242269501698
P 6.574458520752384 6.035367376154535 4.61662105870445 -0.07500010765597406 -1.3929930966570785 2.0697089913694224
P 1.7377117848125667 8.951473441577239 0.052995877898519936 0.22551891447555353 -0.8466475588408968 0.18435709552526314
P 8.401964079271231 2.8075501140600156 5.60943778600892 0.7136983854739645 -0.6953558784110346 0.28778614794589147
P 0.09324210990986406 7.823349407854407 10.255854008780537 -1.8747543228339711 -1.471149747664163 1.9098833053266204
