# total energy = -340887.740486699 ev
CRYSTAL
PRIMVEC
9.13923864741050 0.00000000000000 0.00000000000000

0.00000000000000 9.13923864741050 0.00000000000000

0.00000000000000 0.00000000000000 13.37619956888886

PRIMCOORD
 96 1
Ni 6.673270952882654 1.988926797467313 11.190823090163782 0.3843246438942736 0.5073475592864295 0.803391833476055
Ni 5.00616416377475 0.4122344956993021 6.05450885752115 0.37113668444908987 0.47044014473711887 -1.0122728822846114
Ni 2.754493396173548 1.5361415001580743 4.641487523909937 0.6949622425170418 1.1578063200744577 0.9341020902101397
Ni 3.28400260141955 4.184126209840254 4.400943678227411 1.9891758697103614 0.8184620975456162 -0.0658122705091189
Ni 3.959794459486973 2.5026708161509665 2.6291587921170883 -0.7106547135516341 -0.18066987648166302 -0.2734447916225549
Ni 5.456445309711187 4.272767684894293 2.5031286920041684 -0.21097624077468827 1.9046966189193582 -0.06911999472611322
Ni 5.5013281104113 2.9757452231230532 0.2290558227788329 -0.5497689616754339 -0.009873293249653964 -0.010136059992737383
Ni 5.8220239924245245 8.119153332756811 12.521741160006 -0.5620485503737354 0.687968327697712 -1.0397752014699382
Ni 2.1103415820938642 7.118945922571309 0.20328316996386303 0.3835718248886491 -0.3142376572692008 -1.2325020091161354
Ni 0.8184233850733905 0.40908694192998446 0.508138009734468 -1.2141541027365672 0.5369353002458752 -2.0740875800530927
Ni 8.348027284687767 8.971752900525798 7.384023140316426 -0.662593339268033 -1.6038932327781927 -1.310938139036852
Ni 0.0560564337964182 2.904687643110149 1.1179198892605142 -0.012625916294126644 -0.607439834024341 0.33491112645815224
Ni 7.454072662313199 0.6121315777667302 4.773630860713614 -1.0911476424046433 0.5489071278957709 0.2553352265060377
Ni 1.0098218891788893 7.747451360190273 2.1591862427213844 -0.32531088436422684 0.19930034709865677 2.3422965771980047
Ni 8.057445193818275 4.396951658812666 3.421082954907853 -1.4160206679005034 -1.7407147446163376 0.07690143844374497
Ni 7.912908135566944 3.87148199702206 12.522156081437844 -0.2033133249127918 -0.07452393935050391 1.5501278661312787
Ni 8.645829374040884 7.2142955987481105 9.293783111372706 -0.194760036026142 0.18138232916765534 0.009840126018873376
Ni 7.194664514263517 1.1967650144732898 0.09110906947249463 -0.08614943940457422 -0.7294466494471566 0.24535009026886775
Ni 2.2746011172156564 6.826462870075749 9.007519310735509 -0.8386503995680331 0.21673834006944606 -0.1323364794835979
Ni 0.21843419969317407 5.321084047001074 0.8869896086475145 0.17677234119946975 -0.5856741602124752 1.1499765396173935
Ni 6.541400879312724 2.307136806584909 6.773212182525499 0.7696651306475712 0.05547926401422703 0.3154352771217277
Ni 3.8754941227616952 4.92700921837388 0.386482863133082 0.2944586748700606 0.20591373865011636 -0.5753799773753188
Ni 6.333108492679399 5.8133325765284125 4.654850918571657 -0.9254703826770706 -0.38163886953199433 0.27460744447208835
Ni 5.551794985887989 3.150368654802355 9.396151722784223 -0.38422385665035114 0.0559358919356714 -0.3904094166357728
P 0.5318552477912512 6.099692339170771 12.2467131392875 -1.6183436038755676 0.7450542740774266 0.5506557351557614
P 4.223315264900747 6.54929718145178 12.151314111222328 -0.35718022226899776 -0.17429791151704818 1.474454386557364
P 2.68630553707692 9.050405187804392 1.324059071282774 0.37127295291663803 -0.588780824162257 -0.3117341741210567
P 6.830867983074619 7.958101670379011 5.994289500548414 -1.2615572746108792 -0.21708646743748422 -0.16871861765705784
P 4.951657744842666 1.1145575633844054 12.476596977082304 0.23880354739960163 1.217461312732929 0.6666374274304198
P 4.382950345297583 6.272643290188675 8.144901309627597 -0.03680559886412371 0.7592141105175764 -1.2141355907938056
P 5.313745238415819 1.15879147814485 3.9297263645361746 -0.49789258452111673 0.4688938832959215 -0.44965868921539337
P 0.4236960148110942 5.8010220221519 3.404670710253554 1.518832398452107 1.7024068501750746 -0.3316034022411579
Ni 0.5663778076292892 9.22304540471034 4.409798686494228 0.1635815535408086 -0.20786520594953234 -0.23816488537433816
Ni 2.425060402071277 6.803185229394993 4.7307340165584275 -1.0882150421388808 -1.5650567195269691 -0.7136659895741322
Ni 6.246468510875883 5.936081689988646 9.420455699958282 0.5707039120558881 -1.114578619734074 -0.26614414419608357
Ni -0.006152535416680046 2.6762158176770168 9.9684252532259 -0.08014771329518454 -1.165748971960302 0.5830956008520216
Ni 2.8260444950701435 5.479083203690862 6.706692234470974 -0.49333710393995045 -0.7180849445774342 0.8436339688255534
Ni 0.2738956690575871 0.32953443965058543 9.504725877196224 1.0995983442751578 0.021053992456821803 0.17946274354743932
Ni 1.810300379286963 1.5747456439490075 11.391439430307996 -0.931299587764338 -1.1683846098109363 -1.0380276226512122
Ni 4.204296509401473 7.184574794863614 1.4418336971801753 1.3000909119097028 0.16745312068107293 0.23890716285700148
Ni 6.138899672708438 8.167207449246568 8.146694428238341 -1.178723786953415 -2.3307644081886894 -1.6185809166973544
Ni 5.698680828456143 3.3583685858009007 4.645393634481965 0.13773168235724023 -0.937403900889863 0.447934507435435
Ni 0.9845610337247842 7.579015193034282 6.652920610321273 -0.32390089139057765 -0.47252453806997335 0.1304477471013173
Ni 5.523545599415978 4.631382267804437 7.267503331877002 -0.010376201028001486 -0.11984194656101299 -0.4299568399110918
Ni 1.098280579461192 8.056650080061218 11.306994693613046 0.06905751691929397 -0.5619940429867161 -0.2901752170033583
Ni 4.810191470756524 0.46232300669849496 10.419431140782276 1.1552311031481137 1.8956440217987869 -1.1660197091231854
Ni 8.326668884110253 7.153711586155757 4.671289667017858 0.8262638529782221 0.7141033342218669 0.012622316749700843
Ni 7.594085797464029 6.154920757951219 7.1775887608878115 0.39459491547203007 0.2958586405413807 -0.4201971894211667
Ni 2.4490965995547413 5.783246203100441 2.3914106395182846 -0.595441266901568 -0.4477054221437644 0.0774115453109441
Ni 2.3227831830456287 5.791224758386776 11.318485458288317 1.816845366332329 0.23074236765802197 -0.7306465832925287
Ni 1.2201157690627396 3.5402394336795893 3.6150249091120776 -0.4330100249151188 0.5942927551194217 -0.642184436594378
Ni 1.6044390301177442 1.396384263687677 2.593511192009007 0.07589947954179187 -0.04041388504067234 -0.9670885724384894
Ni 1.4416600516470248 3.6393818938699414 7.892466400619695 -1.1423853575336973 0.39005100485508953 0.6235773630161519
Ni 3.711289423071425 2.980589019574094 6.944602151592765 0.780773581855907 0.060331449900205766 -0.7452946722230067
Ni 4.43783147301173 7.148995739044933 6.02504121054551 1.2845647912496456 -0.45889949108737094 -0.5643656285426861
Ni 8.617598266046047 7.520926192576144 0.45623901557121643 -1.0975738576459613 0.5558275091646879 -1.977122280979937
P 0.6393235543342408 5.83975411528305 7.892640046152846 -0.32690419699327566 -0.9346844450761709 0.4643664277392132
P 8.748197985452402 1.736217711301805 7.928675149977011 -0.46061518822689707 2.5232001669570288 0.40359171965400176
P 2.2054444988288204 3.4935379245006897 10.26878815723106 -0.6962858464244718 0.5911045871994272 -0.5964527388852179
P 4.258355105642802 6.096575858812649 3.604658270782992 1.1761187452304003 0.7583155099627069 0.36077796692258507
P 7.159624673521462 4.204223395492778 10.657286222472548 0.31909755646466337 -0.018959571821638314 -3.3397632477077193
P 6.684365988527113 7.923125804307064 10.294376197426576 0.32939662439782624 0.9308853830450547 0.09955028619151242
P 2.335870572702025 8.77026924663969 5.491518051712155 1.7768587986370625 -0.0038016331342773236 1.138536416101252
P 7.186786490601635 4.172034997189826 1.2945393306471877 0.6460899422963712 0.17480364750887314 -0.36524577288595156
Ni 2.6834632338764037 2.039183470456504 0.15912054126439584 0.1745038568802672 -0.9101586920206648 2.6772889505160538
Ni 1.489915231385692 0.9285557796644524 7.053710951462098 -0.389962044685709 0.43859266120921886 -0.876224244056749
Ni 6.833061400335468 0.8683062632043788 9.04691217081649 1.306875024711072 2.1679924950333698 1.0295869480830269
Ni 2.771437544513603 1.8142850873108378 8.792002355999264 0.8666574263039203 -0.9932192080872702 1.9658811608484787
Ni 6.7373461546151905 2.050598379451503 2.2324070805078007 -0.02422467687531957 1.2117742896504808 1.528712119459664
Ni 4.399675151911553 7.37993515889652 10.075220911808897 0.17373458281441045 -1.070178496352144 0.463882289013943
Ni 7.577150788362561 6.342439655276592 11.593580195448501 0.8480896906040619 0.07880045523867074 -0.5969638741936816
Ni 7.812486181974431 3.909437254873326 8.333933664862956 0.04240726132161729 -0.12327436928132963 -0.4344444433688002
Ni 3.2633296437360526 8.743290214331253 11.988525993513024 0.8063074644609534 -0.14384833677793937 2.395358747130307
Ni 0.22350373533731013 4.91889357450874 10.019603161464648 0.40579206973943016 1.7369023128487828 0.3522655585761998
Ni 8.915409494637752 2.6900983210904705 5.733841307147546 0.12251306563527288 -0.7818580731693374 0.17823092802286725
Ni 3.637188476609093 3.00196569862878 11.824359678624816 1.6987751669597584 1.244229839076025 -1.4002798601264785
Ni 1.1751872721696928 3.9874132384964907 12.304404582867111 0.44172323641840056 -1.561569275199001 0.4003338748383363
Ni 3.683122289746695 8.497408139390137 7.7718659221512345 -1.1091841881913802 0.9840162014317636 1.0178730020802083
Ni 5.773476357051077 8.025430441048474 3.867674590226771 -0.245920360950041 0.40626746671395186 -0.5141828370407081
Ni 3.224515297457621 8.57372078159049 3.402584222084172 0.637118077815064 0.34953119036417224 -0.11814784668804168
Ni 3.8526551655331107 4.897781933373074 9.71739413126494 0.11388341498473291 -0.7759219101905606 -0.1632408823719382
Ni 5.408528281800234 4.736127081248539 11.689581499336546 -0.4202010460759085 -0.13336234964495097 0.1052113411320317
Ni 8.054584612140584 0.14461108608388298 2.253568987455695 1.0574412512911335 -0.8698363382525341 0.5559061849214233
Ni 4.795056891656669 0.45255498849684966 1.6370999270556372 0.6529732996797658 0.5557732588879848 -0.40998888142959716
Ni 6.369848231798611 5.968553404687791 0.186126991288593 -0.42061550790550783 -0.2309226019896281 1.4773887865953397
Ni 8.156642489440149 9.010265651930863 11.712480775539804 -0.5860685674374164 -0.08418588792030017 -0.7079841086980065
Ni 0.39615766110114126 5.122991050630693 5.684389801077857 0.355575082565407 0.2094225231343232 -0.03012433018920618
Ni 7.592267088985242 6.588504514989446 2.356150543126286 -0.5835740831503369 -0.0579395526292615 0.4515566775690546
P 8.779828890201555 2.009873932308416 3.485382981909627 -0.6598844249773023 -0.5873685171957626 -0.38600948779586425
P 2.3673461103952005 3.847884482990765 1.4469434454740937 -1.1319032270554505 -1.5296577712023849 0.1961124362889784
P 4.926735041216274 1.4456173419551392 8.031872690328356 -0.22436757447992972 -0.5195911525404728 0.3402587639233108
P 8.93847693283101 1.9258660512179184 12.198813475929862 -0.11321004306679212 -0.6108020656283546 0.795943861838442
P 6.459558997767315 8.207173339586944 1.1940067922677726 0.7215142819739574 -1.1096636989309598 0.8124984237630137
P 1.908976738309385 3.391918730653296 5.783052451242399 0.1429523073262312 -0.40140859595975387 0.1505216350330569
P 7.427322110969434 4.309598816399374 5.88310700744372 -1.5125172548673564 -0.15256540493596304 0.21307374673366528
P 2.7763087586804036 8.908226053108473 9.941098015927304 -2.2448142292791147 0.39500834886036484 -1.2870723881628479
