# total energy = -381171.9471561044 ev
CRYSTAL
PRIMVEC
9.24915849695407 0.00000000000000 0.00000000000000

0.00000000000000 9.24915849695407 0.00000000000000

0.00000000000000 0.00000000000000 13.53707837955671

PRIMCOORD
 96 1
Ni 5.577325648018786 3.1615657604730236 6.389541401868787 -1.0494623468507152 0.1997621172264237 0.4362616990831971
Ni 1.8701427950939478 3.8790692092524903 8.696395226142315 0.1547194751644884 -0.3255497398479103 -0.43459742400689666
Ni 4.617706984560621 6.6460103851863614 5.417876634747192 1.813875742181044 -1.7189277306482333 0.1687528133291029
Ni 2.3905836788757306 7.698000391770027 2.3531227382602413 -0.03462530338335327 0.05864712021924738 0.3650819936145777
Ni 3.2768657668215226 3.2287608949284903 2.4636261311567647 -1.2862720037487396 -1.7802523976996438 0.2967996642984114
Ni 8.1940882419632 0.5351895914765781 5.1066998054845865 0.8993070940181415 1.7833593187597416 1.0953300559171069
Ni 4.3128362313712065 0.32007266963690245 1.7127517195259114 -0.08390332368287486 0.645953673828823 -0.23312912272264366
Ni 4.366823567891036 4.296668702805734 4.467018773953337 1.6952923506174804 -2.7524942322042985 1.5685804164095114
Ni 3.3909448842852155 4.89966757284347 7.150541791916961 -0.7495210515995285 0.8733314958899863 -2.619882644682443
Ni 5.014172151585201 0.4775654859453395 9.197266740965958 -0.8584237255402184 1.1590209092078492 -0.43324168130995067
Ni 3.741913442034305 1.6808032772084893 4.6695744140168305 0.7567561358953869 0.19752037238009854 -0.05116443868895705
Ni 5.962146124846611 0.20483463264846535 5.217325287269592 -1.810400896258566 0.6831446810568235 0.6148142721115413
Ni 4.684559900162012 4.407362628361553 8.704761089750706 1.876060957460537 -1.2169987712742139 2.0262023263360396
Ni 8.527002442870298 7.042309067363013 8.239952042819954 -0.1773456972044365 -0.914696174879702 -0.17045385518060968
Ni 1.3487399988574689 1.3738699617364094 12.489484260598104 -1.5813629128861604 1.5667294792437017 -0.9361751706890845
Ni 2.5626920150006205 0.47216397754589107 7.496265152040491 0.9943828893780683 -0.6208067422495501 1.549774339446602
Ni 8.94329780511477 3.1062650434862054 5.179963312647037 -0.040999325230497125 0.001664017965984231 0.31523833061957324
Ni 0.2833572111738026 8.257010265321844 4.225152361630709 1.868031659398157 -1.4164356439507348 -1.8923995467195602
Ni 6.908427502154083 0.4142827454161856 0.6207877760388639 -0.32576905494756797 -1.563370847184114 1.3064880736852984
Ni 3.213194561647203 5.79957367084472 3.6142103145151547 -0.3489760891916506 1.3575926056705976 -2.573676064219393
Ni 5.998754293074379 6.224415255282841 7.530676645191429 0.553514287650479 -0.57709001808789 -0.8678419335303247
Ni 1.5097678434369146 7.194855433856339 0.1926026209048515 -0.7727378560356241 -0.5157910620680923 -0.1163015375079223
Ni 7.359148231286822 4.070425043629523 11.769108948191878 0.4044155011068777 -0.34047370814759426 -0.13706345264562203
Ni 6.784137314017461 3.2671911473252506 4.237741390881546 -0.5281997201450904 -1.8501375527265558 -0.9382989019003067
P 4.732248559935225 1.074881673173792 6.980989923123591 -0.5729996500686002 0.33231611203746636 -0.3375663046928122
Ni 5.843331438375182 1.994775202084645 12.916809244017822 -2.246395457723305 1.141741810412427 -0.72847348690061
P 1.3284380965684464 4.415640624966873 6.557373852149386 0.881211155748379 -1.825215078453263 -0.3203283435479709
Ni 3.282498504176427 8.414144214291412 5.645841562267816 -1.0923540040079187 1.7980290049567742 0.12690425272443306
P 5.457142086131059 1.487523617922063 3.328753544425813 0.4069837760546862 -0.9055227359105501 0.7537937108329534
P 3.6133408936426408 6.9453131451284 7.26706916156102 -0.1090253155614832 2.0183342364418726 -1.1978309400965113
P 8.124987780914777 9.338967544532585 7.3027801614416195 0.49697007270684723 -1.3352602607219841 0.018585733421987348
Ni 1.4749355135870472 7.632201880205512 11.120750356420281 -1.8856383167363266 -2.360119721422355 -0.9345332642102874
Ni 7.1797700568024005 5.192949130785437 9.463500060614523 0.8808684276969797 2.2463921152891957 1.5073303113497782
Ni 1.7030382535651225 3.8433397110554544 4.33419346261293 0.7099754280964224 0.36856532417748783 -0.0005401887741861664
Ni 8.8182214385296 4.064487084053418 7.9781176228199815 0.9647720084901706 0.141362337131292 0.370992959782374
Ni 2.720306920197538 3.396586870798338 10.961730504090015 1.4271031509669099 -0.21323778311535532 0.6674015592899538
Ni 1.6529725601298246 1.7834319367980085 9.804851343648293 0.850646909808277 -2.4011640409581747 -0.4740954821015189
Ni 4.63059106195862 4.8881708691782055 1.8502339820292004 -0.562192017930135 1.7919894836309138 -1.6827181134968956
Ni 6.13954497947233 7.238298730007383 10.901530507994996 -0.30074682187161755 -0.5050366517650656 0.023190322073534258
Ni 0.14063992511899367 3.8386133912059366 13.197946657219248 -0.20610220051183858 -0.27803549631703084 0.1275917657097609
Ni 6.500715358736131 5.381668955070274 -0.04261642140633284 -0.07987774746324953 0.4521104931899956 0.3441997508489298
Ni 3.0494937103426882 2.713379300692081 6.79015759110171 -0.0785078636989164 -0.864693103488698 -0.17938818155576203
Ni 3.441389793207461 2.0385699662479806 13.183543868041816 0.17022399855799072 0.3398887821784017 1.0502624741545075
Ni 8.214861851321352 7.810534899811273 10.779588681129985 1.833610758716126 0.6137336374528527 -0.9704865423764448
Ni 0.31058580805246033 3.338696389510414 10.513855740941025 -1.8170999055452963 0.6183881055057284 1.1928057189677779
Ni 0.5644668769005744 1.621386684814557 7.73118729637287 -0.5115551696098738 0.6503716003908605 -0.3613343536466874
Ni 8.777469647420062 1.484119927697753 0.9532432186983374 1.9364880523983425 1.9623865174316593 -0.6780829502632
Ni 0.7678771391834319 1.3537530426117514 2.9993836209479423 0.03131115140845575 1.0307251754525282 1.0427335127673139
Ni 1.4949784394459593 1.3085246589245894 5.491112394434988 -0.5562131746388809 -0.209534109011523 -0.9446865505942053
Ni 0.7108542289363784 8.425751907855295 6.426876553932507 -0.0552244676909436 -0.42220779209329223 1.4881159432048565
Ni 0.5985731478303106 5.544130419173546 9.929297842558805 -1.4278701110399215 1.010038079416822 0.1111729580321053
Ni 1.9771278082042554 5.2949765950907715 12.050327753985624 0.1258462437735639 0.4715830000923104 1.2009903116610994
Ni 6.925501448224942 4.824333179155957 2.4010990468540405 -0.7096273007283843 -0.6210710516545304 -1.2428974934178467
Ni 1.9571311281364345 6.278411840960888 5.348864965617665 -0.5977891983084543 0.6851622257074845 1.0266378927570319
Ni 7.630093072131755 2.1361023396592533 6.909636367133206 -0.46991435414063587 0.9184800674021666 -1.2971493127828757
Ni 6.543538961286552 0.4961257717418687 11.123769281662712 -0.8842363157279483 -1.1834569307630263 -0.9029997123783804
P 2.432935574357022 0.24338234935459727 3.6475923763564033 0.5235856184118467 -1.117209629599018 0.09920704391948076
Ni 8.783731327533806 3.534778543736965 2.6641913523716934 1.1717267868102919 -0.2991918186796718 -0.3940490702708891
P 4.087119774213435 1.0860546563014182 11.361899958980997 0.9470259973606593 0.5464059587404718 -0.10840079460360687
Ni 6.664684435628975 8.359629675753144 8.664000974398773 0.2498127540259117 -1.5508835133503807 -0.10719674699317668
P 5.547635850138256 5.9762325928129805 3.51192387377971 0.12408812343187661 1.3381776914790955 0.47818713567238935
P 3.4941007458931743 6.434611624950416 0.2618288705050422 0.9953748209776921 -0.7698944730495579 -0.4482787781487312
P 7.326628190991513 3.372529810272712 0.6858583788516023 0.6940934667588433 -0.19378995880338884 -0.6579046755431122
Ni 1.7368161793781116 0.4285911931797929 1.0609552156445978 1.5260960219930557 0.19385397927210482 -0.4170614720056624
Ni 0.6185245070228622 8.80555009177062 9.125087235146685 0.05127165369078267 0.2319055347281877 -0.26590914536714205
Ni 5.419118796695901 8.544094887257593 12.87538596402164 -1.761774136389798 0.03635359892836965 -0.5257610287966107
Ni 7.911914923041331 1.7605680176825351 12.33698876447498 3.0424642751753863 0.9801726593159571 -0.7384231419141541
Ni 1.844670613360933 4.84300722959857 1.2989277323573503 0.41533317646064605 1.1387940406380128 -0.20666681476605697
Ni 7.641626772429892 1.215986830951163 2.8636337257789286 -1.4990246196975603 0.5232369768231763 0.7366249123631506
Ni 8.170132922177974 6.072183360168935 3.7368153060244147 2.56458772876488 1.3233182578687597 -0.5441660136663596
Ni 4.475408685373098 4.337124520852288 12.799686228584509 -1.719857184441038 -0.3915545859838095 1.8178738075968435
Ni 5.961174963233696 2.7225729639610052 10.245767965069705 -0.3440570546234784 0.07054592853936237 0.1644449299823684
Ni 2.7147666744248165 8.750878317542641 12.432452101192833 1.497294524380331 2.3115104450550836 2.287082393919706
Ni 9.034753481576663 8.730002967444086 12.885565587556629 -0.14906973307787874 0.43296708749232526 -0.6484995801791283
Ni 8.451094601373256 6.32023653442374 1.260334694775949 0.43945115255477224 -0.6367041302060971 -0.31875585685452845
Ni 2.9892076970762416 9.026151764433706 10.069325473403751 -0.23743083542179114 -0.19283042310359694 -0.7737958649864932
Ni 5.7425803579039645 7.520786520308671 1.474580345911467 0.0034213669767231398 -1.028219378311539 0.3735121266598019
Ni 7.455228486857832 7.535483432717444 5.959400974687439 -0.05404715955339079 0.5689205949032202 -0.023800701964023525
Ni 7.11322236342221 5.1373524407356355 5.35170815685395 -2.51509707823392 -0.15301406243760746 1.7902303348479622
Ni 5.368072692489471 4.957650545713576 10.989955235308773 -0.48025918771006965 1.2206032007960206 -1.2196639768112028
Ni 1.620313782461242 6.553555799636899 7.902011849337068 -0.205541185802046 -0.20099187586846678 0.3256407568998198
Ni 2.89313669066345 5.661335752115001 9.914014533518996 0.31118755758896727 -0.10366430835988598 0.2463379081034338
Ni 7.378256992165693 1.2556564705491664 9.010116498830754 1.306135061221254 0.8813168280883079 1.3476864023004789
Ni 9.151181885227787 8.447126712497633 1.6298912857962229 -0.7329641756821119 0.21732275181800637 1.8192064103653378
Ni 4.573773483024011 8.198148622421005 3.683668717986623 0.42703478116829036 0.09456800248557262 -1.350136149392552
Ni 4.477498995130418 7.023394538806727 9.06897629189995 1.2713698898259265 1.1582423791706116 1.6655488008064605
Ni 9.087945390489725 5.749887192896369 6.204475919995972 -0.7770981898868488 1.3870152818070887 -0.07798695819843988
Ni 8.919767946607585 6.104490669825224 12.28734853231772 -0.17634888050880598 -0.3598557122186319 -0.007245882929135908
P 6.779901199553511 3.6445013076798696 8.289226933227594 -2.040677894244395 -2.22811311447435 -0.9585532812739687
Ni 5.4275355306744935 2.6733766913982215 1.5977948569473086 0.42396925486908915 -0.01773881204065977 -0.49020318629665893
P 1.4565389378909808 2.7221475026829665 1.1045770205492527 0.41588442097842576 -0.8537363473668781 -0.09079953658207589
Ni 3.9773230170047853 7.2539020599215425 11.415127014695285 -0.7802627036577594 -2.072405050144347 0.5458621704218599
P 1.1369157773434844 5.868433653779468 3.1313025147829636 -1.439074207285857 0.4289229993299387 0.42712425555830313
P 9.18971387836495 0.7711744640882321 10.837851903494103 -0.497247237627634 -0.32971955495488375 -0.2570696926986411
P 7.249545706400755 7.429599069435107 13.071063930034054 0.32941745033343267 0.06945809479182231 0.1559752019484604
Ni 7.295671258435085 8.288679383061075 3.5353159198294444 -1.2417916619481775 -1.054840580443493 -0.7889126660232736
