# total energy = -340891.1005134121 ev
CRYSTAL
PRIMVEC
9.07163249837589 0.00000000000000 0.00000000000000

0.00000000000000 9.07163249837589 0.00000000000000

0.00000000000000 0.00000000000000 13.27725113604123

PRIMCOORD
 96 1
Ni 6.528391252862528 2.241409885049546 11.664476514975103 0.3186303870202577 -1.4911264478964061 -2.3715477607536384
Ni 4.674058854710611 0.3267266374030572 5.93840946912901 -0.09021923859857366 -0.21556283170410617 -0.6860430856505411
Ni 3.0004515191093635 1.7889077846033066 4.423554795014084 -0.7654950584302818 0.29884291998068535 1.1501364622340258
Ni 3.2811550433792855 4.579450799427962 4.883599050716052 0.6506269109347763 -1.4296475146553183 -0.3238304431639584
Ni 3.9866468308254794 2.453323220115486 2.284789524473853 -0.6570089032017201 0.4670516878808602 -0.5630852191683657
Ni 5.099527490323952 4.5571890132870445 2.6594071241406136 0.4266131202498395 0.22134344294162522 -0.32339901205349464
Ni 5.109116205870386 4.719544020036836 11.385442171084126 -0.7345261208525931 -0.10997662373115898 -0.0977461431032381
Ni 5.753619408057663 8.021563818152922 12.297443322119427 -0.12892591114015217 0.5893320686800366 0.07384285412307927
Ni 2.1550298004391912 6.783104550036393 13.668531671628553 0.24083086224227557 -0.8309432607317625 -1.424574213897469
Ni 2.9550298552105976 1.7844173265186472 0.06778595948686746 -0.047284644018576634 -1.5445375165276949 1.4375950516371692
Ni 8.28164752176339 8.988563555511181 6.873819060652505 -1.2226410571616555 0.7900138695072524 0.4171280635775397
Ni 8.978775264049874 2.550770696368839 0.9733870737974687 -0.39779568179751484 -0.0743987266265493 1.0366104305887114
Ni 6.979342104152249 0.7053575272852788 4.687506642720104 -0.2761735034076276 0.42190543036152495 0.23252337081784472
Ni 0.8655707216031753 7.568490204859544 2.158854400698772 -0.16904951863391532 0.2348157663964472 0.6158938783289651
Ni 7.639838594426909 3.9552952689253127 3.614027711797205 0.6558853311202382 -0.5754928488040992 0.29606689989744495
Ni 7.821198671252177 4.123320045984018 12.393823067228208 1.712828559729031 -0.04689460766900956 0.9923308919450459
Ni 8.602239014110577 7.31364990483076 9.148305024939377 -1.88896403867545 0.6039251360028631 -0.14523210449934343
Ni 7.123308911836173 0.8934823204615178 0.4566433006798697 -0.25485828686961914 0.8210105749990828 -1.6419848974435916
Ni 1.7761621409488695 6.871362462573059 8.983069774872657 1.510387095898231 -1.6266904331783663 0.39988187490258226
Ni 0.33620649335956004 5.015170379759818 1.280751218804775 0.28823943343322617 -0.8359366001812958 -0.30539871882133207
Ni 6.696044092988968 2.047712388032082 6.7810371249909505 -0.6226101140068762 -0.10917212555199263 0.7811538480134611
Ni 3.673693653038459 4.448519927638291 0.27077371534170397 -0.584810269550283 0.24118001805157818 0.25699795892044125
Ni 6.159774538090722 5.706084053787734 4.620563437891953 -0.7168986375788169 -0.6326559282786524 0.12553539740136446
Ni 5.366496562997563 2.7358047843542836 9.245813281130442 -0.35258386114756696 1.7727383487107855 0.132396643297572
P 9.69313003644296 5.585404126716578 12.282917824169617 -0.3472565353973826 -0.4473999750882037 -0.11644217685084461
P 4.356669648633897 6.380160777906301 12.660031937098797 -2.0131776319415975 -0.06466221606507574 -0.6562853947721343
P 2.6560651347297277 8.75516859469883 1.171370917168471 0.06472160854810144 -0.19248023885302978 0.3027790218102979
P 6.119841211850985 7.651386782592103 5.594741558042921 2.394510283087083 1.5416182859983707 0.0025471919018859356
P 4.823196492916264 1.0384751297805428 12.409609522094721 0.12210734555642197 0.11583462517383276 -0.4919713339406753
P 4.123737341078754 6.22284959882332 8.129408292407948 -0.22029648973434962 0.07359011468232488 0.9225390679628886
P 5.017783009918165 1.0728294020363098 3.580702162666287 0.11902125043193051 -0.23004405603941672 0.7987419934088695
P 0.41335165609075675 5.854015164871651 3.4371753291583347 -1.5306728427304608 -0.7909656918975604 -0.6343294593263333
Ni 0.2870291736081705 0.1704995184031391 4.716371670153593 1.568855524447769 -0.0713051753028901 -0.5361331160595542
Ni 1.8508670345391098 6.885613997221544 4.493473495300353 1.3269630537101986 0.2474223994168642 0.7388538016936695
Ni 6.085786303467528 5.676347242471546 8.916444077181806 -0.021414718230350217 0.2511381577055546 1.8656194504122388
Ni 8.6211715111261 2.7951151176017626 10.173016673899626 0.6173156983771563 -1.2452667649809714 0.353247719983811
Ni 2.51705143838767 5.4000888181238125 6.975827753723973 -1.538891373985511 -0.8871745724206656 0.32341418156214624
Ni 0.375299786430329 0.4497452313312335 9.591751821829844 -1.0336238371565618 -0.19984002165221065 -1.8598871759141518
Ni 1.6228787666933393 1.32421341008478 11.223950783747789 0.29203720991276155 -0.40720180560276314 0.8064735577251723
Ni 4.282971706250519 6.776046819955857 1.6553279961253113 0.7702055765320736 1.0250872604404604 -0.03435328066888922
Ni 5.809727455034667 7.81795102681923 7.890763577871168 -1.8844630654813028 1.9267091186347076 0.11500081641862775
Ni 5.441528035357597 2.9451508474243475 4.726741453257783 -0.30289317879065897 0.4130904031730563 0.19290472798495809
Ni 0.9880459247449453 7.474408304261562 6.75018087422497 -0.44526544524370415 -0.5708828608359136 0.07445323401356856
Ni 5.2259769756614585 4.524739783855073 7.032269636776767 -0.07905242334847676 -0.47658688106480496 -0.8368210596687781
Ni 0.8377888470895005 7.651087418719793 11.398373783204695 0.5191144700143705 -1.2199066889496282 -0.6546375747560661
Ni 4.772204846666022 0.20280632320495126 10.074592182826642 -1.5100302267794445 -0.04072575985413631 0.792180538141268
Ni 8.043154303489263 7.227469396135279 4.479160273550907 0.9078912361427266 0.578305635662546 0.5463645639795752
Ni 7.510667619341124 6.676249790886491 6.991946230339776 1.4597857288015956 -1.9256608798758514 -0.8481292855927458
Ni 2.4942634975620863 5.354131927907885 2.4019215360765034 0.09969323952727993 0.023838754290810556 0.5056933115124581
Ni 2.5410186914375084 5.465114279842675 11.396488697972387 -0.5338682312847773 -0.8641765688635956 0.20857765863552466
Ni 1.1142776909025889 3.8043795907507847 3.632682616858403 0.500956311048105 -1.9044847600188684 -0.7665929194801507
Ni 1.4344518881550412 1.1132616680632317 2.2945614869966713 0.48424182650690156 0.5487978560114161 0.4601688447180978
Ni 1.1234400397217927 3.2844117594447253 8.026231173071219 -0.34835851021230974 0.3462602329223843 0.25230980941615255
Ni 3.706079381042971 2.5388233563738973 6.755624760884777 0.26762175718287456 0.7073320769363045 0.04176628530350871
Ni 4.293603659533793 6.761060483075338 6.005101389737071 -1.3201771411366168 0.2930646227360114 -0.19597822470395926
Ni 0.7366410519417383 0.08141155149324766 -0.02358352299533066 -0.12862406362901718 0.050603681089480594 0.9728290744666923
P 0.336593852067065 5.529296079739574 7.899778966243965 0.42943053509397655 0.7619129975059782 -0.7019381596142428
P 8.490485573413775 1.8062073877698626 8.124880640630062 -0.2627942538872442 -0.42790381403680505 -0.9544436299809692
P 1.7623641879250984 3.351668842757177 10.315454911508269 0.8127143964285616 0.40353207006065994 -0.7073968687359689
P 3.9713702017051435 6.239686548732668 3.825999105311108 0.843696703742689 0.90171133258426 -1.3265208239664572
P 6.862526692523649 4.0433445339146115 10.441429043303074 0.00507278653721707 0.9444250694027025 -1.9682676588027848
P 6.50037805172025 7.860623986072236 9.98548879414151 0.2630549637477986 -0.6491845220612948 0.6095342546595245
P 2.469044359228041 8.676898549538347 5.630616235904726 0.4766277616050695 0.2589550826468121 -0.8809741000369086
P 7.206659071193445 4.071657098929201 1.355872500326502 -0.6065900844295359 -0.30345033684570966 0.10946291731953407
Ni 5.464660698217963 2.9856466148787293 0.16933381362762656 -0.08295458661636036 0.3692209554836157 1.7256318821412864
Ni 1.411963311201768 0.9289986688397996 6.894531411963402 -0.3856788439293229 1.840712916978546 0.39920978853622213
Ni 6.808550479182795 0.9062515503604398 9.371561529276141 2.0553750912452533 -0.054787123043208874 -1.1731020698912635
Ni 2.9629040322156164 1.7636795746367664 9.182374447934823 -0.4477118499016677 0.08099746288998953 -0.3745752778169936
Ni 6.442074669679634 2.2028191604189593 2.489510869298343 1.3248213247768474 0.050516777802629136 -0.7903442562634775
Ni 4.01315414097371 6.920766573136805 10.409152174888492 0.8753567538501311 0.23614451251019974 -1.2944995338648544
Ni 8.456811673595077 6.873712015389073 0.10916802543593844 -1.0205232952188619 1.6636202163251799 0.33609923322898244
Ni 7.618320682150521 4.164877194440228 7.934604963389434 0.8268783466337695 -0.781125565878687 0.4039313623816076
Ni 3.101273642650581 8.471489574970791 12.112782985392748 0.9278296269378665 0.3763477963363841 0.31569650120291437
Ni -0.10041752873197417 5.146128466446972 10.030684574391168 0.7122212867078056 -0.5929730078667337 0.530468461574609
Ni 8.880846991274325 2.503534705971221 5.622650435411515 -0.09248258071145363 -0.9142148643679094 -0.0679704545027023
Ni 3.7847757929306867 2.744087184821544 11.36151664754376 0.14079026667790592 0.23606069454714185 -0.6756391167083977
Ni 1.3589396192728116 3.2567251370722405 12.44944124605052 -0.7119654619432577 2.1474321543835146 0.47336940256877186
Ni 3.089444233878065 8.687122279359379 7.930727747661386 1.2384538558241962 -1.0160524039317018 -0.4607244601112517
Ni 5.977688730665911 8.049785666842569 3.3468236838419925 -0.8316816815596837 -0.4466003620050437 -0.6487921717188827
Ni 3.411060820697105 8.738231856832046 3.4186265621973186 -0.43697955108582803 -1.4927303020484162 -0.22601205206188815
Ni 3.3469788087576444 4.453400465920203 9.259103222734534 0.57535066679928 -0.1585707305897785 -0.2283792667424841
Ni 7.163142450118474 6.154512991244051 11.234333267137469 -0.013367165335525365 1.1972794384684153 -0.10914410052753462
Ni 8.10974008599714 0.004712713080768658 2.350777486400358 0.5533116847213696 -0.22756808369509837 1.1145074001765063
Ni 4.901829403376519 0.2639491262162713 1.2462772010000838 -0.9009942519125773 -0.04450476728059432 0.30007062174019933
Ni 6.1879510286178965 5.634844523810301 0.21263090119623607 0.1551071975212103 0.5853751409148177 0.8081339761467308
Ni 7.923662760274856 8.88901146051916 11.39558607053921 -0.5157668936983764 -0.31482721122408364 0.262691923981425
Ni 0.1610051478346454 4.81335377165999 5.510085990769726 0.1624790645052492 2.1541409338622577 1.4997807811372945
Ni 7.487253735873436 6.059696288414033 2.400845640462684 -0.7025932766997385 0.9503640605949568 -0.6251742751896265
P 8.716958878633003 1.851248043103869 3.3765777312599194 -0.6781855372793353 0.2076237793626876 0.5820100810973268
P 2.1250117685156815 3.353773461495846 1.4833879024820837 -0.8135741733256956 -0.11899888183442732 0.003624227016148597
P 4.775379918039013 1.1219160054627568 7.968833139953531 1.0344795002886378 -0.4477614721926805 0.6919548231492857
P 8.610267408868 1.6560627983573464 12.25240629543842 0.5398450176935025 0.8210044043514957 -0.1464199541598575
P 6.658859471394992 8.000943997493467 1.1156992157144396 0.1521198327581122 -2.2228935179466234 0.49776557202494914
P 1.8857837480095212 3.2387723763660974 5.931160327602847 -0.5166184430653942 -0.11841009921049285 -0.7702204889304091
P 7.168812220427387 4.080755946320944 5.810376983921256 -1.4595155058593445 -0.3837219773132682 -0.12837312396047568
P 2.3053739657665813 8.633028134796099 9.982541420744125 1.2237869978406408 0.9858499122063925 0.8848114715051276
