# total energy = -340894.1510945808 ev
CRYSTAL
PRIMVEC
9.04778548230908 0.00000000000000 0.00000000000000

0.00000000000000 9.04778548230908 0.00000000000000

0.00000000000000 0.00000000000000 13.24234861753562

PRIMCOORD
 96 1
Ni 6.498906813008791 2.0454329024705964 11.478639747355809 -0.3828948534262825 -0.26314469524812745 -0.8157601252334209
Ni 4.861501900110966 0.3207141436900274 6.184560500861024 -1.8101815811589084 -1.832063211723348 -0.9599848715141724
Ni 2.7439038592756795 1.481583948389714 4.797239097735208 0.03567097103904824 -0.3411308821156189 0.44990397245698
Ni 3.3766697966719885 4.572814203295248 4.911680014561409 -0.17350138375768184 0.035117926749055645 -0.7179301641671249
Ni 4.788305314181886 4.766862062185357 2.379557674054824 0.24985054924238262 0.37531549841712786 0.628638322478827
Ni 7.058648072403418 5.953515341659098 2.4797890435137058 0.24628802870210487 1.6053693031030867 0.5094586920921613
Ni 5.183232110129774 4.279186415513241 11.588975683831451 -0.41937340796829065 0.1931556676534996 -0.7789840940556519
Ni 5.674155911851153 7.665537342833452 12.50024784484867 -0.39911131528514493 0.5128736313109813 0.2118560722764803
Ni 1.8564427557602599 6.499802543788392 0.34168962516831985 0.2736039429082385 -0.31897697172639905 -0.5782783819690364
Ni 2.767256194044895 1.8119186025640912 0.44681403710809675 0.3116482992754697 -1.634765239766701 -0.6364565329716652
Ni 0.6212182485679675 9.045116555776385 4.815527386874694 0.14435690098324172 -0.08439517571762885 0.6032463647682836
Ni 8.85072488103148 2.2097406899207934 1.3827658430497602 -0.18347417869967755 0.9508695394764656 0.45918205532479633
Ni 6.851499019888426 0.6499133007650104 4.814878660643407 0.8347322954605495 -0.13042692116571086 0.0019818063167191674
Ni 0.9329986087046731 7.36573896523641 2.383768513497518 -0.9606826689121456 0.32970078590180635 0.6313549500790416
Ni 7.666695459396978 3.9229027120873683 3.8588072937461817 0.20204088595827138 -0.3171358047526022 0.5141262727711597
Ni 7.610707761779036 3.846159394182491 12.666902627897137 0.5721267605453437 -0.22078062845961974 0.3624494410877371
Ni 7.938843804039845 8.718636258289992 7.014670405460663 -0.5541763467145101 0.6444110119320514 -0.08904501578481439
Ni 6.771362782363845 0.7519117027618334 0.1743345435103461 1.3280362321697192 -0.1662120491851202 0.27789511408442463
Ni 2.020822925495677 6.148793699397952 9.317170803448468 -1.110593666944397 1.390939042341527 -0.13609517519508174
Ni 0.006124446108206957 4.7974254821196505 1.5399530231914051 -0.4334417131358987 -0.14204753612377471 -0.07631934068802985
Ni 6.368645842969117 1.8461101845450547 6.888219457959275 0.35238022977719313 1.3205754050162999 1.1854785891787456
Ni 3.393860589411822 4.318499044173544 0.3919763130465935 -0.014175777279749781 -0.836744697904888 0.433338354788815
Ni 5.864430844124151 5.760707029403387 4.982089882509506 0.30219692405458276 -1.5093671392741488 -1.5008022804232735
Ni 5.272959000446052 2.7888532583975176 9.309583330400244 0.2975136596463005 -0.4669938380597312 -0.13164459562289588
P 0.03195135025339348 5.5025375135937 12.590467839483011 0.5863393046002999 0.4904168449693618 -0.5332339401348881
P 4.038388648156438 6.084662994692721 12.686911805867737 -0.16329333287642844 1.0369678139281302 -1.0015858348844107
P 2.4439245259655866 8.518444952941806 1.252196343519334 0.3326920073196464 0.60576630297666 -0.29900747058300764
P 6.441833381112544 7.625102788752233 5.810888762968092 0.0847769845370798 0.7708156993122467 0.08811941864675146
P 4.683088614828454 1.1731268399231878 12.466016452610836 0.35202413198935506 -0.23534978452304628 0.48404488000474694
P 3.978727549563564 6.160691537531048 8.250632307183638 -0.27682784916217484 0.3698807005548017 -0.29333664545047544
P 4.8653562567989495 0.9273165993148754 3.8545168337897455 -0.423262972830684 0.056481994247128534 -1.0402058612494536
P 0.14820363376723414 5.594797783892691 3.6641052799533944 0.20705170890930147 -0.12720738578714866 0.08306745804514082
Ni 1.4852573493646468 0.9025274761840357 2.690196203642179 -0.28972938771519136 0.9963976058152518 -0.6998681644590915
Ni 1.5386121413576983 6.771064205437311 4.965563197236569 0.525499804715424 0.11558085729181386 -0.6295027273616514
Ni 5.9142389041414045 5.61983300679328 9.327565804384674 0.08289622257459917 -0.14077201184546076 -0.4787386373004852
Ni 8.435386280651453 2.3833586488074583 9.993682784474828 1.143670652004024 -0.9425628193829833 1.0868117340334509
Ni 2.26361120569604 5.3447712751702925 6.902878680273527 1.4793106862084007 0.4790839364550459 1.3787173034643545
Ni 0.47932273095768696 0.2801673970667172 9.313291112960657 -0.07871303773118701 -0.6810173503011756 -0.3723520449134297
Ni 1.6169750128943807 1.121409697133247 11.284573792894395 -1.3050605972101526 0.7191424393076712 1.0113436856021227
Ni 4.198190638351669 6.981778085499405 1.5432762748615847 0.2860174860812429 0.7967951540951439 -1.0309203221824697
Ni 5.775527302302255 7.732798581374464 8.002484118762709 -0.9417817182425845 0.2394877179508198 -0.1929587211513451
Ni 4.825609334427324 2.743795285847849 4.973707109102423 1.4755594466960844 0.49640237312883545 0.3566937695508825
Ni 0.8594871598348844 7.67911806909792 7.342114292119053 1.2563975847868105 -0.5609995402839307 -0.10893712672305111
Ni 4.9800007488023335 4.48553926289081 7.384648837250227 0.3132801784519379 -0.5008956330134986 -1.2727834823440016
Ni 8.219569449481325 7.211257073004877 9.265869858798542 -0.10508561418744483 0.13900849218713482 0.250121286405266
Ni 4.699447011288252 0.26017088599603 10.406844487626852 -0.6230659705973721 0.6997648061120078 0.09576922188252539
Ni 8.08322836748314 7.3989262430099405 4.1687048096885935 0.08933452200077517 -0.002510168016363419 0.8949976680095102
Ni 7.242300025578754 5.901608195370454 7.040811267767993 -0.39183303645617684 0.5280629374569099 -0.16550525292608273
Ni 2.174861476230237 5.255542013064904 2.519873448290171 0.784568530121965 0.25235557505242345 0.7864384934511682
Ni 2.539242947815137 5.0722248279587125 11.473462604405423 -0.9788048324341528 0.3755443265984823 -0.09654980880229178
Ni 1.1530588513458455 3.2852690660099904 3.781961735863431 -0.5269504211190216 0.06287838469177559 0.6074629739527925
Ni 3.980446628837547 2.712915193415717 2.6945662841123577 -1.0160794005148952 -1.4006860944259618 -0.11837616064876387
Ni 0.96894546110223 3.5120337178196976 8.050129758009005 0.4990909757045921 -0.3670064643308002 0.24979192809030523
Ni 3.66810802032608 2.499984605868749 7.082272745520776 -0.44916889406316834 -0.0006484322172763025 0.017388113569460375
Ni 3.9776056241426487 6.935779143241873 5.656297392530162 -0.2943805133339575 0.8054350891583288 1.069146969763836
Ni 0.7989276161267125 7.332723595390278 11.413369021658358 -0.0181293626108591 -0.27076904456260464 -0.3328300755594074
P 0.13186604721443562 5.7770925692201445 8.004417630556658 0.693162984524774 -1.5450414527473069 0.27743077285349643
P 8.409962002967806 1.6996536781873266 7.905523523817222 0.19485773794627087 -0.9276151969342152 0.002227860889254228
P 1.6326548254302393 3.282192818888125 10.257960460378547 0.6051420391290997 -0.5165269117928524 0.24652482730325928
P 3.899278943748576 6.304759428476505 3.574109670403236 -0.02184794911302689 -0.056928080645611626 1.080045618954211
P 6.940972572206433 3.9265218263483854 10.305341904283788 -0.8711005496769385 0.32737393754084265 0.3068994717365746
P 6.274485537683092 7.706460477339908 10.217888722501995 0.6201889061598932 -0.6464388409953576 0.8869735121534531
P 2.54245491172179 8.557983776243423 6.075999739930411 -0.24108540145524282 -0.06500674388868803 -1.2611497547598152
P 6.781043913012066 4.002957519541076 1.8849686143656 0.4250594026094744 -1.9475970178273105 -1.3826793734358962
Ni 5.427250889178882 2.9283882087310493 0.5512553412311066 -0.1963068116879716 -0.5289409691864889 -0.1473630347994172
Ni 1.397692879819327 1.0392738989794534 7.022258783287453 -0.5121681206035245 1.5254956694048953 0.31310020123064786
Ni 6.962578684344708 0.5464021090070821 9.287732928049351 -0.534797427967266 0.3848116108330212 -0.4826749962404139
Ni 2.698583500942087 1.6783009040473231 9.163983649343812 0.26208180120125185 -0.3056537722549317 -0.25962794034412057
Ni 6.632587846025126 1.7720992979072456 2.576431156404223 -0.510861743087275 1.1937822239484344 0.3547636424077052
Ni 4.176711195212529 6.9309657212747195 10.498970850698184 -0.5186491003421777 -0.5914275177564847 0.026044246582561596
Ni 8.133850728209124 7.278237830190658 0.2742465261356925 0.5563350449287257 -0.47212961662439984 -0.18710457636341324
Ni 7.592856480686567 3.7734151975360377 8.146150288025192 -0.8162995426766586 0.4458951084079031 -0.4971747325184857
Ni 3.109009153712783 8.400271824533931 12.26854581640837 0.3610793002130879 0.03864059519033345 0.9015709503516537
Ni -0.03544289073671017 4.638890181915776 10.160219041531244 0.6892101705246131 2.206053306460833 0.3758672571555398
Ni 8.442280693318693 2.609869962618894 5.9043659604373495 0.7370267757872597 -0.5217362239079337 -0.7774432319310933
Ni 3.474476359575988 2.6424148476110947 11.347090372639212 0.5074496320819326 0.30841590838110106 0.3939331135183151
Ni 1.1317332205627995 3.5285368788499376 12.857553043274715 -0.363680999501993 -0.01320981382205467 -0.6729181182328088
Ni 3.218089257539852 8.388916853539989 8.24279240091571 0.7708411532335434 -0.4651791534484956 -0.9315723818097504
Ni 5.756146945434506 7.8497954976475075 3.601521746594748 -1.2025681976711806 0.26374196251249415 -0.4090594276367923
Ni 3.1772566008899212 8.470817409266816 3.3668140437606726 0.7874355672571148 -0.6654405789088411 0.8550918329535081
Ni 3.4672200354826477 4.291455212858091 9.383713647808666 0.2521015500600884 -0.571569345379977 -0.6044077320662365
Ni 7.1655205165312665 5.9499686096833 11.357393086161764 0.8340864343464345 0.34372255410219515 0.5399846285951603
Ni 0.5944938040860486 0.2386235844644967 0.21493919596183256 0.350004530456165 -0.9626837585025743 -0.13944172306981148
Ni 4.800963166309795 0.48970687455111156 1.376793399740516 -1.4356315001528952 -0.728875607435035 0.8098525014997343
Ni 5.9173875335484905 5.366567390807271 0.2732069355642152 0.5081571996719184 1.020753408951797 0.9150602430873402
Ni 7.828822730504911 8.722517758334934 11.443282810582797 0.41715737415357834 0.6437152714166076 -0.006745032033317416
Ni 9.306009455067489 4.877181712646825 5.947191844266535 -1.4551808830397326 0.05669153915477333 -1.4062877568834553
Ni 8.10275348892133 -0.05038168962762538 2.2071548327812964 1.0682666240414118 -0.12743904218198054 0.7097674258506744
P 8.626665517131883 1.5647964330361601 3.785126651284691 -0.519227341443151 0.6693669105464407 -0.6068235405965807
P 1.9600127581249296 3.2267660839806416 1.7626760291501213 -0.49036259469265864 -0.07056006960674945 -0.1106170855286353
P 4.886681887581996 0.8748023466089456 8.271647598918802 -0.1326357558915716 0.9339352256149721 0.21354297306059997
P 8.663670960450789 1.8705120624499656 12.401168258503358 -0.7224342226850655 -1.042290254582308 -0.4413697097337237
P 6.471501070267235 7.9056112873380515 1.456314387840724 -1.4090444936929862 -0.32730503197612015 -0.33800236378896625
P 1.8164877343186259 3.2894310474101607 5.984428910898144 0.7280101741109463 -0.7700963046477188 -0.08359967639952699
P 6.534057460268924 3.8976141511885083 5.874624079440307 0.8645079840610854 -0.06058933154728274 0.6451278354934179
P 2.34196502944707 8.437584892565022 10.140222530460559 -0.6034618232131994 -0.33210271047507967 1.2514204432871932
