# total energy = -340855.79272160324 ev
CRYSTAL
PRIMVEC
9.43848393855406 0.00000000000000 0.00000000000000

0.00000000000000 9.43848393855406 0.00000000000000

0.00000000000000 0.00000000000000 13.81417530064620

PRIMCOORD
 96 1
Ni 0.33034882996393855 4.00532453621199 9.90747101177281 0.3356780865311638 1.3876565149355133 0.1929006142199
Ni 2.3999233431503435 0.531445171448035 6.711713569248766 -0.138523067910284 -0.41347683997819756 -0.34763474467240774
Ni 0.869347620209013 1.4673256096780536 1.689804836810898 1.3366707679162657 -0.022428247096529113 -0.4907397755264194
Ni 6.950848889210719 8.617232127814878 12.133818745275127 0.724394688845546 -0.918684727213805 1.599485076408168
Ni 8.330000180755645 1.2339874066286856 7.840401472257195 1.4676126810451822 0.9155826912497136 0.6215690743368715
Ni 6.633781894022732 2.206273965593354 6.9753983862631985 -2.0715316464004583 1.1902466999913501 -3.1723795468120013
Ni 4.340088689021431 5.037564345956111 10.600653102306422 -0.23025925737401637 -2.2341708906326554 -1.1531971034372204
Ni 2.0275468313427747 4.120039871535266 1.5207059001547951 0.6301516737995598 -2.119485805682234 1.7516874415777575
Ni 7.03638043180571 8.689125060936268 5.569889184118983 1.6513226299047497 0.9650013508921574 0.7657269719354296
Ni 7.086715867323155 4.310074309695446 10.376877027463077 0.22549834565026328 -0.9625168939074068 -1.2850720699033675
Ni 3.270736759934616 5.8872827508556105 12.380595461935922 -1.1635895024151381 1.2672990621906626 -0.33339648958583873
Ni 1.3240494215747687 2.198373954431138 11.367436491577152 -1.726374930954898 -0.34969419830459775 -0.005232709153849053
Ni 8.006684909116776 3.46836917776694 12.394451156543012 -0.15417080174986997 -0.36083684518497855 0.37012572668607224
Ni 3.382658303974718 1.6108000059466987 10.726265167482481 1.0154697919553544 -0.8901097437895896 -0.36700620722048405
Ni 8.475277327480661 1.0730329378720773 4.101470597986228 -0.7876589961218305 -0.6995696593820661 -0.6896927665879864
Ni 4.066127250557272 6.394771162050434 5.728033816169508 -0.5356500057755484 -0.004263146151728142 -0.6632543698907996
Ni 0.055249110321567034 4.0536495746236385 6.3784331461343085 -0.23921595234667187 0.28963477111885605 0.7923777417537385
Ni 1.6140845984012402 6.986177135065171 5.058198759818521 -0.6464555531659061 0.185476553841687 0.11706438381587582
Ni 3.720650418334311 6.817605809668289 9.07823411729387 -0.2754075717758805 -0.2390110354247174 -1.153906213689103
Ni 1.7207111528810037 5.983300449246567 0.3541772268338695 -1.2104761396643475 1.4772674305261269 0.18711871743080033
Ni 5.3200109815945025 2.9451656906042665 11.15545757796637 -0.5620845458179932 0.20437467629777062 0.6791044495491788
Ni 4.311329628076062 0.4086070767386141 0.7390710562081428 -0.4304720889846135 -1.1721240222487106 -1.0200671815180498
Ni 7.000816223849638 4.125778469846649 8.072479637683916 0.5465694809015296 0.8704310344137398 -0.28068476101441986
Ni 0.9857458372410379 3.7422928622948404 13.239712709267126 -0.00501622226766878 0.16959459250410794 -0.39322580303864535
P 5.995476093690127 6.024839217615642 8.886175124301797 0.5563000779257322 -1.1442458077812037 -1.4952440696092055
P 6.9114149027880885 6.981023722765805 13.753171905481324 -1.7801420973740245 1.2286607809931742 1.4506212886935081
P 3.238202305363336 8.227016881124884 4.55123229679248 1.2786052312321012 -0.1300754513635631 0.7254056466085635
P 6.357970512681876 5.791047967331165 3.826582300386907 -3.574148611434967 2.0307184690388382 -1.4236853835346126
P 5.961403166216289 0.21316816260294374 7.20000316000743 -1.133583700081667 -0.4997877446613005 0.46961096396760416
P 8.662272573771984 2.3191959889443226 9.781706987003307 -1.3173337581505504 -2.2297272530390053 0.8028069075068626
P 3.110339161737829 1.714783784888325 1.7237607270823323 -1.1919575120348698 1.6696594805407243 1.0035722691868199
P 1.0114468293494203 7.163337480960998 12.599619260052652 1.523735492180679 0.08940368467581376 -1.775582245917484
Ni 5.577511703849695 7.414637119185634 7.309412179589489 -0.1582614268794758 0.43444932846480666 -0.2582922522518326
Ni 2.27693045730226 8.87090082553977 2.228986733646829 0.17867521464913744 -2.060322922168832 -1.6165556587372094
Ni 3.929939363986633 4.004984750785659 13.42225393492828 0.5702943353222952 0.9283014243679625 0.7055361613781461
Ni 5.9778450054571275 1.833595422295713 3.8904997144735636 1.1911334734716776 -0.5324471825675345 2.4060540220606237
Ni 5.4197096887707215 8.146232896014475 1.702348582132984 0.7968782007272535 -2.6385177432851266 -0.4102169382800032
Ni 8.727133836265118 6.0206579691749464 13.340901753077171 1.0665208449948986 -0.42407775542249554 1.5350349763538982
Ni 7.082987666117569 3.923804349344529 3.1346715736568194 -0.48876542540886797 0.4699992005449583 -0.8546925406325603
Ni 7.729637086363435 7.043430979402096 2.378442297267322 -0.10810100397500093 0.13540123445185068 -0.16895978713358642
Ni 8.061116646718332 5.484986244562705 4.763320696818414 3.3966147094791244 -2.4646816018958457 -0.11202193629596191
Ni 6.126076397694419 4.808237498634272 5.779519802894448 -1.5269737966123185 -1.12492396752414 0.7307329723587479
Ni 2.7173678777009216 3.129820192847525 6.520650336325525 -3.1728744841705483 0.7006947741254449 0.4686498856059155
Ni 2.5330437223999303 2.1068395359709498 8.47126691560154 0.010476216940975506 -1.1620630384682824 2.011734728847484
Ni 9.54579962859151 7.289747098040531 9.062140558115022 -0.11652702325516706 1.7069409906000022 -1.6679615240130112
Ni 8.83148571608527 9.259615353263465 0.5502891048833584 -0.777566644882835 0.3856474764707552 -0.1632653078519704
Ni 5.600900267362207 5.443655122843055 1.7178069313342725 0.5623234013016767 0.040709047683587955 -1.0860134065018714
Ni 7.717348180111098 6.177733220980933 7.121760014807258 0.7293520328508213 0.5437235268123023 0.11060602978504178
Ni 1.9614774428893496 5.610735167757703 6.785578201691289 0.20964415222682606 -0.43719655219264064 0.6571269168368232
Ni 0.39757915195733096 8.837054421683487 7.076035278755456 -0.38835844764401506 -0.7900938308155683 -0.2504653000082461
Ni 1.1544776168670208 6.122140549839408 10.509341432070164 3.3809140109144162 -1.4316360058402569 1.7267045463801747
Ni 5.396953503690548 2.1391569054087394 1.8484195053678485 -0.3020341732244734 2.2132958469558592 -0.8194573715793501
Ni 5.546298637047483 7.850411928456295 4.24419841016535 -0.8080756121049697 -1.4663613251365843 -0.8941463757528083
Ni 1.2915432824556836 6.1208569160065975 2.8352073512496374 0.033714104422993545 -0.12105345037061087 -0.2363944237374768
Ni 7.668400201751174 8.588246543251953 8.255378581891126 -1.2894563150139922 -0.7962883896620544 -0.25932455017108885
Ni 0.7941181829707237 2.1641500112122634 5.154911130636646 0.2426247209179047 -1.0827020827404517 -1.469508098295682
P 5.914928070681336 3.3760041727090515 0.06593630582811179 1.195248781191632 1.9390061908345058 -0.31499227604703817
P 6.671535830281832 0.3644406344059059 1.9237763621410122 0.6672760894556831 0.5335632984498488 0.41727101691330715
P 9.037631646544021 1.9732944249384479 13.688839198095819 0.2453230936856743 0.34413958703495573 -0.4963810329725968
P -0.015091192171168775 3.968353994130267 3.015952433393266 0.3993468283347187 0.279219489322803 0.052364886754961426
P 1.7598336693294963 0.817561489690812 3.6305034570316455 -0.6362328469966333 2.1352811208432776 1.8849261211606503
P 0.2947780150690209 7.531778144913556 1.5147653182844258 0.5484363589069394 -0.018772138401180572 0.5546190906788836
P 2.2672654496199307 8.168536033859539 8.357161306348848 -1.1789860394758664 0.8206470210120771 -0.08782502733478423
P 5.034128737756532 3.3676605527957904 8.533665677602173 -1.68503493455553 1.8120710848721373 0.38649054119734083
Ni 4.342278417324459 0.8119437039754578 5.510004834273205 1.2535809412736216 -0.022572485983877254 0.8840941337231291
Ni 4.4845069336965535 4.507140418483884 3.781312499267027 0.353859642536197 1.199715558713734 -0.1723554430786967
Ni 8.199588646432646 2.277477889378017 2.0009284185832965 -0.8223249229351323 -3.2432401783783047 1.1243197582812379
Ni 4.022209984203873 0.10135232958436707 8.525667506205682 -0.2207358912646134 -0.9099416909138524 -0.16485527804690964
Ni 2.7870616440352203 2.051360126638202 13.449094152063282 -0.517773896826076 -0.25396020053538193 -0.5159617833180017
Ni 2.034946602849558 9.283853380341807 13.244229967740525 0.259182882386902 -0.9245748674459947 0.18521147310575845
Ni 5.7319819340538025 -0.08217427381315072 10.397971095499445 -2.4066672301645906 -2.4129332656789604 -0.11679853174899885
Ni 7.774724724740865 3.000088229377192 5.05368150134512 0.7160231769523991 -0.13102958774671628 1.3341454303912508
Ni 0.16214466159717647 8.888012797149209 11.827323796088095 -1.207194383589282 0.6054829674082863 -0.6925790869968459
Ni 2.628372411454158 7.976802668567698 11.012923254710575 -0.003022588876407698 0.8234011867184464 0.011934546654056865
Ni 3.476259750445092 2.473854988829726 3.8222991163183124 -1.4934370983074536 -1.5771635300928322 -0.7353923255076302
Ni 6.620445316039205 5.529781289934127 12.189946578463124 -2.6800554575175974 -0.49509213895784404 2.2931229436868317
Ni 0.5223049434797069 0.41147543204589926 9.58825298606646 0.27633882534089826 -0.053953057177687724 -0.2760557468828407
Ni 6.298111646743073 1.3632946383161035 13.532214161979722 1.1333127058084678 -1.1787001328043314 -0.8201312577179231
Ni 0.3760867798934318 8.608123990692368 3.816815357076678 -0.3762848043089326 -0.5710414979009649 -1.106073153366224
Ni 7.036097277283767 1.4592368288345414 11.130191699973373 2.68339583474474 0.9627585776045678 0.46973206292650066
Ni 8.160815353894552 4.0750371795144185 0.9248591203875808 -0.25798963340974923 2.3531432901045215 -1.4200598709668835
Ni 2.5585276293748227 4.369744405952955 8.69018028345471 0.6567798179100495 0.8197425069199366 1.3061507449505376
Ni 8.444224714907552 6.051031010895392 11.129625390929485 0.5349007863143497 0.9614460294407313 -1.6487566689497861
Ni 5.442890605633809 6.935133813242868 10.610033067769997 1.104481383399072 2.2802805405065247 2.114883531023532
Ni 4.504337188716646 8.034349105910632 12.953801206128553 0.4139887466176096 -0.9462220134021252 -0.2769183519934521
Ni 4.35880520292188 0.14135545659610305 3.2434991826204884 -0.5390937413497748 0.8012318497102587 -0.4040195512200397
Ni 1.6736697483021652 4.23649188792646 4.541852331328907 0.06504248222262991 1.2427781942311629 -0.7868922931591351
Ni 5.774521181733744 1.5753868137356628 9.013445531128035 0.8330065710186944 -0.13497725954055464 0.3341955884483664
P 0.23059915497377023 5.354149978456794 8.158058372699232 -0.05813727046236439 -0.44214695421938044 -0.0799718498389526
P 2.4181773713316184 4.03657535695046 11.062032631148005 0.02999191837639996 0.15790995707732805 0.1691251090668571
P 3.543254110336865 5.9063201732142625 1.421492331059506 0.16925315000428914 -0.6282313168483955 0.10231267942799797
P 8.714986507273752 7.313220607909626 5.092720015285437 1.1325488310592495 2.4311950401026254 1.618258243250613
P 4.35331200519618 0.6303453828723735 12.410503186391976 0.014857633838122799 0.42333779193267734 -1.0032349404520593
P 7.903862063715117 8.028808715764608 10.270480771994496 -0.3018912198887059 0.6986119234544872 1.1383461544673168
P 4.3848837343928535 3.2872824225001667 5.621457285655287 4.442576756486066 0.5496815441679501 -1.5630147493962758
P 0.7750392312821875 2.010425421249273 7.230657468553006 -0.0940201004019026 -0.8076891752998284 0.7366853332874409
