# total energy = -340852.18643254647 ev
CRYSTAL
PRIMVEC
9.47953943943876 0.00000000000000 0.00000000000000
0.00000000000000 9.47953943943876 0.00000000000000
0.00000000000000 0.00000000000000 13.87426417614581
PRIMCOORD
 96 1
Ni 8.735888327389896 4.221845505234293 7.339264022272349 0.7069764933690985 -1.5512712357071028 -1.885047477229863
Ni 0.5799070199758081 0.04635968655604923 0.9274819091132765 0.19493564237205782 -0.6482010751021029 0.3138746175028272
Ni 0.008336306790182945 8.812833747239695 6.471026389423124 -0.3614672796801258 -2.034193314961316 -0.7918195552574233
Ni 3.530986166410387 7.3683510404154 13.671852168878608 -3.532347359128465 -5.995821056759139 1.0413615721204517
Ni 7.450567084071592 9.343062293978488 7.536125613256805 -0.29360121196577177 -1.338316273939489 -1.1733879765627986
Ni 2.8426199464013755 2.3924366288373684 5.228280600604194 0.6069438682245288 -1.622167862717664 -0.8441810995782753
Ni 7.502259011438966 1.5801728312212484 12.368906566242238 1.0375961915407486 -1.776122177581354 -2.1402505490334107
Ni 3.681587606000604 4.1726372171425945 6.748719063383711 0.5936772330226098 0.34848732248069014 0.0921244260410865
Ni 8.303858327432438 5.794719091256041 8.753328783647092 -1.6138488013290075 0.46091600729676746 0.41028995760978376
Ni 4.498941916177934 5.317793993552045 10.743994101717659 1.0211167058284865 -1.00682780000964 -0.2771073280758066
Ni 5.47195973988903 3.0429984464364983 10.049420679427307 0.05599322753616809 1.1565009709994727 1.1836171104899744
Ni 0.7851873897416607 3.0795041519732216 3.5409482141768223 -0.07384722499845346 1.2305302301017453 0.7870175058830897
Ni 3.659832063490404 6.899521469205394 9.046574537606148 0.33534538578209344 -0.2270402362160864 0.09512541765093939
Ni 0.14656789565205094 2.990017301735188 11.846471148696315 -0.17656691005688302 -0.8437797503747986 0.12139797819422318
Ni 2.3359006569285086 1.8205075890692222 11.384832755938703 0.3575764292661519 -0.36815189078915306 0.17886264806959518
Ni 5.429462965565185 3.310283534287304 2.229150617816695 -0.786752168036845 0.4538053643939153 2.16821360990524
Ni 1.223979145024837 3.924131096486868 5.936159504143923 -0.5472053147133157 0.7879305046156624 -0.20539694691469787
Ni 8.332069436151547 7.923615050234555 9.575656060099302 -3.8453341747097 1.763369505901376 -1.0712385621855423
Ni 3.034258311275538 0.08525992369977761 13.929344892715017 -3.6378595193303673 2.3254571370431627 0.2418024821269255
Ni 5.225652872332374 8.201849005884611 7.478270089488502 -0.5556333908760108 -1.6659771465931308 -0.6653467336434541
Ni 4.744888561244225 5.914938607645738 5.691750440339137 0.7778718348280796 1.054237142531539 -0.8420177733783691
Ni 5.214068875405375 3.400737297525791 13.615911512032772 -0.20393064678181652 0.5438816496567214 0.023549505185165895
Ni 7.8183542467342235 8.482064185231675 4.788660333593179 -2.1305106960378275 -0.6977930270976176 0.8837753169311295
Ni 4.111096048525506 1.5529665536594732 1.5859117442651156 -1.0836803874933207 -0.08747844262864289 -0.0010351261327337011
P 5.7030424674581575 5.497545016244163 8.7482088845143 -0.22379113315116939 0.53495323681884 0.4903803353044716
P 4.795139598650138 8.70215064730545 0.045146305535872504 5.364503130565619 0.42540135932992545 0.9171001563355045
P 6.233470084520571 1.5389842333097803 1.6095812057438599 0.9008384430610034 -0.7606289885872319 0.6934463200931477
P 4.969610517996643 2.9257081076658213 5.36101595262623 1.1185350332786608 -0.04306083574521616 -0.38790593348762875
P 7.265668671582943 3.3538135783861445 11.330140554408159 0.2128606022815947 1.1561898675169573 0.18039939642909575
P 2.454793037827388 5.871000943360433 5.777381961976344 1.4680788220483232 -0.9999308157794908 0.828711028967134
P 1.5601046466922317 0.10159696159175087 4.694120888950815 1.936915112633432 0.3005344487504953 1.6451067309020249
P 3.8330137655029715 5.107291345629822 13.524826411482225 -0.1585200798575012 0.3520153902386066 -0.49059630797001963
Ni 0.7368208847327098 7.573526187295908 10.031536580734608 5.1922474462895805 -1.3818257671863494 0.7709131441220595
Ni 7.702097177738541 0.21369440877764054 2.726237747487987 0.30863419503949424 0.43989492496041016 -0.16954162777898543
Ni 9.188545804690357 0.39101582556763953 10.838394197133487 -0.048420043174600476 0.27539137382596446 -0.07798592975717536
Ni 7.514999512150821 3.099430143413936 9.163896158856252 2.0901834571736906 0.43795194230142637 -0.5757108783521763
Ni 0.9876637118061985 6.403400304580634 4.471453148347399 1.0944630799311217 1.209689382096994 -0.7827242778243745
Ni 1.641998386014941 5.668167242667296 12.547260304853308 -0.5237907924441173 0.20048459721474504 -3.115457122593344
Ni 6.662969047506253 7.287158786994979 13.482565677684958 -0.07900614349157362 0.555483752672024 -1.0211203053729125
Ni 8.922777443114772 8.488595587754345 12.861927921542016 -1.625338547136162 -0.07891744043250924 -0.29090258208768605
Ni 1.7089523715267239 5.842040951042933 7.905041789040553 0.8721616439516011 -2.182561908207112 0.5821489206680361
Ni 5.6411979535860235 0.5558612207900245 5.147407807655494 0.8494724298842016 0.2796601764046474 1.7509503063014165
Ni 1.3401508981675387 0.7457591422633709 8.990717300705448 0.645105981116547 -0.18429127528433423 2.1289904027385593
Ni 7.674881420637545 4.7430400510963 13.089271918842723 -0.33320211418684553 -0.9807334169154335 0.20662207757105058
Ni 6.385417618680045 4.266920714226014 6.958540132436005 -1.5774826039951477 0.9493505317287779 0.2587092851845932
Ni 1.0478113881579278 1.1939195261578024 6.884784577533779 -0.4639105711487172 1.471181115122731 -2.496179158283495
Ni 7.553135698433407 2.7992415749300577 0.2989894067725326 -0.5864377778513772 -0.2601982110252938 1.9188137750470309
Ni 6.83032083289844 0.5989201317896242 9.68535992363211 0.45680121379744554 0.8782343325082423 0.9361144926544781
Ni 3.354401309817792 0.41463125367282916 7.024234287185434 0.31803517663842 0.6958862969932079 -0.3640448105993149
Ni 6.257282687041538 5.006950422984739 1.1796575594011158 0.8730119077670385 2.5071479985901726 -0.9665434985682966
Ni 7.183139803132485 2.042129736496658 3.9132220427523414 -2.2311099923191446 1.2596947674808434 0.3196089488834431
Ni 3.98881947212504 9.361822302095126 3.8737359700848093 -1.231880830592369 0.16320257293483506 -1.2362249664936773
Ni 5.443796028866022 0.9672447843260369 13.214903304173191 0.4945815178700127 0.599729866974593 0.3036102594623416
Ni 3.8929528919918583 7.30678143318065 11.491289877288615 -0.3643510289858241 1.0467984268653068 -0.7412004475489751
Ni 9.104139987474312 5.936305489047913 2.693091590650878 -0.1382299621498974 1.2650372627396795 -0.040722160309710514
Ni 1.6281013815182293 8.15024239437022 12.23643474541052 0.9685451023793578 0.612486652419629 -0.4804499635646371
P 8.884451666047783 6.375975997616795 13.175971784550036 1.4944064041992586 1.1548500656596112 -0.41130117248311737
P 5.67357058002277 5.969900976044056 3.3008817272887785 0.30901857496210655 -1.1290593298487523 0.4910614205318963
P 8.632627706665012 1.1773966892971146 8.715202076903726 1.5853278110711795 0.9010862974057513 -0.17227651021164525
P 9.496507595334743 6.814224575302658 7.323363991138424 -1.6595864125754387 1.0311000422934435 -0.5966237172454434
P 2.25115357630054 3.2808116468519177 1.7695370546365015 1.0052134043346688 -0.7196669443525734 2.8457957092726214
P 1.5299123142761153 5.299090862670727 10.269980170508166 -0.09837092117143058 -0.4568906881874583 0.06352064626146481
P 0.833443932095658 0.8696643035018554 12.728194374040099 -0.11708083887610804 0.4063564268833324 0.6374420368133861
P 2.6306384903608127 9.073274607773566 10.421278356231063 -0.9096012768552979 -0.6302110662825857 -0.12172862206076455
Ni 6.7825723938466425 6.026323193482274 11.450124978225196 -1.0973339737210135 0.8548105542676634 -0.8507952624606833
Ni 1.5224519169098725 3.4932481207750468 13.803394046912828 -1.0288642109843895 -1.0403935517802276 -2.2086316087109705
Ni 4.745656403921055 9.367472107470324 10.343374554966106 -1.1917068294766444 0.5733179526399674 0.930437753984675
Ni 2.1209995028081456 1.2277235630167884 2.8957110537576396 -0.06618379491592473 -0.33891022031521634 -0.37066694390152294
Ni 3.7410337964500435 1.951969838973995 9.419112845325907 -1.6989957676109964 -2.7767613322817795 -0.9208544811716141
Ni 3.041500679239718 7.934952579141832 5.5030327214986965 -0.47457242173793757 1.1758806610776653 1.9742698991328065
Ni 9.058097865482138 1.0527123099347353 4.657132674867787 1.1428083040037285 -0.9235076025237451 0.2113577924838231
Ni 0.15530044718163538 8.522579735858514 3.5535038638738854 1.233624809866669 -1.4405538771551771 -2.2853949789149546
Ni 1.9502635219143714 8.12915989914465 7.83819587027588 -0.13628672238059755 0.5240712997990136 0.12838469392470148
Ni 5.447635242250175 7.4259392411776926 1.6456129343195767 -0.24396760809904436 0.23181888855165236 0.8979570077481503
Ni 3.9463321773404143 5.556962768075943 2.0104917743494717 0.9861373615398243 -1.2441434500098056 -2.572240874434764
Ni 7.492182261247966 4.1901080079252955 3.059192343286248 0.5727613088055491 0.7152292202961941 0.5264428853549836
Ni 1.9818114284389663 5.529851285906369 0.775714486198984 -0.6908227664273716 0.9879510177097955 3.273434442573498
Ni 7.090913366059834 2.09448523160944 7.023568823532181 0.16618171016781702 -0.29765558454080354 -0.8148301572199838
Ni 7.739503439501177 7.769676812838853 1.6286995404430193 1.611296467220799 -1.4470415417620497 0.4973750214547498
Ni 8.621147984669433 4.944025241641511 10.808884391541222 2.3944820009523085 -0.14583219997718755 0.12831913079408866
Ni 0.9209305995582443 3.235385694909051 9.361770164629416 -0.7407651597837693 0.23602495621319997 -0.28695671006606066
Ni 8.603753030200494 5.452678357115285 5.024273332955606 -1.3538822466985456 -1.2300556044581719 1.1301746744001182
Ni -0.04680522489939538 2.201708299728338 1.5430263088332443 0.31039694336687185 0.31166269745317293 0.05483623111358943
Ni 3.197657128812931 4.040160656541268 9.192906392731617 -0.5874767606388527 2.0895720488419367 -0.12143731607259084
Ni 7.402951358568876 0.22431433656595298 0.3973244589186365 0.6062370719654914 -0.19571751484340488 0.19369379954515675
Ni 6.067511791393742 7.624213283505947 9.885273926245445 -0.5770398815762449 -1.878704565730971 -0.9452557928341141
Ni 3.2829540227156673 7.043449313184639 3.513574148770851 0.11185789991427188 0.6097723388122595 -0.5691931318383164
Ni 3.366895342509925 4.7088663122077286 3.966985249439313 -0.5563571564159129 -1.817393011305683 1.7014781677132182
P 8.772725816799323 4.53275543257614 1.233044428381048 -0.12298203485189142 -1.5101253575964122 -0.8032169984610876
P 2.3199371128818087 2.759380112509408 7.481627742280273 0.05326605841299214 -0.5704653136825207 1.808507535890595
P 4.569460208436486 2.275734021498339 11.951609666140708 -2.5395330997890975 0.6940104201267338 -2.7660817410807463
P 6.847924337230223 8.824540978176557 11.572620531981649 0.7250420926215578 0.09675832526867208 0.5394878914643999
P 2.3474562152378478 7.8893465159537834 1.8168067769576832 -0.8684613122818785 0.428513679706662 -1.0313903198403527
P 8.65716075416671 2.93358560475775 5.292130037021384 -0.5930727666693916 3.0549305259631967 1.3661731482507569
P 5.849956366291743 7.735550471646382 5.394674952535149 0.006320285791072986 1.3677821446090894 -0.07822375679959431
P 5.150745553414901 0.6254912802236505 8.24455906984091 0.6136153667074336 1.3413632882959285 0.1884513201992948
