# total energy = -381164.51372658974 ev
CRYSTAL
PRIMVEC
9.32423301332149 0.00000000000000 0.00000000000000

0.00000000000000 9.32423301332149 0.00000000000000

0.00000000000000 0.00000000000000 13.64695752292332

PRIMCOORD
 96 1
Ni 2.1451890165165532 1.5486339058625993 9.761941525639562 0.4947249854264125 0.030805929637263075 0.5161631006955304
Ni 6.322697207656755 3.344956740270684 12.86807108852007 0.5300128620944291 1.3474930553427502 0.4501464274850893
Ni 7.891079839263194 1.5692870822188805 5.024059045613025 0.4979985139713617 -0.5018024610984843 -0.19588206544572714
Ni 5.550315033097433 5.0274493367747155 8.494808082454794 -0.00783440844275425 -0.7942965560430063 -0.9975309480887465
Ni 8.04128391056041 2.3244101012768597 2.810113134084636 -2.4353939086753216 -1.8429826868493293 -0.13438307759998147
Ni 3.3479125221690778 7.699849142246955 10.396429481464 0.5243957730179678 0.509457920761213 2.238074596562436
Ni 5.410209106266968 7.027777067570645 3.1145083187603064 0.19051514470685899 -0.32597294342825794 1.0309835713202373
Ni 5.5914815223132255 -0.051005420001864026 4.255121242767476 1.614754600972729 0.4413211158839755 0.5255111175693337
Ni 0.9650021823101378 6.487279246421865 3.274314485322397 -1.565820337165871 0.5975971369023063 -0.7773511864379193
Ni 6.74945803323266 5.7178621779940535 13.331235585035113 0.8615923530761872 -0.019873341885159324 0.2175973456356317
Ni 7.080701414748185 3.800725255076562 6.441541085708336 1.6356391577312217 -0.011811390812631271 1.2760161303486863
Ni 6.853805526055749 4.76805849566619 4.191499202933701 -0.848119772511049 -0.358484285792402 -0.28335408031646686
Ni 1.0746458395442278 8.650436060156727 10.232680096716324 0.82450007620958 -0.19197681685405002 0.1690513184061282
Ni 8.388770106167419 4.914756655311052 11.373606314956257 0.8139572676967273 0.04834342430039416 0.602949145242839
Ni 4.114560293360856 3.8371643581015493 6.08051144149749 2.1058373616608637 -0.051178322646027986 0.34252776246314554
Ni 0.49449485221470063 2.6156991438819257 1.4708828555851794 0.5850259851055151 1.3425151425121846 1.6628434860601553
Ni 2.1539071744818457 3.7808553143021895 2.9033769110004055 1.268253455684132 0.7662864439833255 -0.12700606840961998
Ni 8.97660705885608 4.483604115936588 2.9484250784632056 -0.21748601686874802 0.7988021572228436 1.0522383669339557
Ni 9.020337712179312 3.1077762224491394 13.121249193102098 0.2972609202055461 3.026014871370111 -1.9661871221246716
Ni 9.538783722004116 0.23957591330954883 6.081862522876282 0.8980421112627889 1.2774338366318194 1.3254864691646722
Ni 5.338011569234604 8.607768369408943 10.492040167855562 3.100290699265551 -0.9836017396021641 1.9148709883491992
Ni 4.049533091596204 0.39321503208742065 9.217933130721871 -1.5290245084937601 0.5023398216591929 0.43253257105806797
Ni 8.354904491482989 2.389129603348619 10.882984749178757 -3.345894043195805 2.282330738167334 -1.6588454206443561
Ni 6.269446512320087 1.2769630497377207 9.559215914035502 -0.07114268158309683 0.9334839970101665 -0.6414488439799341
P 5.530463740789296 7.918567678494939 6.67651455755086 0.6653932706106734 0.8903956504611247 -0.7673403391691366
Ni 3.207060656689176 -0.1599096655496998 0.6957966534216479 0.9370177211950379 0.21851317258168174 -2.522526023708139
P 1.768657834747098 3.236404018311396 8.235038677481679 -1.9015634726070152 -1.2523434693220947 0.6866655497258884
Ni 6.550954434384413 3.9167373635302187 10.399281764374784 -1.2147475133461918 -1.3208042331976544 -0.10560909079108263
P 1.7824576997616788 0.5184982255302647 4.709496717145531 0.9544266607001046 0.6115852236512822 -0.34443037880249716
P 8.808910726229573 4.72994103067997 5.2192376229314075 0.7747541151347044 0.10205762599439842 0.663083134420258
P 1.7779634193988219 8.311350998588999 1.9064802568869748 -1.2995664068648005 -1.3835023835578237 1.1708089029817126
Ni 3.5033008670798784 2.3969246622352336 4.574173189481268 -0.25212263310601096 -1.1644317958107753 -2.8135612747189485
Ni 7.484860299246154 0.8025982844013837 7.371677163120487 0.4096744355129719 1.0486714755183038 0.4769478639486496
Ni -0.0679447543072617 7.492981706291897 8.168523328111402 0.8596182600689517 1.1409967047162866 0.0063765929503051474
Ni 0.21098967941650754 5.242494125174224 7.458731000779695 -0.08519890256584682 -0.5408492905883008 -1.2834124228127575
Ni 5.901279167657442 2.291812582296472 5.549698701288335 -2.681075928362312 -1.3875531565884296 -0.8191346981326086
Ni 3.9876481563923036 8.82285977897404 2.7556894502217277 -1.0855562643597951 -0.18083365575303695 0.7068728779116987
Ni 2.50000405935428 1.859727619610212 6.550130172176785 -0.38037208700442876 0.047426568913079614 0.5511208477176379
Ni 0.45265795063772657 1.2795458623113956 8.366677268217725 -0.9315708391478538 -0.40591342580864287 -0.37329409711172484
Ni 2.934597240749271 4.755825101815427 7.5601693328699815 -0.5713114637329 1.9682661161408876 1.4594211463733253
Ni 3.840866078649379 3.042208215163645 9.227172513318457 0.7100157944160546 0.04744430952489249 -0.004675293988482271
Ni 1.926899394991995 1.1104975158827834 2.4415905361401964 -2.0872629410927863 -1.5584088751931482 2.151171823931605
Ni 7.886091374545085 1.4475405703976785 0.25275012228191435 -1.3898342393131224 0.13791114535789797 0.07583931572781778
Ni 3.5749482743582823 5.42409288937961 9.850851818112558 -0.5479676468006369 -0.6741298791527228 0.9907440070739003
Ni 2.7731667927780315 6.988335561481674 4.339350770215256 0.816240150193633 0.25943639315860484 -0.6921936786329692
Ni 2.4670801922147634 6.848845034036994 6.606915684288473 -0.7366256836940992 -0.06830186970019204 0.9682028885485906
Ni 4.315786568279547 2.187903328429927 11.854361909671645 0.35676473199813397 -0.3479905853499297 -0.046759624753042045
Ni 7.91797092757539 2.8925076524548 8.563028834062347 -0.026144776716167877 0.7270398397778769 -0.036215530688608596
Ni 8.148960154606609 7.293070148242839 10.942458437698352 0.03428077555974096 -0.8044017627978083 0.62356553594161
Ni 8.282324660892789 0.003688666621464921 10.10970744824011 -1.2743654821191408 1.8718674882044795 -0.593135758696843
Ni 5.174651005007948 5.268340899377208 1.5844389610355651 1.7425199161458764 -0.004907464603946387 -0.1968140903416933
Ni 5.890537651105552 6.100127763131054 10.465387779911184 0.03392879153696093 1.6513023181897752 1.0492636005763478
Ni 7.645293054273771 6.970498303527017 3.991666900866144 -0.10003545335804707 -0.21610764846398264 1.5432488796232582
Ni 2.697864286117388 9.506521875415975 11.999578448674063 -0.19801659529022672 0.06415776562483144 -0.44712692393247516
Ni 2.1748214293654295 6.978367956278574 12.35966727776331 -0.7490693087740905 -0.016617553952022995 0.47820667605641515
Ni 2.3720009871109267 9.080115370698554 7.619423901911304 -0.687246876150655 -0.6117070939411272 0.8154989011522342
P 0.07626942963497627 8.807493442795643 12.334283917946285 -0.76931057552163 -1.9580747774301825 -0.15158761440372603
Ni 8.971115085549602 6.663395361553891 13.465766552884348 1.0626917010567958 0.3563638970152895 -1.6388147272457259
P 2.0939150586008917 7.230411301690148 8.947355074718416 -1.6911557027412876 -1.550172346215969 -2.8261550522235583
Ni 3.034478425908857 6.308067485894677 1.9005435176607695 0.47088751668718254 1.8692637320330452 0.2084267348799572
P 3.43140170550729 4.3403745710116075 1.1157573157846246 -1.661360730867042 -1.9334243258713542 -0.29617668600243185
P 4.476508374533822 4.419005828895362 11.67928451410896 1.1306696117586656 -0.9237999369531832 -0.6965223879153101
P 7.7208379909954825 3.8375559758925037 1.2785276560549146 -1.1390298107979029 0.5330902154681723 -1.1767216689217217
Ni 7.0765334825444555 8.202723682764766 12.88199123614187 0.1220312409028479 0.6569842206113718 -0.43595728046890075
Ni 0.1899281016496598 2.8356671273677168 6.476054734594466 -0.22600562430398496 0.5314567936298072 0.6008606381449265
Ni 6.709028158433187 5.966390287520155 6.673334994057636 1.1298239759289188 2.157353270151968 -0.14043545444164846
Ni 8.942088747853393 8.895542176128538 3.6643723320760766 0.6696782711392725 0.7372849145446528 0.7011354612072892
Ni 0.8914461045124878 1.033926913518097 -0.01927412227813483 1.8281132259366644 -1.8763743749358974 0.963568732210689
Ni 8.828659451973412 9.245499293511807 1.432739282746229 0.48459612452252665 -2.3253347525326853 0.33067909065467566
Ni 1.0424585868210303 5.227295625191949 1.3139466879767967 0.022976663400831394 -0.5893973747003334 -2.6744213991602717
Ni 6.579262806130539 1.260645641781291 11.948675595236496 0.5687717280301818 -1.1852929555305005 -1.122649055447034
Ni 1.0696760232923552 4.860769345558065 9.714259262320939 -0.20804955404619652 0.25746050037915663 -0.02559301797775592
Ni 6.852239054891932 8.159627077293555 8.474337661067626 -0.6412904640251987 -0.7867763364065612 0.36262916119871097
Ni 2.5395481320075475 3.4861815750753045 11.256352218651289 -1.4215446830425258 1.3219879690931102 -0.6081234903549269
Ni 0.39820909134539995 7.414742066199096 5.462303596697009 0.21165064113389356 -1.9214877223347686 0.2461990685327244
Ni 1.8051622074039109 4.722658804614843 5.322150116277642 -0.4728307564564825 0.16577650430959834 -0.5449810533684872
Ni 4.334882597705129 6.962451490346217 8.249913626574761 0.14758183567844263 1.3838679944273586 -0.45965359564457614
Ni 4.971270832239007 0.7764139729595289 7.303756651819332 0.5656216124369743 0.5277495199815492 -1.5021978752192193
Ni 5.5986705060471715 1.4161645259557434 0.48064463634128307 -0.591300248150001 -1.2030178836140895 1.029465334903498
Ni 7.851041582254674 5.869921771681743 9.133431335667048 -0.019741701403301486 -1.0968020124769433 -0.45217194255555027
Ni 2.240687812110698 2.942457569267711 13.443495622082102 0.3837340614981262 0.6739576152409168 0.7832580388406575
Ni 5.606400295301961 3.1293338494178626 2.5747443147579108 0.3308886355623205 -0.20272119985474765 0.42904204140630625
Ni 8.129519128555664 6.53360203655189 1.9304575223498082 -0.44362713830933276 -0.17574724236906505 -1.3677854870431991
Ni 4.641696488451598 6.302575512588198 12.511940396389399 -0.6370872245771286 1.2057224270294462 0.37122050241214777
Ni 0.5693656468819829 2.6817333628233175 4.1259806140837325 0.9582480913287239 -1.2892871364259797 0.993305082932857
Ni 3.6620552601462633 2.010976005016639 1.6705100245241409 1.2592749063346056 2.2558144370443602 -0.6753498676027531
Ni 0.6082588880636172 1.3873712940874836 11.50959839013508 2.9862944128520374 -0.8342826095176407 -0.5630551372613787
Ni 3.6462227123119675 8.736713189197209 5.633887202110395 0.09595356997918959 0.8430235889350643 -0.4271437959423289
P 4.581517887908285 4.639495969435759 4.078543578096112 0.09364317667845808 -1.8568311626966474 -1.4529975022351687
Ni 5.494789224879981 7.54772427892744 0.8284142886350792 -0.4040092668073945 1.0983819553695535 0.15506631698094586
P 6.845991818702898 0.23687748024521127 2.4055495778693468 -0.15981411607857635 0.2380072767505514 0.021140124412724882
Ni 4.682629871839442 6.216391625878894 5.372152248796014 0.25338041677251205 1.1260202859121125 1.3373842490435226
P 4.791993802079992 9.420365961406027 12.475229958180678 0.3030605576064587 -1.1136422239627335 0.8014557927956067
P 1.094553077251072 5.015542291083081 12.462278598379834 -0.6117767708367979 -0.3322315227434601 -0.09021615327478011
P 5.640890633605295 2.9787661330290467 8.061667616579582 1.3774888303738921 -1.6754760872225016 -0.9167173190747889
Ni 7.5727318721498085 8.51353766951884 5.703650181875658 -1.6761921394529198 -0.7799068629802375 0.564777519269124
