# total energy = -340872.1838250752 ev
CRYSTAL
PRIMVEC
9.23765083843975 0.00000000000000 0.00000000000000
0.00000000000000 9.23765083843975 0.00000000000000
0.00000000000000 0.00000000000000 13.52023575811201
PRIMCOORD
 96 1
Ni 7.883993105541856 3.593603174289426 4.558076726595369 -0.12276683351729178 0.9582208376352144 0.19389820224647897
Ni 3.3935803230184307 0.32475700155696074 7.55595950927073 0.6876942481007189 0.6264004342872437 -0.4557059238507377
Ni 3.4968387828857552 6.0555664211207265 5.649822935608064 0.15882089892737164 -0.8937038888987512 -2.766354020905526
Ni 3.193603660001088 7.207501467234113 7.356238729178628 -2.1298833468664737 1.3637568254997803 2.5866951021868805
Ni 1.0924261001064708 3.7836678380727697 0.3991228612339984 2.4937188696684602 -2.084604420424016 -1.5026069377321798
Ni 8.431092970065237 5.318161713895007 12.15014898386747 -0.38195434388988414 0.4770553360607913 0.3800620119631777
Ni 1.0082895772516132 8.884670858591406 11.479964813478624 -0.4462573768433282 -0.30294408663325245 -0.30392419115833463
Ni 4.693502533837001 0.8063563798095169 5.631515759390041 0.5744361254048107 1.1602820353084597 0.1410671744883764
Ni 9.151685152961152 8.779472492070642 9.302179416074638 -0.02574728416743308 0.41097901325700825 0.016569988543539204
Ni 2.926284523157229 3.690201287979945 10.151533364975089 0.3567930141329081 -0.8206843020079158 -0.02856881277662822
Ni 1.5478145681758504 1.6883469487413914 8.193844233879824 -0.25858458668127077 -1.3669663335760134 0.8817004366799719
Ni 4.125322350346255 6.176681259850419 13.804025638907403 2.3993544985532615 1.530075575466094 -0.060105964152961
Ni 7.220720545429689 3.0497364875217783 6.950036132424651 0.03687090488442037 -0.7960811587472548 -2.7388625003534766
Ni 0.867081000652588 0.4523308056775309 2.1043165136128956 -0.21219931454851199 -1.1120057168005753 -0.9372174959106697
Ni 5.919283359891289 6.248245340060848 4.58838915370296 -1.6843489642320995 0.9892113724794576 0.9068237141101609
Ni 2.8864887238095434 3.122981820165187 6.549769650030197 0.8137806329095468 0.36414868316703086 0.8357157424197413
Ni 2.001725012128324 1.0894053883175447 5.564888279730077 -0.10258470214246204 -0.18516185081474562 -0.4055969230094886
Ni 6.23080465548136 3.61435093783049 8.811434763598728 -3.2188602068720438 0.4966700249679253 -0.20499328371837597
Ni 6.791788709052922 8.628252149609725 5.208305723875844 -1.2271649131739382 1.159164633874565 0.688196384548118
Ni 8.179034432228429 3.82394399525845 0.7596831494928539 -2.207001786417031 0.36978659817909865 -1.2395481173296392
Ni 0.41331466405151246 6.503250688480735 10.206763431163562 0.2143143040089857 -0.5691455664298327 0.2599215603251394
Ni 5.268481628265515 4.61070547033809 6.332729198583177 0.34405165530683973 -1.0502573319481847 -0.0481881296694525
Ni 4.606317586241025 2.047746988068476 13.302384253629606 -0.8439021348852758 -1.025542602810324 -1.6139439321459754
Ni 4.335183299645404 8.431471713745193 4.0032874416037885 -1.4784208274042796 -1.4901052057207436 0.24640012879993695
P 1.4272909390929205 1.7448813712130347 10.46256691260658 -1.2294364828169344 -0.348449013043587 -0.6956916644838986
P 2.053899263455096 8.555062242870703 4.034465436584842 0.47272996921256005 1.3920240478755896 -2.3395969188786543
P 3.0259957251439804 2.7533187508763386 0.9506078385592219 -0.9082869289192487 1.460907758221181 -0.16846793509883243
P 4.901479002387096 2.495135650605103 7.292977449444916 0.15649122235293048 -0.09405455318426383 -0.0946901298857337
P 4.9555931603673065 7.921368640398109 6.679118006856126 1.686875587308695 0.9605973082871908 -1.1673134882339447
P 7.160426399110667 7.970947111869565 3.101420219594752 1.1284965153667468 0.697315830350883 1.433781334318034
P 5.425290749418479 0.08651891297829487 0.6663376126246007 0.048687437903374216 -0.03498320094340427 -0.44375646479834546
P 1.3099820124642605 8.755223658902658 7.493671877924032 -0.04242140238900436 0.6238079909697192 0.49404827107436206
Ni 7.932629336638786 7.70032089606413 11.565925772352788 0.77902008949991 -0.47240780998645093 0.9428919205876278
Ni 5.273137404233767 3.952883124157012 0.9206723076014428 -0.967340026327663 1.9727701746588282 -0.8583627903952958
Ni 5.044394696841148 4.201569919477128 3.309253504558521 -1.0648503992710112 -0.1142899063945322 1.2745714274823596
Ni 3.331032189921127 0.6559230851908538 1.613667008939511 1.4616109549357925 0.29358424268490724 0.4159209306433159
Ni 3.195663656114025 4.439143820968259 12.643300044358718 -0.09989352846354409 -1.8046668219882662 0.045228789930812426
Ni 7.387358526960077 8.802834510768482 7.689282827206064 -1.7380767927728584 -0.3978784713193083 0.9028436464164902
Ni 3.826853855238608 5.202413950239829 8.2168552218499 0.44712718104279126 -1.2968783185096762 0.5117109784614478
Ni 9.158123795520423 0.3508274994490313 4.339116691326519 -0.124858683049314 -0.6536340731922162 -0.821026772948999
Ni 5.93313059833655 1.1166656956237244 8.973664538200445 -0.8150702982552478 0.3872454170854944 0.5101657454615148
Ni 1.410312137049966 6.437062920995552 3.6372270560998983 0.9964397719070969 -0.8579848382305868 0.35316878711675953
Ni 9.58997472952808 7.797186901625838 0.06415271302921922 -2.173508539755592 1.5657725146470711 -0.10014035436702753
Ni 5.494000395553134 7.49282478535203 2.049005156097992 -2.386785917859631 -0.39121391481493917 -0.3205656563697576
Ni 8.17094225018837 2.016616105106149 8.945339129765019 0.4577769474471536 -0.7892893326364019 0.2250244913376383
Ni 3.104266339784868 6.242508758957107 10.738757889212165 0.09423581595713447 0.3287499919527629 0.4252216392189515
Ni 6.503481629749001 2.066527132003909 1.1126704116827137 0.0970102933784781 -0.8337727597607576 -0.3094608047058477
Ni 6.7019617933479765 2.8321251492596047 12.257404575205953 -0.7062570987045708 0.8500141613202845 -0.6363917411720008
Ni 1.9767648798540791 2.234763227110701 2.89560166625534 1.893842192703358 0.554066046388891 -0.09112735223513983
Ni 8.37005981168776 4.805998644434987 8.337929414916376 -0.5466957220667489 0.897058664303597 -0.5643090642731378
Ni 7.560582953461426 0.022768961520932447 1.2541856782859968 1.089979076017839 0.23571282428941986 1.2008285892722543
Ni 7.058174843172984 7.250271790117073 0.35287641038109185 0.22006971843552423 -1.557362179096189 -1.5877261361000268
Ni 5.45746548691337 7.2666131942596115 11.794161332720293 -0.255285861325341 -1.0846772041889514 -0.8330981022912362
Ni 5.714918812776883 0.3850622330568598 11.922143441003158 -0.4768419344984045 0.3106568818964779 -0.3718738197254305
Ni 2.1925009750179285 7.941137212961723 9.394535600549638 -0.19047349283564616 0.9805567821282533 -0.026108781271909874
Ni 0.661586688853822 3.5480430808858077 9.498033315570886 0.9907206100351326 1.3134915015863249 -1.005877263170913
P 3.848091214268397 6.116368638229935 3.3672012875919557 -0.16551990821410204 0.2211092154436321 0.3019272153329639
P 7.41479434963014 0.16663613400024188 10.440257986092034 -0.8993849984439285 0.9437781798473229 -1.651953835730845
P 0.4633864260719856 5.659151115315885 0.865878258527456 -1.2950996293426984 2.2540496318344534 0.8141920094153526
P 4.518024120557372 2.2758338222592185 11.008933307661943 1.4217837956365258 0.8656927483978059 0.7633512726144015
P 0.8298698959793407 3.2572972617889935 4.217367225991631 -0.5262012016578228 -0.046297597514958974 2.807591430288758
P 5.007139251444392 6.430938358561123 9.609885561912945 0.5756147190939441 -1.2759199710904543 0.3460712568400298
P 1.4877790760772867 4.863290554266545 11.358363150555427 -1.301424800229778 0.13874855365752878 0.08817701135756427
P 7.506034625896875 5.293681939458756 5.925486442356928 0.364612767287643 -1.0401819499900538 -0.012280360029249818
Ni 1.7362811183827898 1.68315538903076 12.541587043458634 0.4859616374114856 0.17654222746653467 1.9724870962007706
Ni 8.201768290676583 2.049095685075152 2.707575751988253 0.8832114740078595 0.28068578945568434 0.6068541367242001
Ni 2.862637109622977 4.133008075754165 4.403337762971145 -0.10323724812479641 -0.2364543304411347 -0.8298453996818935
Ni 8.790289781076245 0.7640442444027987 6.539818852663129 0.9498855782966416 1.2527533031660039 0.3744073847805616
Ni 0.6716529568550229 5.113963444493753 5.569985615403255 -0.028951907147659814 0.28829625481309057 0.18404650626337982
Ni 3.314395180955207 1.0025068078942196 9.840663323761529 -0.28164789625863756 1.046404533860998 0.4429362828898952
Ni 7.183428149430012 6.837062435283889 9.585996073358382 -0.18909075355550659 -0.10560240592286328 -0.34817390500532935
Ni 5.8931500459742505 0.7268599289166704 3.239056596656231 0.39352533655693517 0.6001006200504503 -0.668091643378443
Ni 2.874378163701647 4.907880694343444 1.7000889265851342 -0.4527424703470396 -0.5891713747324563 1.3047875460544238
Ni 1.9838409203137652 6.474604733564957 13.160340593404527 1.1476041827304753 -0.6067698045405099 -1.7513035758757771
Ni 3.3318451031854246 8.69737749002726 11.731521746880757 0.9722667742053192 -0.6325029476405558 -0.7958340757334552
Ni 0.1149671821684375 4.557274898511949 2.716986146787577 0.7478585762954411 -0.1545271566480242 -0.24380922814430916
Ni 9.0265149855607 3.068858424534246 11.563289346834257 0.698641491140842 -0.9396549017075688 1.4296621699433378
Ni 1.2534753029448091 7.681263622606777 5.671996068656868 -0.5121678634932083 -0.6488312524869342 1.245921367845835
Ni 7.474118542622442 5.819664534411846 3.047217380167527 0.003144973386884906 -0.7177350174371834 -1.4779024930069644
Ni 2.738427657898513 7.585339857419597 1.9354753523832449 -0.10419781226585278 -0.062314027547873324 0.15418211460377962
Ni 4.556397321692535 8.442593845224907 9.379028356268078 1.316215071165075 -1.0562135495316196 0.18859324509379777
Ni -0.14062937589821287 7.582328383281401 2.2852987191978533 -0.09036193482402503 -1.1168509607080184 0.542919285743452
Ni 8.022012845108657 0.6312798043366704 12.43746763454321 1.3001518470546254 1.3200107907620815 1.2089229362446148
Ni 6.66005057198297 6.557069241637564 7.346787688716089 -1.6384136351525653 0.3613749770766357 -0.4990716924308824
Ni 8.322134879697094 7.038489409465946 4.856427903538737 1.5421119378053378 -0.31848331991943213 0.5778916880535789
Ni 0.4346647224202154 3.1688652313443786 6.969046293863277 -0.43630052274093245 0.0968125755453752 -1.072485547218766
Ni 4.991971028944648 4.615019453229308 11.06022905840423 1.3531343127889277 -0.1063469973983717 -0.2960535301610062
Ni 9.021415802357376 6.974546391108313 7.6149890212047255 0.9482079334839026 -0.12808824573020522 -0.11507923506504697
P 6.001997284533625 5.433798625741418 12.932322117829193 0.7371165072875886 -0.2673440780414557 0.08479601070047332
P 6.849117569487402 3.8617075114453914 2.399098262313936 0.9482819812549474 -0.5167184589783682 0.7013239230690115
P 2.3364605240045444 8.829106389446482 0.017888710639924407 -1.1619085151682893 -0.665952228437937 0.21189155350010605
P 7.5866054155696965 3.9377056640065367 10.200787594905897 1.6348241180290939 0.3708924296487677 2.4348246664354134
P 7.154828382767887 1.5972452372356156 4.848356044330286 0.7205339203385591 -1.0897420203063684 0.9139754946635937
P 1.7529181273487096 4.90391774217999 7.651560880447411 -0.810088014549308 -0.4431121463461272 -0.1600740546081824
P 9.085072453542358 1.81039479019488 0.6266369610794403 -0.1432513266238888 -0.46294974989734455 -0.8089073639776456
P 4.135705469767518 2.0051521805493993 3.833365475238651 -1.0398875586780865 0.7091740152410496 -0.10212421756627572
