# total energy = -340856.1506484457 ev
CRYSTAL
PRIMVEC
9.37002586042336 0.00000000000000 0.00000000000000

0.00000000000000 9.37002586042336 0.00000000000000

0.00000000000000 0.00000000000000 13.71397998345438

PRIMCOORD
 96 1
Ni 5.129705062216043 2.820527745471395 3.976313893166118 -1.260619593287958 -3.4350267335984195 -0.17437375906030617
Ni 7.40857971488684 5.513370146683552 0.41196256297803224 -0.926103131165063 -0.48666920500147154 -1.692584464768014
Ni 0.03614487528289495 7.073816796096953 10.602141313329703 0.30092499932069466 0.21244716889325993 -0.3765547701408676
Ni 1.2352786372443008 4.484100901006258 2.0868697019586997 2.0728755620228623 -2.5641498698965126 1.3601976473936124
Ni 3.4369067955969674 5.800177272421499 4.0976688478618755 -0.2628456759504699 0.648640990852999 1.9020944054098208
Ni 8.94648208175179 3.292280444335403 4.73595876677851 -2.1074813250221895 -0.9710570701679341 0.984445318549382
Ni 6.474566153493645 0.6296076528279421 10.169354804576246 -1.3865483694729992 -1.9804593157729697 -0.1308894626244262
Ni 7.97208370831212 5.406982871515182 4.844559242087339 2.4862454441095507 1.3659224656925315 -0.3904695804497469
Ni 6.686684802010604 0.8143789434704615 2.290220817150397 1.933389615978677 0.11768787633248763 1.676127090542939
Ni 2.2998635109037675 9.167577215173745 10.906316719255436 -1.049453862210283 0.26292435170720524 0.6041061416654178
Ni 0.1585080447759151 4.1250133947285175 10.560518720849045 -1.5331279891391725 -0.284226198508775 -0.5397378026916769
Ni 5.639331406159368 4.383682332397889 8.75711666736301 -0.3690407211520096 0.4324163571951779 -0.6114926639374759
Ni 4.8379037126217685 6.349982287839368 11.677097868765097 1.6275016162257518 -3.355508169246802 2.2140309253496704
Ni 6.6305489762634044 3.982289158744317 5.959341219017195 -0.24027061886343137 0.45570206719599576 0.2084028236205572
Ni 7.494802694109963 8.121610583170042 8.53448391267497 2.98458411502915 -0.1946530781346325 1.6796942390689071
Ni 1.9844684358493943 7.730346407619079 5.703561997365257 -1.1964775113924104 -1.6029771487218263 -1.7011554942664768
Ni 6.610225389876211 2.056149134725388 12.610539858572485 0.7107976668874016 -0.609935603863001 0.5511745837737088
Ni 4.338069045845165 1.2734052730255319 10.875583970988327 -0.32631052927333476 1.1652162393852834 -2.9976170369537085
Ni 3.8330996048222805 5.971555047904104 1.811246639250607 -2.135171848958923 0.1563575249885436 -1.4261981226541374
Ni 5.272373078044263 7.5559889638694715 2.750119496125775 0.968563614322119 0.08853953690330559 0.6269586207835589
Ni 5.477164366231677 6.800539987898474 8.833503930297228 -0.324471419182067 -0.6198968288407711 -1.0036360325452198
Ni 4.412720042962164 0.4836957339996085 2.9199530913240968 -0.7236572964588892 0.14238357930695478 0.30977782172563423
Ni 3.127499167154589 5.076830005515751 13.244097914360704 0.10818662171027175 -0.46776414056685245 -0.30839533955581083
Ni 4.036869560176037 7.850573211184814 6.3234885393332405 2.3821738730089166 0.07270077009883609 1.1811298252917466
P 3.859251347379523 3.3898505250407265 10.351655219363392 0.4472053425788943 0.13541023331291518 0.3498582346862878
P 6.679610432382974 8.608449023889 11.719446638260516 1.133289822990332 -1.1418801357625044 -0.5984689979842983
P 9.205375900045086 0.03805823459145415 2.8139855933203863 -0.2836317594578857 1.1877103067227417 0.6112080428175215
P 3.4926116001483116 8.025905137638095 4.051096070647073 0.5545211316484385 0.5444578338751656 0.31705995720934427
P 6.052540182594982 2.3073126815712723 8.71552218496034 0.13988858079924296 -0.4880863970639723 -0.1488589026186533
P 3.209449414523144 0.5674178532841697 6.952494636492184 -0.1550508903619781 -0.1579824621864763 -0.8074217805710546
P 6.889021143386842 2.093966559648723 4.549119511398484 3.184757865871696 -1.1288420716316236 0.5290186165019599
P 5.2156188305812705 4.3304980648397 13.011851512999884 0.019345751516463457 1.298807160101273 0.8042287275550536
Ni 3.3226205885132423 5.46987448600612 10.089279499409663 0.26438139586870596 0.35220488054159343 -1.2882651229193685
Ni 0.36608691569739615 6.6627256455366295 3.6611530687616662 -0.07830037567380063 0.5688959123128718 -1.378716532133406
Ni 7.73971643361594 2.2746675109982055 10.460667975816085 1.687117785226488 3.3400990337805836 3.5683024370668353
Ni 0.7033525684310447 5.714432164524216 13.25094178134881 -1.2578587427133692 0.23407965956137106 -0.9090806284651375
Ni 2.130950052258337 2.4839001915081327 6.560041404642218 -1.2588172499718966 1.0873915177963207 -2.243251255667369
Ni 4.669524345458159 9.063138905412721 12.237382321257856 -1.9506144644973955 1.569561292265542 6.612887615239965
Ni 6.003347546111456 3.768080994430056 11.113836559013137 -1.1507686965013857 0.08096943786553151 -0.4889011796557839
Ni 1.3448798313295947 5.140124531124554 5.166303446757187 0.06902023592345533 -0.02485382581888623 0.6029753704950841
Ni 5.742495392384818 -0.009291317778488304 8.006318035294255 -1.76788462016291 0.9266523188003138 -0.7003384192272906
Ni 1.186666942372581 3.9863088998969705 8.356874132901853 0.04922582690534748 0.40592756687603 0.37332906411471833
Ni 8.869469838083582 0.08441550120832896 11.783490765949066 0.4089342149128377 1.389941197204632 -0.95747264661528
Ni 1.2266207332232002 3.195581776047788 0.054046309949899694 4.321661374355215 -1.4306553870945427 0.6779155714474001
Ni 8.12848818225174 3.804923936649717 8.27864940786965 -2.3890317764710147 2.6122030166499983 1.5486903623538038
Ni 3.7618967772721272 1.4896186229031214 4.996290884062325 -1.9933132889175025 -1.7027585770875386 1.178657195381538
Ni 8.450601565945863 4.820747195021514 2.37268360494098 -0.7611280397108375 -0.5592943846673658 1.0343468313655153
Ni 0.8708370981119534 8.205088144776086 7.7283074899621615 0.7683829215010379 1.2194168937974033 1.8157426201864533
Ni 5.236851309490159 1.334554062681053 0.6896582754366309 -0.6494904833374878 1.9679897225510496 0.14623971982825135
Ni 6.283736204041554 4.558986148773179 3.4890285022071117 4.196101551473818 2.607589686247703 -0.009167782542197115
Ni 7.482771580729993 7.934584864272679 3.9551123353430184 1.5984237250231892 0.9054905971210342 -2.141393918609235
Ni 6.377389613880189 8.887844459063428 -0.0050073418927230225 1.9667813040652449 0.5009046318745631 2.386870507153638
Ni 3.564395369310271 9.405538395390051 9.031081235469658 0.7659930811126227 -0.8063012938133662 -1.3943208143295664
Ni 1.1877632354142138 0.48485761722321946 5.657140077569003 0.2713524278699004 0.3873348914755071 -0.27210807508900237
Ni 8.740491430236778 0.9015417363010704 0.7189330476586268 -0.8432575593227413 0.8989563955469422 -1.6609282713153137
Ni 1.9497056394010364 1.136912104329244 3.130284875883456 -1.2975115812183007 0.21116855929115247 1.2521421519445661
P 6.913889192382514 8.372183818378126 6.539387993339935 0.08816492717270623 0.8611843190044911 -1.0111459677690198
P 3.1170141080641005 1.3945034890089758 1.4163253425530675 0.004946031151365675 0.6712283892352117 -1.4213521074157458
P 0.4336719762101617 6.360008215656009 6.830947596263491 0.847653631507908 -3.3990803974107977 0.7641308310929033
P -0.05327421980775827 2.6517548372159174 7.218353195108947 1.862359034493412 -1.6098736187313434 -2.2027910907697934
P 4.423120771818681 4.339558879978666 2.9535109024292585 -2.98456688863797 1.342361904763772 -1.087089670285186
P 3.1416197963318604 7.291969741355893 8.610815892455806 0.6315902060182993 0.266244931440006 0.5942567596751637
P 0.09088456715656243 2.3433216914772133 11.82002449731083 -0.4206921267797141 -1.192939416332165 0.590144537279003
P 0.4012947883806049 9.249190141606412 9.637376263617409 -0.5432926099224707 -0.08742496368288814 -0.06051271267307643
Ni 8.097426546072143 1.4946222167854455 8.594757541902384 1.4076674108398015 -2.875608678868996 -2.295893821563749
Ni 7.580173000967372 5.449738300138862 11.504274298271175 0.15683806416938798 0.2977062352730808 0.14897717336407246
Ni 8.709926405435015 3.683197928924484 13.277820637923408 -3.798589976575626 0.7618322648667137 -0.9667466157180383
Ni 6.265211662645758 6.767623086571498 5.421547639924705 -2.859872756190978 -0.7234305251600638 -0.9113581116454047
Ni 5.763887161735654 1.9747610889166454 6.555145566058858 -0.5124339726704012 -1.4390718932930118 0.080644450425945
Ni 3.99204335580705 8.773192820965827 0.8703395497315201 0.8329165824080494 -0.14903039519951108 -2.021209243996822
Ni 1.8168480407915308 1.360546514796348 8.518575482537498 -2.2040887265352946 -0.04913506696375409 1.2353122248714208
Ni 8.931461930078822 7.820139366747006 5.795213032648363 -1.5975379799841263 1.3888078549311371 -1.4449280949634729
Ni 4.761313120123419 8.0814319116955 10.568514164032166 -0.12940799298289324 -0.29011068231401005 -6.0666963436134616
Ni 4.099292673367132 3.675149076593179 5.822955805619871 -1.054762161797074 1.297265783756082 0.6394161298206213
Ni 8.327292023827159 0.8506849832005026 6.331566438745136 -1.0467824860257067 0.11356511241336571 -1.174358568006184
Ni 8.981544719032048 2.4620961410134354 2.3645232493003125 0.34247145530391343 -0.18197239734317047 0.6538258774880482
Ni 5.3265880484621055 6.914751234774225 0.3668355807745454 0.40617207878666817 -1.2431553750649236 -0.8641907099309827
Ni 4.131731703368268 2.4328148097732414 12.644632698162066 -0.7988425235424758 1.4771846410043334 1.260791857199764
Ni 7.3261984463224294 5.9657268917340565 7.2508418862478665 1.038108612400793 -0.24211769937449917 0.9565686467437718
Ni 3.4184572144091465 3.19423249230424 8.257722391808258 1.5958155979763808 0.5952240086844394 0.7249029959405322
Ni 2.7494279882072066 5.550306789163182 7.415738414748442 0.3639543077680377 0.012124036957043635 -0.9942360793875586
Ni 9.36666215752907 8.16452530223567 1.1449703266865452 0.7902424405782905 -2.4419610203698783 -0.3287929293755563
Ni 8.205378615581989 7.50135234228177 12.842909007273862 -0.172098075652252 -0.855699641740836 0.0052123974388748944
Ni 2.081270174422975 2.321002289552688 11.094692658898946 0.2029536275805279 -0.035130268044229813 -0.3286098668304728
Ni 5.748557799204787 9.2767005379332 4.812194235291578 0.0014403319909523584 0.5535304856003951 0.5968779993480946
Ni 2.687679516887886 7.075540880880376 12.234282716658095 0.5604858338723057 0.28292702008137727 -0.8175596403360049
Ni 2.424306826168091 8.10349832291811 2.123650802006782 -2.2564849807488234 -0.5974084179302679 1.7056898918017205
Ni 3.8177140221354335 3.526437393996983 1.1595894412468493 -0.33240918597190494 -1.015195455248045 -0.8966938247650105
P 1.2693199416909002 6.328393747942598 1.4123889946317858 1.2039913032709522 2.636978938043097 1.0886662707436863
P 1.5579261124202448 3.174817798438742 4.369959929325485 2.094336045889483 -1.4034160917626153 -1.1846635494766178
P 1.2923889456951743 8.460786784204451 12.726861235302728 -2.378863320578445 0.6471664631900015 1.3298964253069097
P 7.68835932112714 6.056944094813508 9.42319152436814 -0.4494596858307098 -0.7605222878060386 0.16317069125563513
P 7.241006169958961 3.0012474368728714 0.98407386228403 0.23230508415945153 -0.9639919357910364 0.7031828306546212
P 4.9154406777458 5.451012623674436 6.682493589382209 0.7616954821785333 0.4188000519633239 0.5770046574629353
P 7.293853116581262 6.595992320386978 2.1976655743585938 -0.9071548721973345 1.2250010727534 0.8276041690562004
P 1.5769472651938747 5.347932967682957 11.289129131357228 1.2778434133654122 1.1660191949025531 0.6767374919788991
