# total energy = -340891.1825946467 ev
CRYSTAL
PRIMVEC
9.08337479041339 0.00000000000000 0.00000000000000
0.00000000000000 9.08337479041339 0.00000000000000
0.00000000000000 0.00000000000000 13.29443716736133
PRIMCOORD
 96 1
Ni 6.450912962788294 1.9336961066100156 11.552254411009011 0.2776822267426701 0.9938673831942304 -0.13876346605586423
Ni 4.542078053379519 0.21461744131249627 6.004924703430395 -0.20827992488944774 0.5216884013891337 -0.5298639952213907
Ni 2.832595973702427 1.7394663003425261 4.801392057742122 0.19727226092503444 -0.8613594111297745 0.11424388364794519
Ni 3.4536899017364786 4.315629516212212 4.8124001998276835 -0.5776453763707278 0.06933159651628705 0.2623422539514902
Ni 4.896838344900029 4.843973102769514 2.6039683348878504 0.35448570615597014 -1.274493780166889 -0.1360514664413399
Ni 7.220765322157644 6.00943369074888 2.7601378918338506 -0.539891811771038 -0.6813089133996654 -0.5287905596515539
Ni 4.948495498163987 4.639261081825287 11.324374333951708 1.11082789444239 -0.06913439290381641 0.6449134054897667
Ni 5.593333368282088 7.789775178305721 12.469584445847609 -0.022951723700166925 0.5023372505560316 0.25582013656225616
Ni 1.9964258939215849 6.465037610814575 0.32402941743529434 -0.7339285964779102 0.4434227356080105 0.4599451587430659
Ni 3.0340652297943183 1.935521864972255 0.3771271939641835 -0.5252740618578631 -1.0507484126519901 0.018823303354090163
Ni 0.6911658073068055 -0.11770600577732947 4.548665316883479 -0.21746930469819967 0.872737056839097 0.6522217662257219
Ni 8.817613552621957 2.335344779552814 1.415219790246249 0.10680593931266122 0.6096664093620145 -0.29503434486787256
Ni 6.7059014640061285 0.9175843693368214 4.7323938333868645 0.3318162895829124 -0.7694509577542361 0.23423392575104823
Ni 0.7095378414533998 7.090464308693344 2.547108224460257 -0.23287998282631509 0.15361775745987735 0.23936970431571677
Ni 7.641516332591932 3.553634276162948 4.136245577940962 -0.19603170364971398 0.6150109615033795 -1.914081402568368
Ni 7.6363660590029285 3.958625631082383 12.955017260867324 0.35627236574274773 -0.4978961840655425 -1.1346941595370263
Ni 8.050050203736609 9.00599366543033 6.811963491452341 -0.712359869168199 1.7719783306163095 -0.2721312150174539
Ni 7.014554544348892 0.6186495918386357 0.18993518659750544 -0.28452418936516805 -0.05960331348492961 0.849021201279396
Ni 2.104617972790409 6.330067742632905 9.135020281391037 -0.9125732149994285 0.5196356326251631 -0.03653486170124031
Ni -0.011167101146950924 5.070212722313281 1.4083064335820679 0.36845579518281707 -0.8763898231003358 0.25198739307972734
Ni 6.071391391190845 2.009215285832197 7.014251159626012 1.004635934564644 -1.0457820697856506 0.7093146545839719
Ni 3.4779606795668454 4.443605185692765 0.5335374603460012 -0.34341042217841505 -0.39263419220123347 0.07734186841527325
Ni 5.959011876476288 5.499938107184845 4.80338676687818 -0.06899426778152634 0.2041867286566806 0.5559416661450489
Ni 5.529967744724963 2.941850807438823 9.441669569222805 -1.674160967955504 -1.2354590348619303 -0.7359759659252422
P 9.443258251499202 5.54926083309012 12.576963562659616 -1.0927103589060732 -0.9252934907795743 -0.4159697816033804
P 4.001353826783747 6.163887398169373 12.689195018362708 0.8229599854159699 0.8351058767498845 -0.034297744840605444
P 2.1721982823180768 8.3758254458347 1.5500915579786039 -0.07112854051570977 0.5377218007029126 -1.9227583615170756
P 6.4547188968866935 8.019357479826125 5.861065844535853 -0.67471583356318 -0.6003448748507726 -1.010492393345421
P 4.814942636472414 1.1414532280221577 12.677881674879279 0.07989497385443015 -0.7889671734102928 -0.365452489580119
P 4.192613369446996 6.312763913378846 8.285957259225306 -0.4902314684314331 -0.6455106727541334 -0.6717158703945916
P 4.68803880523437 1.1065821516408787 3.5445763346762553 0.053117962870902063 -1.3541077324457904 0.17351681037664954
P -0.11900674506823833 5.29133840176779 3.874212011122366 1.5616101557392654 0.9440144642278451 -0.2166630067468204
Ni 1.6638381206211066 1.2467295435363606 2.7030915722200586 -1.3252578980936336 0.13465741430729067 -1.695793458623615
Ni 1.8114520467144035 6.3190586922098495 4.8963678260783166 -0.013447640864473613 0.6433869415429113 -0.14145412551414993
Ni 6.144884977802184 5.958548624354526 9.25756772600953 0.5381046379636281 -0.6015080419209383 0.4748300462746984
Ni 8.561008210665422 2.199639158001287 10.27089722553967 0.7738087205022997 0.8326394174872628 0.5368910772715011
Ni 2.685299965731908 5.155832614464867 7.018186985986004 -1.0273953397483468 -0.7427580218440822 -0.03577175828297065
Ni 0.7325714636174133 8.842901668445212 9.15788676945622 1.0566861182926641 1.6057732234097248 -0.5014203951687171
Ni 1.5181680367642236 0.8550126327491477 11.355416767797248 0.1969009936285448 0.4267545309237102 -0.49016461974923975
Ni 3.983432328034004 7.021258075052039 1.5787278058034593 0.8126838003009422 0.298416373966228 0.2870590399718798
Ni 5.646743612908793 7.973522769896474 7.894595508398111 -0.3528237450725149 0.827795202021084 0.7613237006614114
Ni 5.262362435720308 2.845685116985944 4.591739589169924 -1.4576882228426185 0.09415225510439268 -1.3096896113417316
Ni 0.5357510788180299 7.4993615148354795 6.780163504137097 1.7972075374967436 -1.405395326976173 0.17769073924868106
Ni 5.152335515114309 4.394827462283682 7.596135791409106 0.36653029602533005 0.5880100074345035 -1.6278574569032738
Ni 8.016632467345172 7.728035478862233 8.893220840581023 -0.8383436669608916 -2.014978946816394 -0.24059406364112115
Ni 4.587304177188424 0.2121849135044977 10.410847508199028 -0.374066199391059 -0.18176645197995145 0.6737596402974977
Ni 8.195002700973507 7.307502469426421 4.3846113904925845 -0.946999000777466 0.22836229746161962 1.8024204491562508
Ni 7.2249800081281865 6.26334127034927 6.920765064779405 -0.09258388217600828 -0.1678616689734012 0.10418007165403995
Ni 2.4070035244269765 5.368746922976767 2.745699867372261 -0.7726393827845468 -1.0010934686290245 -1.2031965752837988
Ni 2.4289126247738495 5.2338769719194 11.4328570808185 -0.2844532269179166 -0.5703007630801985 0.4595283829206215
Ni 1.1573309674111851 3.3453706556185434 3.6577252112479357 -1.0392031310165524 0.8843607571209544 1.1028893563216038
Ni 3.559129717999539 2.7609917290778827 2.6216627492641806 0.3726274100620034 0.6591791713801616 0.2161009635957633
Ni 0.948894762742987 3.45042897013427 8.333099975145817 0.4177700680369128 -0.3741888410118523 -1.0364538504061893
Ni 3.6205969161949327 2.4709414006051023 7.183396317668823 0.7865709052639744 0.9050856483731315 -1.1040890330566597
Ni 4.152746436850634 6.854232976719411 6.093877285846188 0.3871731690866622 0.036430989133524355 -0.4864738011612138
Ni 0.5963453646820244 7.1014097754918435 11.179053051692389 1.0426083000433592 0.8927932041590236 -0.5609537746476597
P 0.16836126278578983 5.706130718243724 8.091034391450162 -0.12275192111895632 0.3229799222382051 1.0591253238617762
P 8.615880878656904 1.5118914246830921 8.186355328033944 -0.48027847098377935 0.4825556970537302 0.09700026607614906
P 1.887888646805173 3.1658014164985877 10.43186552946463 -0.8062966658276758 0.3678032492004827 -0.21676199421852987
P 3.981860904169987 6.2818895219696325 3.8531004310949193 -0.5591612015236112 0.15484340233686236 0.8257131226810747
P 6.921486284749364 4.025769938613098 10.433514162015607 1.614493119781226 1.3494290960231987 1.9288248794261298
P 6.450104542418944 7.834674300616912 10.337155904014075 -0.9231247652630294 0.024054469846042446 0.6168071341718538
P 2.4212008394527484 8.364625644537979 5.763471339205459 -0.41041131367899647 0.42904872627452556 0.6390106668520866
P 6.830171116512584 4.01807632004187 1.6973802992491736 0.9425491925362283 -0.4172401636753717 0.6792674574896044
Ni 5.281364856087497 2.893863337649217 0.7460402919732769 -0.2148724905053009 0.05694890658121806 -1.1940141374535822
Ni 1.2902116593574557 1.203338261464631 6.9471413689200565 0.8307627692898402 -1.3454950510761148 0.11398163112549402
Ni 6.8111777795203325 0.8107711467833602 9.350682310821233 -0.28114473136997387 -0.5740553450266243 -0.6715937429944305
Ni 2.7293725009238763 1.7013706258587844 9.18837057574316 -0.6204956387670346 -1.1193117635436851 0.3730015055719705
Ni 6.593185864418921 1.8052117681330182 2.32299048130166 0.4923379732514747 0.17617301705257402 1.5493313383719123
Ni 4.163165067902817 6.778559380123309 10.505597100499307 0.17521399557341436 1.0243884346012229 0.044367213261465525
Ni 8.151475168277729 7.338613028583983 0.38964408462670047 -0.36548565681089956 -0.9906517044704098 0.2544713358438456
Ni 7.577097037542171 4.041157175755554 8.343269721724738 0.4177816380011385 -0.1392789722397021 -0.5906312471074344
Ni 3.1849582542396973 8.52947981626078 12.649976638736813 0.012499675128907506 0.007228142317323035 0.18122240655102337
Ni 9.499847677353687 4.7283508232026215 10.269806312209793 -1.827754557045665 0.4852147319431321 0.3155445490060824
Ni 8.50927839040197 2.4953665958093896 6.089995959735814 -0.08284762872485087 -0.22609149914957194 0.4459092494752901
Ni 3.6915108243243013 2.6273298668870724 11.360230048176106 0.804279635397647 -0.42088804484060416 0.3776965970547947
Ni 1.2624891990512135 3.070498646664678 12.561608117329436 -0.4833861633748256 1.3451137564772964 0.04092142080471017
Ni 3.070035394542916 8.569800917603967 7.901787724672843 -0.09045475164814744 -0.33576678959022815 0.5141589257813082
Ni 5.503389789660721 7.826762681047209 3.8632974277986505 0.009726997479776798 0.7562249459822654 -0.7041243686322841
Ni 2.783727416543979 8.547546649009506 3.5067531614406087 2.7027379867167776 -1.3204314232392678 1.605967855919034
Ni 3.501877205774688 4.3265295661360295 9.245230686170755 -0.32822702956975724 -0.5193168158331637 0.952997641563062
Ni 7.360186044058205 6.177067375202255 11.73398912671383 -0.11575440675520064 -0.9853534321859483 -1.0953912481723456
Ni 0.6048982705222464 9.002914401326851 0.13062892329950865 1.1819273814923774 0.29791423751882884 0.3113662492586767
Ni 4.739078289002644 0.29852602562604263 1.427450554598266 0.0031604000058526216 -0.26306344838823087 0.6327322900425425
Ni 6.022986086154159 5.76152113860659 0.668778921438272 -0.427149966589916 0.48255209750930445 -1.5363174426107478
Ni 8.034971801341994 8.720112606053409 11.527035328835272 0.024557634734706096 0.8004492059079633 -0.6636346360483538
Ni -0.03175911212802929 4.950539257524703 6.095539543459569 0.7179216795266926 -0.9670317510586248 -0.5535001465830919
Ni 8.376306864706336 9.009972183652524 2.2273634349825167 -0.2968266608816049 0.24329834994616162 0.9521751456617666
P 8.546429393892316 1.6091925370030353 3.749589923668375 0.9875375843214605 -0.48103514664414576 -0.6246307439813308
P 1.7090369943052028 3.3817949891139665 1.5186367389109476 0.3977396317485989 0.24454019277306271 0.15334573474541335
P 4.660171010929143 1.0578498451064782 8.40591321697441 1.0539782324431977 -0.8273658277931493 -0.47574304500727094
P 8.756718607047562 1.6751832559168132 12.516486452332304 -1.7008860426551737 -0.7013285510547018 -0.3553244000071816
P 6.477409167478108 7.869045791376683 1.7099435151238667 -0.43570531235909477 -0.038963268637074826 -0.4477293334031644
P 1.88985065579146 3.1313663421142617 6.183229536759186 -1.2639602276254167 1.6410387314802384 -0.7938424992247232
P 6.475774159989534 3.7208137918694972 5.921953523410296 1.9100301153171297 2.025983525457014 2.454709578284798
P 2.4805243611631247 8.259358412398711 10.15952959879304 0.48729269751808335 0.4911033295134252 1.5010629902838277
