# total energy = -340895.3976835866 ev
CRYSTAL
PRIMVEC
9.04504032547027 0.00000000000000 0.00000000000000

0.00000000000000 9.04504032547027 0.00000000000000

0.00000000000000 0.00000000000000 13.23833080301799

PRIMCOORD
 96 1
Ni 6.325368524399377 1.9179103412228813 11.350439243551852 0.3894956465722518 0.2327185175477863 0.010026273887750474
Ni 4.6777692119797685 0.38972907761967085 6.103929657243415 -0.11517796542644033 -0.03068843022279231 0.5220552978102493
Ni 2.856080009268154 1.5197386230047503 4.931609222431 -0.5905872812433764 0.17876880280420823 0.2647498349517182
Ni 3.4972015094389666 4.364005809665674 4.687626496878206 -0.7094894895989394 -0.09463176584397251 0.33729428197834815
Ni 4.9829126909058905 4.529982298825455 2.715194461848386 0.1253237956111906 -0.9155017015001331 -0.39314481328906487
Ni 7.027688767112701 5.914687515472365 2.483152998474816 0.9468910144446918 0.7553183750075959 0.20422066721840956
Ni 5.140432067402762 4.470058906962591 11.388048521041028 -1.3427804803584293 1.3015063041999908 0.7087739515891536
Ni 5.65021958269074 7.799800540635663 12.466946352805177 -0.692501182571059 0.45589927080846643 -0.3758700853690172
Ni 1.7993479532170826 6.78352694976234 0.20942614915851832 1.1644323100314076 -0.16850932985972913 1.2762025353278796
Ni 2.8849427328054214 1.7149758174741707 0.3096388639458729 -0.21187946931524798 -0.8281695546413672 0.8553237464586559
Ni 0.4845708474880566 9.11948096270112 4.890292382930565 0.06229191606068626 -0.22697518730610586 -0.48887521151385477
Ni 8.708501467444828 2.496892414661939 1.4168322952216583 0.15250858355609864 -0.7503803142760302 0.5575424349732656
Ni 6.905987750129331 0.7328626302308072 4.837895369085677 -0.026056844988051896 0.5162823998822141 -0.821218834355147
Ni 0.8939783147434779 7.556100020339642 2.4334306030410753 0.5508781355792126 -0.5066217368639985 0.4138105691685324
Ni 7.688736491022968 3.7371754731391373 3.634053873397353 -0.5572855817674531 0.5350704791229945 0.4943200366785099
Ni 7.604120139192464 3.7789726042785023 12.72500135202744 0.5307656811000536 -0.5217184832961208 -0.6393382253948344
Ni 7.847051831064583 8.889004291296194 6.800027816747309 0.48029364049243095 0.3427270229581452 0.8019959815697929
Ni 6.976765190329618 0.6831221447165039 0.41638662033638507 -1.0801068112094494 0.4313637475609475 0.6148245565241863
Ni 1.6105056022264612 6.450588062052129 9.301595612730594 0.22688597002640923 0.5746968352653652 -0.8934331517358677
Ni -0.0055572727487612624 4.83407655307896 1.4093131532359076 0.708089009706987 1.0506980190300292 0.5746225303840039
Ni 6.418803790504039 1.9743061673760818 7.067732969445572 0.0902449496301865 0.24468006078503665 -0.11270790661939299
Ni 3.2715548895441957 4.364856043452106 0.28186425875443216 0.6353748698717121 -0.43886622658557967 -0.03423269593062492
Ni 5.998254642630251 5.632934510713392 4.86637096489891 -0.2416366459730226 -0.691287364768616 -0.16744360759937613
Ni 5.205411636782809 2.975809207470226 9.176797573954946 1.0230357772280705 -0.6075416497095278 0.22071943620438114
P 0.2901685102365899 5.618046374410557 12.551459591176476 -1.1873819768490455 -0.7925307223918351 -0.7494575453514448
P 3.8360287183722295 6.204635326726094 12.594153990311733 0.8365552076019013 0.5620310668722385 -1.0493319919204378
P 2.5359398535558233 8.642572168835256 1.2890430616250208 -0.07729533144805398 -0.12648927667420154 0.4040146661240332
P 6.244044567231226 7.810537003449431 5.7252337197587355 -0.292088117755355 -0.26249266348642536 1.2397288658818777
P 4.868655742073938 1.061788233568255 12.609615582168395 -0.7503209217930046 -1.3947712716034237 0.19116691935824498
P 4.0249434296851 5.956728862699323 8.061984600746289 -0.6259666891839348 1.8142392961680498 0.7393471963903202
P 4.917218563343631 0.9482729780393588 3.882020939194009 -0.5620269531071804 -0.30542108741883534 -0.4776040094754097
P 0.21651293821882828 5.7571771840157755 3.5488387399002344 -0.2378303848530549 -0.8822655651548225 -0.8513066548794629
Ni 1.6941179545857534 0.9845435895669185 2.7606819694224756 -1.2498217313415056 0.5143221908320498 -0.345915705098772
Ni 1.8755795527069261 6.411821019406962 4.794168930854336 0.1778915424055775 0.3430612663691124 -0.4266133773601556
Ni 5.936630783194524 5.475387999095677 9.259087541425128 0.14907924615957552 1.2485032696403982 0.03992460410907962
Ni 8.463616046871973 2.2838364908385804 10.216403750737618 0.8622433563966246 0.6521747150378704 0.14167832570981406
Ni 2.178968293818499 5.343068104822193 6.994180510887015 0.15124437213169437 -0.5284722570801866 0.19447644334745215
Ni 0.4049066552115026 0.20220549350204678 8.97737523934742 1.330585223843818 0.14348503990124967 1.2369901267944763
Ni 1.3899332499294363 1.0613631166750392 11.451619777649295 -0.24159242299864847 1.1901672529036664 -0.3654049241716352
Ni 4.393284605055876 6.630792399574218 1.5060987022607204 -0.41193469230205837 1.4048461393409224 0.11079037788170597
Ni 5.647225674357667 7.87340003340368 8.022838570913338 -0.6689208241479576 -0.18269230622833052 0.27814553953233384
Ni 5.2183279543043435 2.826276601541643 5.023589141554417 0.45042822039156616 -0.33357029615954165 -0.4309024916538128
Ni 0.6689937917972899 7.339335630000996 6.798795882261012 -0.06532761756321652 0.5093044259024841 0.12459823029907573
Ni 5.130609153657393 4.517274017230387 7.067216497645516 0.665612585710331 -0.6565756723190435 -0.749426177892877
Ni 8.102646579330365 7.47248766798035 8.795891028625544 -0.3012201619636103 -1.7538553957633538 0.9374213843913598
Ni 4.526382372793542 0.07815186154153962 10.404229439200632 0.8287778776493274 0.6245662092919825 0.04752118550941494
Ni 7.968906613732734 7.053611852558582 4.73588088227431 1.09297621097295 0.7202048191339145 -0.2817990771245211
Ni 7.097190856633341 6.1077267651534575 7.022484250934906 0.07464349564750371 -0.09282196632874337 -0.30642870274774325
Ni 2.5204547445944314 5.421913720953301 2.3566345930376857 -1.0030061122707048 -0.5892518502614046 1.213472246178194
Ni 2.1492824716156433 5.260369301531301 11.377921693942213 0.4591589153963447 -0.1372082057536024 0.43858623345131564
Ni 0.9621571148709808 3.498567310521426 3.8458281150128677 1.7298456631123178 0.07546496310753455 -1.2375033189854687
Ni 3.616207104418543 2.389066489469909 2.816759410157778 0.6215135385085878 1.0875804938786755 -0.7021001391134037
Ni 1.2750612383583622 3.1696172855752187 8.213483598432001 -1.0815828815343438 0.7727514828823788 -0.024967725688931193
Ni 3.6737335606068924 2.707632808173314 7.1616458136770795 -0.6176625401936137 -0.6482116166250642 -0.43825147581971624
Ni 4.065465210144818 7.045109514694267 5.949213338729685 0.2638221809311263 -0.5601865574643321 0.8943793176992211
Ni 0.7353264992034024 7.576098604401347 11.400612081991596 -0.5520937531538685 -0.5126237200837043 -0.2314954437739626
P -0.004886130759897191 5.583575725898954 7.958434266095175 0.8249011683027406 0.02373411039214622 0.7854540180507119
P 8.427490155988913 1.8349582768041155 7.9319576241840855 0.5348719899589434 -0.5285519612781865 0.06684739664185263
P 1.6826397984689274 3.1813306127393557 10.512174758924374 0.44896397714121383 -0.04080546405213618 -0.1367952865858999
P 4.141316917942851 6.252139878282888 3.877176415619405 -1.3445956791902973 -1.1049464959609487 -1.404924557987342
P 6.896372872310429 3.895364182616816 10.531621595528927 1.4364316274566875 -0.03280856188958865 -1.431823696371031
P 6.378616676534725 7.487321534041497 10.288300966924716 -0.12136069719838455 0.5483024044322363 -0.21033037966057325
P 2.394276432671873 8.486708034709842 5.869796076052807 -0.047464878350182774 0.19165748584141828 -0.0389306156269265
P 6.841008180749283 3.951696693488048 1.515842019651615 -0.10073813585202651 -0.054736215200615404 0.7150006492251556
Ni 5.2379466466742395 2.8778785563458147 0.49230073891235904 -0.13564883168628253 0.2143143040089857 0.08139135589429854
Ni 1.5759264132314836 1.030293403309162 7.125386056197858 0.20035089985035817 0.018321424017007155 -0.911429074092656
Ni 7.06395937864026 0.5390735467104049 9.260331234463791 -1.7448128259451114 0.21923025325336437 -0.15480046491406887
Ni 2.979436268622982 1.7852376903784308 9.357116783488605 -0.4506639905514561 -1.1741832187705843 -0.12021167119560588
Ni 6.435075817969894 1.9110722907703037 2.548603814453513 -0.15706175014441984 0.07015074998347273 0.225927719878198
Ni 3.998911803755844 6.800884382061938 10.18334774652599 0.004410470362869823 -0.612638604616461 0.4883069977152107
Ni 8.34227683149985 7.443073196985931 0.2580061560047453 -0.8344623296286144 -1.7318554944534945 0.1494129753499104
Ni 7.521710777190569 3.9241364557512717 8.228245104170899 0.739304773188159 -0.5104215702260629 -0.07112956895697427
Ni 3.018736968644739 8.518338540573154 12.25431192785892 1.2478715495936703 -0.4161636427817413 0.8816896380466944
Ni 0.12829575585238384 4.7731220266240415 10.118704652644405 -0.8596840803098807 -0.4722170341318835 0.04076715461503302
Ni 8.988074617496036 2.414356422096108 5.782158680768386 -0.9691901921625243 -0.31409624659533003 0.21608450853553107
Ni 3.816925593298363 2.673279745185366 11.523026752653154 -1.244557911839405 -0.41342927456971384 -0.5349110707269948
Ni 1.0556104710562044 3.3755547626972833 12.743931716831938 0.12007925938279966 -0.06398318772018012 -0.5633605843169395
Ni 3.002274995332979 8.292547200033884 8.252775253413477 0.8113301144865254 -0.12411203469127659 -1.4308646748918712
Ni 5.708225426013992 7.682974800363851 3.5262939769993764 0.18460803519380464 1.294376378023429 -0.013394419029034996
Ni 3.273553843446338 8.235780527229155 3.690780748024845 -0.3268836281679854 0.8432899552225736 -0.24182407939348027
Ni 3.324649275994763 4.315162592147265 9.323346221094765 -0.45855264927091355 0.39415782793461146 0.22447350393017468
Ni 7.378111717686446 5.907098726676449 11.523159714745287 0.323927630863455 0.7877057901993659 -0.8285161393475086
Ni 0.4844080367629953 0.25854162238939155 0.5138541653983995 1.5675972265606357 0.43832038138443863 0.5946097721392082
Ni 4.715179498582757 0.1402831477370409 1.6521571082172992 -0.3380144479738243 0.6092146665365766 -0.4826814239983171
Ni 6.005825341345605 5.556540100498486 0.17310940792552457 -0.20444152497996404 -0.2792876235565771 0.7817560003738343
Ni 7.816642405639233 8.922362399853213 11.569917145974854 -0.013442755768467173 -0.37557749382926287 -1.1711760565131442
Ni 8.95396577059568 4.9563564526403265 5.781364526231697 0.31486140689612874 -0.4484315016765115 -0.26246129602785767
Ni 7.91104549105398 8.674256944940256 2.747734898763984 0.02176207426743994 0.46816831798380654 -0.116746852575457
P 8.56792345139462 1.6249233964346734 3.4666555039053697 0.1406750812562803 -0.3639476228998184 0.9378885538357654
P 1.911027065568898 3.2583219956128193 1.6274279680885342 -0.2805119828819814 0.23852818225102793 0.6509274728943306
P 4.846793879714308 0.9380339924410551 8.371682257453989 0.10806115187600099 0.4522483043194405 -0.616487546048906
P 8.552863459326446 1.6938375583370366 12.520826753256179 -0.2673188812304751 0.5888484441753988 -0.7387553284425923
P 6.483114026903278 7.768097674450103 1.3379984376429173 -0.5974919787830097 -0.8450051381414673 0.12965070512131865
P 1.917611854893602 3.3988095612602147 5.885020687854101 0.13980604838776567 -0.31210724118975924 0.6687313338449709
P 6.96800959133743 3.8989731536890098 5.854440311167435 -0.0083573708257598 0.01897551266123829 0.37239318256401027
P 2.2507497334899984 8.50200319782533 10.19536770055566 0.04812745163484614 0.05766135926721037 -0.02370917069148175
