# total energy = -340864.4041660757 ev
CRYSTAL
PRIMVEC
9.27775259793180 0.00000000000000 0.00000000000000
0.00000000000000 9.27775259793180 0.00000000000000
0.00000000000000 0.00000000000000 13.57892873668049
PRIMCOORD
 96 1
Ni 2.498099753380114 5.656515694074092 11.560312248206849 0.02255166004827084 -3.3683778261206183 -0.5508333983842062
Ni 3.9926528727864894 0.051120415220864926 3.692613146449247 0.5932190624392687 2.085381922019989 -0.48112282126194555
Ni 4.535252938807735 6.497284163791919 13.540526939940829 -1.7253917411060218 0.7965899800628733 -2.5065386471409474
Ni 2.77813942906552 7.818927813421296 2.4804627462412996 -0.009750908739176755 0.3905749956793596 0.612158579656249
Ni 8.772420973689668 7.252799367545221 12.84512322117074 -0.46430729236650364 1.1167476023609348 -2.114949608374777
Ni 5.575261139354613 7.313587200671738 4.432325554695163 0.044460030085587944 0.3155535478671469 -0.1607476836364393
Ni 9.091371542557708 7.028639594015036 10.165430021852696 -1.8468763654767808 2.4570690796559105 0.8633569011757777
Ni 7.729815002496359 8.452774573398479 1.127258966583462 0.8450107945684222 0.7251295101290416 -0.5317095330705618
Ni 8.867907600450675 4.875904170325793 12.427449017761194 0.28432724286301353 -0.2316018874448398 -1.0460669480159208
Ni 4.8661254193924375 2.263140676162618 13.459175896597337 -0.005701421260151471 -0.47139479534090434 -0.2881273333353941
Ni 7.333153980290759 6.7673038669839425 7.472090176663807 -0.03360380409737438 1.140753735467545 0.3151375433756508
Ni 1.7573268980453154 6.156503043741539 6.9172007999344745 0.3945051839717012 -0.2080474971636675 -1.8840519460858134
Ni 1.0231134135927586 7.977475322624447 0.9521979860460793 0.4976429304041559 0.3881314192348735 -0.2623908478012384
Ni 3.775599857524759 7.463460011466267 7.977810249482791 0.47880779997552375 0.5758474039300405 -0.03202488964602872
Ni 8.244090090719183 9.268094168533576 11.079563245726696 0.02046983781857765 -0.8214571756181982 0.3678194471503988
Ni 5.45799035017281 5.69864596730784 8.176157460539747 -0.6364807013413812 -0.5999720648923861 -1.2144909172506955
Ni 4.643106809396221 2.7404346436830163 8.950360840768438 1.0609875738814953 -2.165071978952465 1.005971622656932
Ni 4.697056939071236 6.120848641619256 2.1116182810076047 -0.28683561110716405 2.6643789273226046 3.8834458939797574
Ni 0.6654857509002658 -0.2648668395597794 5.527628231226584 1.1331494407577258 0.04420934752736257 -1.1367901228341066
Ni 6.983160052197853 3.184495702433698 5.400856095905454 -0.9257971698888702 -1.1324241325559272 -1.3000562020170257
Ni -0.008222871871189216 5.447849766899416 8.399775413335105 0.619704767434623 -0.9443145119667673 -1.7326990734007128
Ni 9.4128363823014 8.072553728283872 7.788275975343857 -2.057473111424863 -1.2566122719007777 0.2494263172207704
Ni 7.775934709222841 7.955394272129772 5.51075014422662 0.10698283121015768 -0.8360461291759667 -1.2299627876340495
Ni 8.35172129525226 1.1599417046412734 4.0128588895395785 -0.670641149273174 0.36993572216245324 0.11835996269884777
P 6.875946346518666 2.993661615196317 8.884230877862578 0.05550034706014958 1.4951088295829218 1.8980747427274667
P -0.1551268019269379 6.1201156991868695 0.9503229523044937 -0.8046264772141046 -1.0333590135309494 -0.6001116757940439
P 8.059230875968597 0.6090510391569849 6.256585868996269 -2.4491392832858723 -0.4182812033453764 0.6104387687516648
P 4.05927641211517 5.695408031752109 9.73273792078108 -1.2539388388336727 0.38130539745197556 1.1823271880339574
P 3.590777753783407 1.8327643020672488 10.648052202523974 -0.27517694382231317 3.6472396749936866 -0.25963462521233993
P 8.328313526177444 3.3397403318149563 2.9671040492127005 -0.7956690109105007 -1.0383081300061086 -0.277268022023387
P 4.879837937304676 3.7766111325264062 6.4401870205337985 0.4327259180157967 -0.7054361454651722 -0.14898025868786602
P 9.28304062750287 2.4866602847835027 12.597687422648521 -3.016552697515947 -0.8193984933169566 0.4895136164288021
Ni 4.261800467261497 4.153714652865295 11.633733596652105 1.0229936111362254 -1.1685949260495294 -0.413751690906139
Ni 1.8474324284672827 6.498963436959792 9.20057903720803 2.3040619591968388 0.27828849286810137 1.0272246184984373
Ni 6.406557023965269 1.752242689780155 7.418901750453335 -0.8341239724525893 -0.7007477388505674 -3.4137364567610753
Ni 1.938549233890897 -0.058155734796542215 7.512596843243534 1.4867902824148973 0.02070355109593854 -0.034216240870392683
Ni 1.9719676977067873 3.4576420081537496 9.653912281616016 0.25058897007030395 0.7267163950001871 1.038557012792121
Ni 4.224522458485193 0.8417315004074677 7.06656890100341 -0.16721915029339587 -1.3490483156450122 1.1291878850068164
Ni 0.9857426272933677 3.563278495940459 0.6847185314361738 -1.1106733711423968 1.6008886416239139 3.7450575518751243
Ni 0.38475117156693917 6.047851286454507 2.9763242794570735 0.9232540917520422 -1.8407121456475979 0.34405782595442685
Ni 0.4289605890930632 2.0197017333349816 8.472259708797182 -0.23657080141434098 -0.6196199210303006 -0.1438452514541458
Ni 7.279046128826496 5.115437179431472 9.391309213619556 -0.24040791577224405 0.21539956665336452 1.3694582467599319
Ni 3.1491196328806748 8.19317378604911 5.480224483580578 -0.4642304163819811 0.5638868891340547 0.6863901845773147
Ni 1.9965815745817337 7.617925309653595 11.54646149178521 -2.436864836793893 3.688342101460951 -1.196502708203391
Ni 6.399069877852159 9.699518928639828 2.954774844169686 -0.9274408761398802 -3.0691176160968565 0.6572721841654359
Ni 0.8843108168529554 1.6741704041025545 10.767614596526023 0.6258247642894319 -1.722448085096666 -0.2928625340275343
Ni 2.650607445830309 6.083709799127582 4.369794431909844 0.6289933918254007 0.04773201596864037 -0.7778713206074475
Ni 5.450707314610491 9.009801544259732 0.5254352964749441 -0.45029915101286966 -0.06551376543209361 -0.5587359410607344
Ni 6.882088218547017 5.183702880918791 3.139719414241513 1.1579567296093927 0.024481787191448157 -0.4043463384318391
Ni 1.1313383942735915 2.324466618923038 3.688267447267858 -0.9513508499882583 -1.0419105026453863 -0.6178908541543359
Ni 7.561386687084457 0.7184246055736333 9.065645263180949 0.9527428452397785 0.32223918741743857 0.18566193037961573
Ni 3.4398472792256882 0.3995491864992948 12.085613017273317 0.1856112796473384 0.5163587616461043 1.242728314829834
Ni 6.609442911451635 7.784590852126847 9.776054818535108 1.2299059662541851 -2.048547526800459 1.6794546122542755
Ni 5.396200519796956 2.3469558905192955 3.954577905086869 -0.13213567632670145 -0.06511498733177819 0.864197137688886
Ni 5.695111143678231 0.30545143925889945 5.459421907354041 1.7251551996151835 -0.17952933511931662 -0.7733001562969973
Ni 6.607086362365228 6.2762046040282184 11.58357250101996 -0.02437277241740964 -0.35358710560110074 0.25266205054924873
P 6.356141717919865 7.492276710137047 2.3566233084249473 -0.5244649356930065 0.13561077935949548 0.21716000098789695
P 2.512109159366231 1.2326607272367616 5.131015453332988 0.41841901447482127 -0.5636269506044487 0.400479142166949
P 6.164834465314741 8.518507448505526 11.941743839997741 0.8536710413465814 0.4897606994426017 0.2622844041303612
P 2.9482191843883685 4.518033430522812 -0.11098975086882161 1.5546784616164386 -1.1583182267138696 -1.8832878142262794
P 4.210754274059102 6.403133533363364 6.027700008440039 -0.36317937727522615 -0.20609294454045798 0.3184720070655225
P 1.7556012361158997 4.2105501635083105 2.9160615671112287 1.0359270313684417 1.1314764239306772 -0.606819941052155
P 7.268979767571571 5.709009216636644 5.292632042999853 -0.31457215779048403 0.2892419065558115 0.21876616913275226
P 6.04529062681731 8.6802836155121 8.104121280514178 -0.9497110003919901 0.45130470945924855 -4.013173732195915
Ni 9.205608506734569 1.30770846566173 1.3579335777848067 0.3374061249658641 0.03359634789820666 0.31594769798177197
Ni 8.470782690629639 3.1477465255389894 10.198507992158858 1.3226507994880898 0.9380322785024813 1.1227097334816405
Ni 2.540202193356935 1.4942469535801892 1.31660490235053 0.4554596121678866 -0.12467973426928851 -0.1985074188837162
Ni 2.9161181614003118 0.12069613533416987 9.646973450664348 -1.7522682537818919 -0.7531684185441287 -0.19801890928307186
Ni 4.34288802243942 7.646111121167386 11.125284009103906 0.1757169033517619 -1.4766848185497796 -0.3269535621739724
Ni 1.9805960073538662 2.849680177117804 12.54334484405085 4.736947756738326 -1.371717989328386 -3.2397280514599887
Ni 2.4054242855686403 2.1181386853301496 7.096823651282038 0.08670299791519906 2.5008418538664867 0.18098560794986895
Ni 6.7454918713062195 2.1806429026337733 11.395504111745797 -1.4544895133996627 0.8123099619012915 -0.697391935004457
Ni 7.556571533636247 4.440016811359064 7.0912013333829735 0.159779406185899 0.18385007398185754 1.1846560932774501
Ni 2.465822453098192 3.8026537832568903 4.865995530860115 1.231871060400356 -0.783454985342812 1.8394888147634578
Ni 4.070771547225633 3.8337435312433 2.731930655916874 -2.3006696456858373 -0.33922775155563517 0.0022777402905831737
Ni 9.00035679240949 8.209511907864707 3.069272513186423 -0.27836639729388835 1.1250630642051656 1.01778455613146
Ni 4.9944274560692685 0.21619018429702258 9.714446832104503 2.3900512188744645 1.6265035139785406 0.9204184220754601
Ni 9.075478752852927 4.190389607741534 5.009212482148391 0.5299341863376937 1.388661302050944 -1.1333281324274351
Ni 6.871780635732066 2.1019490075514913 1.6806639029434045 -0.10952308113350816 1.4635403107480214 -0.7616152637599012
Ni 2.485593343268004 5.746417113945269 1.3690000807386085 -1.4948026111964128 0.7281040193763331 1.7851490636703127
Ni 0.16810266630586743 2.038034571896947 6.136385165635383 0.5014355646773687 0.14198223010347805 -2.1292616541220752
Ni 3.452826854705541 4.267255785619005 8.103713987187827 -1.2444609812502245 2.4302085078196405 -1.9018992586798793
Ni 6.779318556223693 6.27365322214333 0.41852311774579043 1.148515124580519 0.5083124943028601 0.8536044497747042
Ni 7.613592599325438 1.0188549252830714 13.12004157758175 0.027537029078004188 -0.20469786396514425 0.7102813893726154
Ni 0.750200907230886 0.12374387696757351 12.577848804886855 0.3686023480630103 0.6521474613443607 1.3493085112849341
Ni 7.750597167667817 4.099439801859476 0.6356800438333782 0.3730956079476736 -0.9562056069773983 2.0404048430886665
Ni 5.185066710508167 4.474121828845798 0.9112654706353835 0.2827439575362937 -2.9053100625881707 -1.2426930907165243
Ni 4.959236941562418 4.9573071690822115 4.471174286937328 -0.04241394618983663 -0.4381617443193873 1.8373180323643843
P 0.9304657790382111 8.991292428403902 9.601225781805443 -2.668651072335398 -0.5721398731714663 0.4742908859417767
P 0.6891950469251151 3.792791532552756 7.030368039270145 0.9464747528428796 2.251182337588988 1.4028386219925906
P 1.356156888217693 0.33254525932595785 2.7974083928354316 0.19637288903921665 -0.8930726830726555 -0.7351254449994887
P 0.770627734488922 6.899892225227388 4.957436129839302 -0.6441965819284002 0.7123835233172828 0.817845804117856
P 4.6612355374073955 1.8146912405699265 2.055415513072041 -0.27876491828388766 -0.7563506729268522 -0.7288532388375318
P 0.4254331876653004 5.102559659227014 10.46442414550475 1.1626613341739138 -1.6329929783576262 0.29506596943675634
P 6.232042503038868 4.3930064404109475 12.703915831032525 0.5415188058514996 -0.6472798488394143 -1.6061041243865821
P 3.0224504806101726 8.039144542220289 13.296024766698617 -0.2679110062885192 -0.5353304176526006 2.402902106695204
