# total energy = -340874.4049042143 ev
CRYSTAL
PRIMVEC
9.21989808806427 0.00000000000000 0.00000000000000

0.00000000000000 9.21989808806427 0.00000000000000

0.00000000000000 0.00000000000000 13.49425281346159

PRIMCOORD
 96 1
Ni 7.731290059353671 1.5456421226914367 1.559976297946733 0.8688204953935101 0.45207166953226013 0.3540414195296999
Ni 2.3425824369270085 3.9723100284087596 6.274489950775896 0.6771437262783823 -1.2298985100550173 -0.00988871986862168
Ni 1.4660744038690228 1.8402455200880286 8.047850643584049 0.3155535478671469 -0.29168728277251055 0.3259282062332516
Ni 8.555890067270267 6.5456111902270875 9.019032276173446 -1.2437431292475936 0.3459535003152429 -1.2566816916861323
Ni 6.815265543923395 9.647977752878157 7.727820611776281 -0.45128696884743563 -0.8031581201986941 0.7259252665574594
Ni 4.455340479058385 3.7586665544165263 12.829619763588413 1.6429575457695058 0.9165414556185569 0.7371463320842595
Ni 7.419712829934823 7.949976817493744 4.324665022231752 -1.1343218637992722 1.7618620681179142 -0.6581517585569117
Ni 3.5046214878542097 7.277136328907036 9.68123576856022 -0.7445837621989113 0.7289954208423509 -0.9048367655871192
Ni 5.467842006048074 2.421873558812612 11.196734357078078 0.4285198503542491 -0.30152355213664206 -0.35901007638888494
Ni 7.862609065053281 3.9226055588639586 5.744206601431398 0.06270072146333072 -0.161960730107934 -1.698502887134978
Ni 1.6784547518498225 8.781058413629594 7.405955820287671 -0.7644018253661028 -0.4934648877670663 0.2629973710369858
Ni 0.8033260155167309 3.041137220739176 2.573056834524145 -0.5852884947382823 0.01715799983652529 -1.1024059889272821
Ni 3.0867849352107597 2.3304398314010384 9.895767118719617 -0.23893544499177558 -0.7062781817504933 0.6420332557284942
Ni 8.115603063255719 4.889191994343147 2.610355009463217 0.8925713179562048 0.45549329361929947 1.1491797547477112
Ni 6.5541211559829495 1.2493146043887275 3.5071827754890728 2.0905179576949737 -0.7869527140834254 0.15027120958514764
Ni 1.9919958195200227 5.064775729830291 9.918869416871797 0.4773435567251715 0.02795071957665509 -0.7502846692384304
Ni 0.17214102561364536 6.984847125881757 3.2568514837983287 0.3613423240664874 -0.3396614966589441 -0.6153778579244951
Ni 3.7105755670031186 1.4981873082326924 6.412468488724107 -0.696908053389503 0.3461267926683136 -0.12433443511472782
Ni 0.8447095272124904 4.514771940881012 4.491103540998159 -2.4755087744183366 0.4361429141171457 -0.39781933594659874
Ni 1.059357048085345 1.4021805114658563 0.6686629528510843 0.2799396553182792 0.22402613198011095 1.2535747706260345
Ni 6.321549231615001 3.7265352102570692 1.564793694596178 1.5626995321487023 0.823898180959523 -1.312565647337946
Ni 5.065789918598595 8.05968438253058 4.834019203357608 -0.01147277652628992 -0.9738307762583293 -0.9911996065540799
Ni 0.3101066557048062 7.610334218886551 5.689136151312478 0.35638600850247654 0.9957100928299238 0.2631259261950501
Ni 1.4522261172327233 5.327856296328409 2.131848762710019 0.38031063763887407 -0.3175829195923498 -1.050330094167649
P 7.050889254494149 2.3254057671510924 8.976632731729804 -0.9470686776731366 -1.1824464872206408 3.345585253706135
P 1.231040766763464 3.9429723133110866 8.119775067052606 1.5812911791079605 1.764129266885536 1.130292430924905
P 1.1447609622744548 7.180557898470792 9.639457645234613 2.548875460235946 0.5466443000035232 1.0937873940203355
P 7.4270426487602945 5.477578218223794 0.6762122052464253 0.7968722871899825 0.03375961294894831 -1.3775633923655692
P 6.538336690788977 2.2909417888245356 13.307100757695835 -0.6555212629126 -0.6859988626761669 -0.5917435063350067
P 4.551402595212582 3.4699270120803116 5.986712043789991 0.055298258351672507 1.280706079625188 -0.915655710579494
P 2.5040320689431486 5.671454231131989 5.057929033654448 0.20609191609919347 1.8720940023929886 -0.579235603675983
P 4.01405772607132 7.964986811264646 12.357186663577778 -0.5269213676532989 0.3853410009739299 -0.6002800830511081
Ni 4.610114904999503 8.624172631070822 7.096289875702182 1.0669368494863947 0.055875985232013446 1.8434498562937347
Ni 9.214006378920777 0.17691324476341147 3.606257954274924 0.5221640554739717 1.1431204359275087 -0.5136400771633606
Ni 8.588491626222302 3.0975353361547846 7.964699150450364 0.014078589580253173 0.012683766115255575 -1.4997393863763977
Ni 2.4444530887542215 3.4784093181424924 11.803368602869886 -3.021032587664171 -1.6871902903356362 1.3674586998313996
Ni 0.6070694249723896 2.264001247179218 5.899525001348245 0.1589329990252037 -0.14062545896526749 -1.3972037923043163
Ni 6.866804773149037 7.572412778849866 1.0842830420408949 1.3856654526474137 0.6679481758220432 -0.05092506898464133
Ni 8.917863258575942 3.5862268041111256 13.658477520352307 0.014888487076058228 0.3202674084030484 0.5830794029021055
Ni 5.036286245338835 1.9254373766255841 1.6012547028065045 -0.32407032708890643 -1.4333545311932605 -1.0250412376938736
Ni 3.583304096478831 6.526138765875646 2.878283398273829 -0.024953841731860254 -1.3961131303432988 0.5255802802443723
Ni 0.18968925727467667 6.829491846373335 0.2580723179622736 -0.3495831266480302 -1.3430787283251384 -0.4870633551160966
Ni 4.534954297370267 2.008075321446592 3.914736376011707 -1.829113385066405 -0.03337626146760058 1.3199609113607527
Ni 5.1126638794900385 1.3884244238084935 8.997994313159658 0.16866231049782565 1.2170692195008328 -1.7947799018918573
Ni 0.1592331685625006 5.478343469748969 6.807823242343621 0.14175005948801395 -0.16519877742925743 0.39019550085275384
Ni 8.570706443185403 0.769059343005099 9.64087382155108 -0.6811055391396077 -0.27996896589431786 -0.4096644082106428
Ni 0.609060000927634 3.0746238898890033 10.177081877282054 -0.0687052757861978 -1.287662456338363 -0.07314814204889983
Ni 7.1023731643324295 4.94138583631924 7.727173374944146 -0.6726869760586093 0.6829652180561657 0.6339939303637856
Ni 3.6544171689327447 1.357159750051042 12.67094163287911 -0.27598966953159565 -0.37903691313277305 0.7699736630269255
Ni 5.234818306683335 5.154153420011575 9.25918941053852 -0.3571614532159204 0.26874224394056295 -0.9416115112133073
Ni 1.9214543807355167 7.906680176985047 1.7075896291938353 0.11560039767583961 -0.30364522646533515 0.6643735710969073
Ni 4.7652950064479445 6.213114012487491 11.33362033712589 -0.9642192213104941 -0.8089886108375421 1.424472141101966
Ni 1.9085649634801591 8.718750343664139 13.042991250592781 0.358754251624337 -0.3283956939371377 -1.5545221385442325
Ni 6.047118970809771 3.7368338362043043 3.9282306185688896 0.21213992206548626 0.639049490509822 0.33218292889371176
Ni 6.273485903895274 2.6194928502656385 7.0495053478203085 -0.7324299004451967 0.5393526514381163 -1.6493904458790432
Ni 4.204393298188343 8.207562324847231 1.005191991939584 0.6737352148174655 0.28433315640028456 0.48013397498611504
P 7.2105871059104905 5.297661130726624 10.123712498324517 0.11507563552062115 -0.6342692955123592 1.0115578584954579
P 4.487997357397781 4.448573074004427 2.25509205984456 -1.1258562495304223 0.7375939611446394 -0.14002099261204917
P 3.1910343206945413 0.8492982703941724 1.7325949142712707 -1.655364404074291 0.33862071409925554 0.18959391844417026
P 5.723177858315505 8.57142559522111 2.604525268025047 -0.018655153207342064 -0.3742690594304845 1.0074721184618585
P 3.1725853050092985 0.5299302272551698 8.573600569134227 1.152731990875344 -0.30500071205196505 0.40777464738709773
P 5.680093275458362 0.7633927937596464 5.452568323197412 0.17084029198575096 0.260612415744577 1.555924675318714
P 3.908379256414018 4.236589181633055 10.666329305081383 2.263881787433527 0.11123337895639554 -0.744473461873292
P 1.0280370549405315 1.3887655600305595 11.992881760094793 -0.13703954138622204 0.3325040596785564 -0.8915261645211421
Ni 3.178301641703376 5.93770644250553 0.3433923310805511 -1.6491811580817146 0.027449611570520466 0.686073167557528
Ni 8.05697373254984 2.1813264227666354 11.678317283758396 0.32930097936022645 0.21441817657670167 -1.146234298966142
Ni 7.003628057891172 4.215862851168074 12.261053554209798 -0.6119320654677397 1.3884877525875572 -0.01663812277731328
Ni 3.0027179062162332 8.70563042896144 3.638657597463087 0.24999298835751785 0.4141885213332416 0.2978335048795645
Ni 7.991936572807858 0.7582591546124483 5.751277341126057 -0.25493182042003193 -0.11417189275942918 -0.7222943546730916
Ni 3.7452884825728043 3.729891253090367 8.170473441590346 -0.15165369175497107 -0.03862311168883671 -0.6390602891430994
Ni 2.400381976822456 6.119937724374013 7.748264813365716 0.036912813865949336 -0.60857754717321 0.02631704062797403
Ni 1.5951621942783643 9.427437795261456 10.160051803882647 0.6109419336403284 -0.8512835149510113 0.5031648886636495
Ni 7.004522387986858 7.296765491522669 6.696684749153686 0.6615384156409574 0.48604365560233065 0.7738388024092866
Ni -0.09401714280138103 7.74295323018917 11.549434175082293 0.38918300042783943 0.7581015941796879 -1.2150159365162303
Ni 6.080771598121682 9.126048553015119 12.855178242539468 -1.4238067396038254 0.5428087283075168 -0.6195458732592556
Ni 2.1069771661520416 6.644033600242066 11.755815135503678 0.1344931208152845 0.11304497824383755 0.06417550623664432
Ni 2.9751872911057196 3.9545893846571167 3.8207487368835857 1.4035168790065378 0.4835684545889607 -0.9920401001775045
Ni 6.113815712172614 7.310493919486352 9.689426725848962 0.003639396524800184 1.2616963712919045 -2.179412563944853
Ni 5.98053286822165 6.317520136235465 3.2515214608259955 0.3672772014936836 -0.3977902824808762 -1.8294160039084881
Ni 2.8733719586658686 3.052191878313692 0.9046019839298021 -0.5080996069611056 0.8860931664310288 1.2650148941421762
Ni 2.281685011339286 1.7551827421209847 3.711836849034973 -0.6908849871238747 -0.5669269615119591 0.06483499419751414
Ni 5.3467386472146545 5.927905691044555 0.2700766250198382 1.338544845010527 -0.32460871609087966 0.16209931256832727
Ni 8.321280545467816 0.43805947668343626 13.105712371983874 1.1511731310286561 -2.045656321295593 0.07144504331486405
Ni 4.3154008688281875 0.2512191678579051 10.652484706404241 -0.42376819460187665 -2.0090589817875335 1.3667675873016463
Ni 5.890509785187809 5.645500218561294 5.40547400674631 0.23779798895322268 -1.0839979187337396 0.9213915846220068
Ni 6.9605434750340285 6.78562357219523 11.773128259768422 0.966576151578445 -0.827573315818265 2.042553514000553
Ni 2.9418204806285106 7.510611803268564 5.971099068696842 -0.29685854256080485 -0.26756673557522304 -1.772203045032606
Ni 0.08012828861434926 5.070049511425473 11.364036780277122 -0.9534306153354225 0.5913264734022461 0.7571004066086833
P 8.646623082441922 8.651048633430884 7.53459644564917 0.6364012542536975 -0.655555201474329 0.38338747679198487
P 8.14300459979572 6.113299397890567 4.846636633625102 -0.18580025572969291 -2.3202372834051204 0.5811986409396248
P 9.11887547245384 8.490622410080944 1.5372925831589248 -1.4039673362803948 1.850601893957484 0.251508910781412
P 1.5016724296365014 4.73311756279902 -0.29757128252856596 -0.7326008788054221 1.083525092862379 1.0280715398797649
P 7.115640597401427 8.747802241927108 10.933974643026659 0.7233024842226318 1.2542221744020465 0.27825635407858534
P 4.992759107382796 6.402850291241426 7.2419605744630875 -0.600421750835295 0.2880296314152652 0.7318480597997976
P 1.5836649816049517 0.29589510509149586 5.171483140092525 0.08760468379386202 -0.38166200946044593 0.7053374151037789
P 8.219216275784836 2.9060564966989455 3.6391840536328153 -0.8480045870894234 -1.002274376311003 0.6971937029507219
