# total energy = -340862.8470595332 ev
CRYSTAL
PRIMVEC
9.29109682500144 0.00000000000000 0.00000000000000
0.00000000000000 9.29109682500144 0.00000000000000
0.00000000000000 0.00000000000000 13.59845936185104
PRIMCOORD
 96 1
Ni 2.5066356526181486 6.173571318231312 5.25039216813717 3.9877997722074996 -0.2790608522577517 4.759938561206544
Ni 1.9323065181219647 1.3294351349616662 3.5201381980209483 0.4820831282926859 0.7781268882616793 0.827589256657865
Ni 7.242911495802601 6.75386533672566 5.109920079090048 0.07732438491377651 -1.4337772205529757 -0.046980739624912636
Ni 6.091614555384255 4.814553331789652 0.6860722238381256 -0.7183551675196854 -0.6651652137602674 2.2438168983628515
Ni 8.829459146155562 2.2724628546590475 7.692376654380195 -0.7726090437672436 0.3186363005575287 0.6704174632981421
Ni 3.242118857127052 2.639981470595811 11.052052039973256 1.1652357797693094 -0.9302454354682108 0.24286769016664622
Ni 8.544621998598343 6.9668172701180815 11.771887179638377 0.7482758663385177 -0.550085207364272 -1.3815120926006723
Ni 2.657077088285255 -0.3107704563043799 9.300761169002449 1.2520151394483987 0.47018843373762886 -2.2917792851747434
Ni 4.434315204648079 2.2757333206518107 4.517408268605689 1.1709238312930221 -0.5521140648688427 -1.3828305543017798
Ni 5.609852616018468 8.924925163415908 6.698478322740833 -0.11270764950907687 -1.9359401503146723 0.28412309727200746
Ni 4.146969461016866 8.65042900634149 11.530759066786713 0.27439275735812096 0.15487014180973974 0.3407932962705421
Ni 7.461846895386328 2.1917046432695657 13.400519781016396 -0.5630564228129593 -0.8246006063431863 1.0977844309948708
Ni 6.798341816007926 8.661346044811651 1.6079636279476177 0.900603958452694 -0.15000278641510942 -0.6025213136768011
Ni 5.20023604152145 1.4239255870821257 10.287084469608004 -1.0048053702629727 0.9822161721085471 0.5961082110616057
Ni 3.264287413543907 6.2594953793139085 13.882938600909707 1.5404607753551598 -0.1816093575767969 0.6819455185423997
Ni 4.020684876432669 9.085252325833867 0.5256066240812682 2.2807263697946913 -0.5856078257509141 -1.774838425772924
Ni 1.8048326731767634 3.979553191915729 0.3011039994325878 2.121251639333405 -1.4580085822965148 1.6308108831046428
Ni 7.173256144814688 7.170682511064701 7.85270195857884 0.27453365381135947 -0.04205604862978564 -0.23428329093174488
Ni 0.417258501426132 2.5126748653888757 1.8129326511667943 -0.7953928744309785 -1.621607362228504 -0.25272298569417123
Ni 5.0452884240177225 4.253668414030765 10.205589474260494 1.3285869624668667 0.0029094603373111183 0.5778927164948434
Ni 2.873345943153291 4.652888251465562 9.672787824995146 -2.713962651788003 0.4965111307925578 1.2282437480604138
Ni 5.476869150807049 6.907066228074162 2.721744978634205 2.513749048846458 0.6110388642295089 -1.621135564798408
Ni 9.290920039515134 4.716625173938163 1.8172028391505273 -0.5580677113491163 2.609405656410519 -2.5463372671951245
Ni 7.74199203917552 6.545382420783577 0.4230319888349475 -0.39799597073377907 -2.3214976381747823 1.7537414958933089
P 7.615633125818761 5.914674912298511 2.781537830612692 -1.4278423431257796 0.08054212052012581 -0.23156383511805279
P 2.069805456266574 7.098397779747378 8.071446890682875 -0.35386581318378413 -0.09620888052310528 -0.014571727166587807
P 7.671472616206564 9.271641014131658 8.493556273628386 -0.7817729696546988 0.64191267099023 -0.2926437331485089
P 9.071845273482852 0.4916318712524695 1.7674462296873321 -0.3113428522199089 -0.6600875421270439 0.7836617020369794
P 5.211264573150455 3.7222083991101758 7.462208319042914 2.6547488604320084 0.8453987740354602 -0.1191066110568852
P 8.964403032743325 9.092880316118125 11.549769579479305 1.335565707777545 0.26647684494515395 0.9140675401567676
P 4.2506859720316825 6.476219497913892 11.020123186609249 -0.008273809973018008 -0.4215529321181127 0.11517693698517582
P 6.354441095166315 0.8539000885173282 5.021978920942028 -1.2309889149057187 -0.04636238931462338 -0.4870438147320709
Ni 6.601983781090149 2.791156902891976 9.071817400193142 0.38893154653866563 0.2094502910484651 0.46361720827801445
Ni 7.561094388950806 1.8557757556719923 3.584649068837859 0.8514902316451787 0.06438659380618589 -0.20359537492958485
Ni 8.305459881780966 1.6214821734574771 10.326737940660601 1.703281539470544 0.3227109848475346 -0.6720570557840941
Ni 0.34015633653708277 9.008684398997614 4.2173718161690354 -1.7265417955500653 1.5878778311865427 1.160784428866175
Ni 3.3642224482545915 4.6716191021513875 12.148074388675276 0.07170318207225716 0.9853925129539997 -0.4665688347071706
Ni 5.160628096842047 3.1615185943792663 12.730129069969706 0.0587821031352149 -0.331867454535822 -0.23020243599415194
Ni 4.033162819126649 6.3248210793000395 8.832049503879377 0.4784601868281179 1.4254666438047514 -1.183240443876846
Ni 2.1761885119970814 7.247631372860339 10.599481796921854 -0.3708592624179871 -1.513846000981109 0.6907021816891072
Ni 3.9113565430893606 4.196147235163728 5.967112932231908 -0.7854558178229246 0.033186514054297685 -1.409441986241721
Ni 5.364465464498956 6.0591050084846 6.710445255123443 -0.2692603212275621 -0.019855344163030322 0.21841238533775933
Ni 8.90744861076708 7.506695018531408 2.507882517777889 1.1465389746907544 0.38390915362340977 -0.9183337716322894
Ni 3.5357267998466817 8.208247138365394 6.766089632483269 -2.1417752132080534 -0.9328800448775804 0.7482673816980855
Ni 7.315725819624434 4.4410977051444345 7.6049929620263965 0.7922003356356099 0.915481904005791 -0.10104615401074855
Ni 1.9550046670433299 4.469147525690321 7.397262624906511 -0.9795126571344551 0.5383753751265116 0.009371671022887086
Ni 7.377678851555528 8.630945576833465 3.8669934151852536 -1.1050627098238388 0.8400413663782887 -0.1488586455083372
Ni 3.333422463123881 1.2656424659096435 6.21619515285745 -1.060932552273844 0.331825545554293 0.7807542985821972
Ni 0.16873653392378285 8.408944115381523 9.447569785910549 0.14705887329543707 0.868926424843755 0.10517020348145113
Ni 9.058131614945015 6.1479836382765685 9.02832949358596 1.56866551992415 0.2711410831900427 -0.7479799323646538
Ni 1.5814375472392685 1.0867702747372658 10.669935253105159 -1.5142164969466503 -0.34415424232297503 1.1360193061063533
Ni 0.8814602682739573 5.911125713408636 13.502276799764525 -1.5586215054245867 1.3120915359150047 -2.372755150798178
Ni 7.885994744919374 8.940645698812942 6.258596001165899 1.1331072746658808 0.8196306639324207 0.2889331170661411
Ni 0.5320453540045208 1.1987372795065532 13.194938474533233 0.6127296216683705 0.1811758695838041 -0.545220423072803
Ni 8.984973520550081 3.7993245006440803 5.7835329424273345 0.6801076940027126 -0.5665389820449211 2.1329768981901327
Ni 4.312081538168555 8.994283199313571 4.565193307376656 0.6867362550628238 -0.4456120299498455 -0.328450458434473
P 1.2404171387211433 5.290220311805288 10.995223976910367 -1.16738882155657 0.7010796682686893 0.09322382975285236
P 3.8719344203413657 3.9520608371640638 0.9736316626904571 1.7333274510133312 1.3707615389523877 -0.15538102000788725
P 7.032951295505833 2.9504806268803367 1.8250900510290975 -0.04789913767412395 1.5609082445762343 0.3337973245686832
P 4.2398060979478025 0.8972588488821804 8.146972356483936 0.37967660359930094 -1.3599752469701611 -0.14366116046779775
P 5.810819034835139 1.0294442088982063 12.576656878601352 -0.7773900100956547 -1.230992000229512 -0.63043989446394
P 2.863571709561283 1.4997688083858924 13.101136492668637 -0.8204932690430321 -0.6238424437520804 -1.895280210701465
P 1.5655962275868218 2.1454071090595117 8.750798864371665 -0.998945569048086 -0.20952613859172303 -0.2986544581189631
P 1.7343225413043775 6.385296826876448 1.7458109822136152 -1.098020715375393 0.7251819606335317 1.9796859279420551
Ni -0.07880243556142327 3.8118396077243424 9.628049336789598 1.6538289412663711 -0.8607642007479369 -0.13301422227691284
Ni 3.4119322291433387 6.224272832215712 3.182406837688727 -1.4607426933982262 -1.1607350636854783 -1.5666430901774826
Ni 5.351718080004435 8.612586370010455 9.212887835859393 -0.576895899799213 0.019079642339270366 -1.4090774038134508
Ni 2.0565098970744033 9.102756751772407 1.5125700812405205 -2.3903844338441673 0.05609221500787759 0.7719528982404834
Ni 1.9759375076163284 8.010523312251776 12.997991384092895 0.9437244437912521 0.9335019947322956 -1.5271206066028278
Ni 6.628193964515107 4.1024929817346 5.307015827075511 -1.4001654460358015 -0.21009460950068334 -0.2495805834104476
Ni 1.816846061042226 3.9518099775566644 3.0065923463976514 1.6374155329053541 0.4305523074032456 0.9841334437359178
Ni 3.0823863248895957 2.070149226839677 1.5645026655204917 -0.4714673004500526 1.3871523216055852 -0.6287663634162591
Ni 1.1161951775755643 3.283668640989657 11.73194847192107 -0.34615610324435225 -0.34788439878936867 -1.249422439020558
Ni 6.804343864392371 8.166093433225715 12.84468271602418 -0.7786354524669817 1.8613272507947878 -0.6118173942667463
Ni 5.612844349114122 1.3302713336529979 1.625994859061696 0.6419355538083654 1.174996201590183 -0.8627166964886175
Ni 0.9642021287812089 6.346357841150112 4.027360529318465 -4.7241076675508635 -1.9546662659692655 -2.9472923205572275
Ni 2.194705667461789 8.111629025130323 3.642034597694969 2.2294089504676378 0.9582897431999366 -0.2150969478112812
Ni 6.3188561953018745 5.491707032029899 12.16556209063999 -0.3406464862800327 0.6988605491301835 -0.8688040403332778
Ni 0.6138673959513078 7.555306035787479 6.172149780456049 0.9744118455727799 0.2657006289007618 0.48816327304849483
Ni 6.2177969379061775 6.689171431306313 10.111419564971712 0.7172575635801325 -0.09370565448527733 0.26945083997181335
Ni 6.9264288733267705 9.253783526523446 10.815806398369311 -0.2779311095286826 -1.3932697473572329 -0.2741040224731086
Ni 7.557182837294689 3.5588987946931345 11.519662710152744 -0.0462366623700365 0.5154779017030477 -0.3506640184170348
Ni 8.450949162976075 4.235281333918042 3.7505090792634617 -0.9123361592879577 -0.6335416733177154 -0.1205510568128956
Ni 0.8513032270259154 0.5416309783361508 7.083912960194203 1.345282677954993 -0.5820956988325975 0.249987331930563
Ni 3.638291214886775 2.9330040742315084 8.547283897765748 -0.19128544721398025 -1.3731992018596026 -0.045832742063398484
Ni 9.199597851325166 8.235470051316518 13.873419872473383 -0.2962677030543414 0.9632002931276767 -0.7667420434635053
Ni 4.875335685552881 4.366880425740479 3.129236679345585 0.2591216901316634 -0.5864922852383964 -0.43057621866264556
Ni 6.364447606172582 1.6810659757631314 6.97980343579446 0.6163294232044869 2.2005894551327843 0.6789692095228952
P 4.945771488652705 6.41962742870389 4.65355628130897 -0.11747833142484283 -0.6510531998389174 1.8242797111231872
P 5.331547109350205 6.972717116440253 0.03956520563517832 -0.16145885077085095 -0.3664732175351495 1.3427100321318102
P 1.7765598663131883 3.9730958797993363 5.1639468765369765 0.8712995530616221 0.5584654610081673 0.04187427163628272
P 7.4804848351064495 4.98283367287183 9.751822537970828 -2.192553472202185 -0.35505597683714335 1.1362481342877075
P 8.77364752905747 5.880297854988216 6.5781456146196025 -1.0365816342333052 -0.9197041696172548 0.31824497865638096
P 3.986029086225263 0.5641758241641049 2.6319000747989207 -0.8082841285713499 -1.8729080136538518 2.144240129808778
P 9.129542983184727 3.4861216352575832 13.334757399491458 -1.3334694873701487 0.710972501902369 0.6502373888058415
P 0.6125629259928307 1.7537409331364089 5.279601517535036 -0.3945913159276043 -0.7451704879403167 0.19767335301819502
