# total energy = -381167.7907282414 ev
CRYSTAL
PRIMVEC
9.20755761747496 0.00000000000000 0.00000000000000
0.00000000000000 9.20755761747496 0.00000000000000
0.00000000000000 0.00000000000000 13.47619128735956
PRIMCOORD
 96 1
Ni 4.551995437313881 1.1890179353316666 7.257993456387727 0.6147700491371672 -0.36612868971153717 -0.5872111656822919
Ni 8.080147312950912 8.705819258911786 10.595749616917505 -1.3464232193173393 0.18992713341387293 0.6140277716545038
Ni 1.2199184982384934 8.29003358573432 1.4035181151688918 -0.2706150354832436 -0.22653424311394535 1.7442572105519574
Ni 2.092270116677554 6.114370620949755 12.468670853988247 0.3748606702678963 -1.126809871692943 -1.0445703088657365
Ni 5.792538864310209 7.6752633878311585 1.2614473447458416 1.4985757050856 -0.0918518891059902 -2.1907467580107496
Ni 8.239290736455558 2.452589463588416 12.439872376454371 0.10058541232424612 -0.23048088646651918 -1.3923847736491182
Ni 6.246950241121208 3.053557532827294 6.2393687382912075 1.9751553870615532 -6.33883321505787 -1.8163103197644657
Ni 2.767957514876176 7.6162705670492645 8.041391782756895 -1.4053079094686896 -0.7146198688469693 0.17264546351528975
Ni 4.427831524680222 0.014459548268438838 12.008337176205353 -2.6579018042386937 0.584616151261606 0.2638324653437714
Ni 9.099083246490295 5.170826168066241 12.284167975668943 -0.07750590479696329 -1.1419349002598398 0.01782648665845962
Ni 9.301014189609967 0.47878101919642807 6.890363308836812 -0.08416480487437762 -1.0990882374079587 -0.9042078737538685
Ni 2.413862476822589 3.3870828874679333 1.6829334167599037 -0.9602113857026818 -0.557043640959976 0.9671034848368248
Ni 4.185921366977285 3.5951644789850308 3.190097323471402 0.8770629379079605 -0.4461447625248639 1.2086187747406345
Ni 1.5930547651631521 6.959338963439797 6.010515817852325 -0.6421705526373069 0.048657355996387174 -0.48249476190880775
Ni 2.590177995029629 0.6159625765969735 8.441337694799493 0.5833897350536726 1.7489407320705557 -1.0095853081501194
Ni 8.06995454681925 4.822780495277787 5.667061953979735 -0.10586003045962414 -0.02123139857495053 -0.5303656174481576
Ni 4.841352138717319 7.948120146228329 7.273437292550904 0.822876424563228 -0.13267895042468117 -0.6153853141236627
Ni 2.641068165228089 2.7381802739820524 6.843802532166 -0.9419992335700293 -0.41684755622264347 -1.2114112498841072
Ni 6.710716496333083 3.8601211530633517 0.08968713440114325 -0.3219046868961553 0.4461617318057284 0.9937676243915723
Ni 8.801973781687707 7.592248049580876 12.605359807063548 -0.12168337064512592 0.7423702994873602 -0.11634113249660608
Ni 5.551006216464 0.6013400545611178 2.451373145245152 0.5502500150769105 -0.5035770365004038 -0.6475914665425622
Ni 5.369690994544681 3.0788506932280844 11.824643642188649 -0.15445105199445014 2.248400661078792 0.05401116410913279
Ni 4.618234605833461 9.139467593602733 9.513880948750032 0.8927996319169269 -1.2009910829920478 -0.3620236664042281
Ni 0.5994119920245596 6.280309221875509 0.708814348504397 -0.7645406649368123 -1.3121447577504433 2.148500190636713
P 2.370918428730384 4.226103147825136 8.598254730905191 0.5884368105592769 -0.03267666429741469 0.6937106294981279
Ni 7.431272322137476 5.937649970213543 0.8651485462215366 0.4966201455665964 0.5504801288098454 0.25823183132754235
P 8.160474044416691 3.3668999214691957 7.531290336032497 -0.29523617646603345 -0.3663166373526272 -2.0018850897469136
Ni 5.268104012854866 5.3541854677463805 1.81442102061409 0.5860027471964876 0.43767940536633004 1.0023918757254737
P 0.8380166365917552 0.20508361080122617 4.69770595520924 -2.1791469689882925 0.8520576741128745 -0.20058615578961583
P 5.655999994421849 2.666057476232001 9.605303707736375 0.43650672521446754 -0.39775737236041175 -1.2099925151597097
P 3.6659521809003115 9.213082015664735 0.753395500316755 0.5144800565661527 -0.3137943990841951 0.008515750780495011
Ni 3.592383796625715 4.467157002682325 10.941845129031444 -1.413996438381623 -0.48387313031357315 -0.6948591412802743
Ni 8.14018979528566 6.4514593003356095 10.283627229641858 -0.34933552941359836 -0.45664874737998123 -0.5063898233588504
Ni 4.072088333837505 4.592775709398009 13.556239920992315 0.6686670562659388 -1.3576142029371523 -2.284119711746957
Ni 5.7217235397224835 4.860126348421437 6.702639626910595 -0.6637233391074182 7.586335297127263 0.485180536271087
Ni 5.916481795564319 7.897892920168514 11.612110196629402 3.433567118333758 -2.1417340755574727 -1.1927900352384941
Ni 6.757251491842946 9.159116521267563 6.3131912511522845 -0.6756812828002428 -0.3369615812292777 -0.14310400241274707
Ni 0.875902052603802 3.0829112260772833 10.670246122986203 1.7208424311724426 -0.3015724030967064 1.1118758760909302
Ni 7.005606939782708 1.3932139375917074 8.145899401679738 -0.3957130882368733 0.7414413599151876 0.08351123045077877
Ni 2.1085030405168674 8.431047328558531 12.848537845431645 0.7486908423887494 -0.0593343760942591 -1.052393404454581
Ni 0.5289023583452097 2.1914723409797445 3.0933249735884933 -1.4289659152072614 -0.6191206127963789 -1.0955102902487133
Ni 3.5808927648892075 7.042418754592449 10.682684612387524 -0.28386135897018855 0.9376805515900173 0.23716369780333352
Ni 6.19215606655073 4.741542215621371 4.126881587652235 -1.472879071650444 -1.8612025522914655 0.8349104729096266
Ni 1.0611249619181315 7.546016903467891 10.369834828070866 1.174024581705533 0.3145307630295874 1.6022580111676148
Ni 2.277176286014531 8.403203674735455 3.5234983760860445 0.41940374698559385 0.21434412880565665 -0.09744043893736122
Ni 0.5520593654103675 9.329189315502365 9.167691519549782 0.3075795285227348 -1.076892932257842 -0.7799734545521148
Ni 6.238497703353488 1.188612802802495 11.035329460137826 1.6188989621584053 -1.5747232960824558 -0.7810186079871775
Ni 7.8050715332007785 8.059485553963153 8.1940494027718 1.1894774259254934 1.637526347451606 0.094934641796372
Ni 4.441762559149241 2.4525158031285663 1.2385923455660666 0.16465833154475512 0.9288575539817487 -1.162167682366947
Ni 0.07392932052785858 2.5115638692553484 5.596972184921527 -0.02570486096527186 -0.13457462478549725 0.4564404880239172
Ni 2.875179521744471 6.012848092162308 1.190242540476663 -0.43505765147276687 1.25756846516646 2.6894929487814134
Ni 4.187928614508181 7.059793415559428 13.066029560694503 0.433506247825247 0.38540399300138145 0.3831396224472369
Ni 7.857020572509574 8.515526668448322 1.712217132573036 0.8404905381005653 -1.6075794233805283 -0.07631985490866211
Ni 4.298115454885415 0.6567446901925984 4.475753178346751 -0.34742442843381455 0.04017940043236306 0.7733148115850166
Ni 8.436378504340132 1.618891171455332 9.920147849003458 -1.8300263837989772 1.8536311677021107 1.5371769623975655
Ni 7.39748979373904 2.6907429378390337 3.9818100742460705 0.21113770605321705 0.03168113315336479 -0.5902278410214287
P 6.165923735286859 6.848700952745986 5.616849460011888 0.500682488561428 -0.026436082704341567 -0.3507995155536346
Ni 0.7046442457211722 0.7229304548787878 11.728477149588 -0.3104195690746912 0.32652727326983116 -0.20525939289556908
P 6.4457229920248365 2.5324097793927307 1.9061798554484977 0.9887763418245681 1.3134128258295894 0.336040354966589
Ni 8.195987593621588 1.4349978334412843 1.127896327260124 -0.34849220757669663 1.3036387771619613 0.6694263030294665
P 7.312430377727936 4.7232191762338305 11.299597408916554 -0.8645002707516015 -1.0397368920328351 0.6545982368776985
P 2.1316140097946192 3.73084704602764 13.147075402399562 -1.2606812997638288 -0.015554145684515148 -2.355608978036195
P 1.5124794296453805 5.027980121303275 2.5995844357523987 -2.231861011552556 0.9720160916470937 0.572311365752324
Ni 7.788295363470076 -0.548508931245626 4.167215293198527 1.207211867090779 0.9097342028887366 -0.9105482141495996
Ni 8.350803465110081 4.067935725413495 9.483977564318417 1.1613184469927742 -0.11442231820733842 1.3430591879411127
Ni 3.2361802279089393 5.32811887251717 6.359023710026335 -0.18805074232676647 -0.0931847489848008 0.38099249419724707
Ni 6.988416429965351 6.588136283586186 3.4976914339778045 0.37413124830103955 1.6412102240610962 -1.1162536934436518
Ni 2.279625496304524 2.324447886122889 4.328484741725577 1.6798060820564231 0.5340217261435061 2.185311960148424
Ni 6.069014192797481 4.751532415488447 9.329728878370762 -0.1781309121098932 0.18346132318387115 0.9781206618829349
Ni 3.1644257324581346 5.545730286027285 3.827709629973864 0.2503390588430269 1.4117228118560978 0.5096294133420707
Ni 0.4896072652827948 6.748725293615378 8.143015594676633 0.9867801373301456 0.3331761460449165 0.34437895673927144
Ni 7.687988232270143 5.661708680060178 7.892384959283275 -0.29736633543515884 0.3387816651571521 -0.9561860665933726
Ni 5.785844970021394 1.4152384150866806 -0.13940149950925698 1.6650505210138034 -1.5609072161349697 0.5740818273891855
Ni 3.59335979771872 7.762514202522783 5.298218250352799 2.287267513347319 -2.232175714579498 -0.43525665485745035
Ni 2.4755991497338745 0.3187509079063443 5.984371879140275 -0.2642345858781965 0.9490993349499202 1.5525120500927392
Ni 4.492045030553943 3.4543625099828863 7.874758011241312 -0.3255759651001554 -0.18584910668975738 2.513147924927349
Ni 3.1264169351758397 1.218076986742258 2.54709399206371 -0.5923027212725864 -1.314733344413226 -0.6695517728637372
Ni 3.8352055025192895 1.9654728426042791 10.521846077550594 -1.0058623507725775 0.4785442619014919 -1.5804524852567492
Ni 0.048051480227013346 3.669276109151016 0.8714455947829128 0.8067113847675914 -0.03188682140626766 -1.0578886232411973
Ni 3.063289921084897 1.6716044380350645 12.618121481732459 -1.4803386132522827 1.570272973620586 1.4679893476583106
Ni 4.292857939563663 7.584338757704545 2.6830960613509167 -1.6436232043779628 -0.0648283093292948 1.889111619996908
Ni 5.412229910107714 5.560167736157769 11.710177129094163 0.8546123222139281 0.3614104583002615 0.5094723189389162
Ni 4.123761146421865 5.827048789749656 8.751815612309 -0.22312496032208026 -0.11450562194976407 -0.6177018780719813
Ni 8.504698580850457 4.466052095784584 2.8472493168810713 -0.040890567566774734 1.4362048561578622 0.9392327265684857
Ni 0.705581575072756 2.2571222258205297 8.26294034784596 0.7417066977614323 1.6741463126674845 -0.31909035737581176
Ni 0.367283022633875 7.262856888249284 3.4583410955705025 -0.8988671782672455 -1.5154933067765448 -0.07645406649368124
Ni 0.9156096442413738 4.647459393278714 7.07890830489035 -0.7256699560135438 -0.1366633889937259 0.4743430793359508
Ni 1.3428301830547122 1.2003892688209192 0.8661070529553271 -0.008086890773192525 1.5967705056904822 -0.6351002760540868
P 6.369954001512239 0.9084397192307819 4.4442992412353055 -0.5624144183535862 0.9825761265511271 0.8751868039311702
Ni 1.4487631318756427 5.347602064147339 10.342046419592675 -0.22486045495594822 -0.738917050831437 -1.5003721348643904
P 4.2261583931700235 3.6825626145963537 5.393414266394931 -0.5034250843035717 -0.40795796704249737 -0.523330564978247
Ni 1.1003767794603851 4.448659019702642 4.758699578231794 0.44940106467863244 0.8086548816472074 -1.1767185835979284
P 2.518377461791418 0.2038746585039478 10.541790567810567 -0.19337446853252505 -0.9311694899443771 0.8670662317065647
P 7.582745850260302 0.18517226774818304 12.94424580166973 0.24472994018636557 -0.5748593289851583 -1.2445831086503856
P 6.058554407498865 7.451298759659032 8.924229888411267 -1.5543696721267681 -1.4199703965768706 2.2548849832515554
Ni 8.523491205669538 7.490034953982341 5.984210746884354 -0.4638272674062915 -1.3352849433123326 0.18282651781334963
