# total energy = -340893.056591224 ev
CRYSTAL
PRIMVEC
9.08563068025818 0.00000000000000 0.00000000000000

0.00000000000000 9.08563068025818 0.00000000000000

0.00000000000000 0.00000000000000 13.29773889018589

PRIMCOORD
 96 1
Ni 6.337536407668055 1.9745074608366573 11.504419266895628 0.818851362564235 0.00016686459516745454 -0.14770267752702304
Ni 4.662373225423465 0.35986093978787276 5.786378419550194 -0.25063345015499416 0.07260435373028787 0.4502153330498117
Ni 2.660990468624343 1.7450952826580763 4.784034364904665 0.5249830129800056 0.14245582730578693 -0.041113482210858227
Ni 3.486274658433184 4.600908932933243 5.019165039120695 0.6059879320691628 -0.8216649207536302 -0.07294065402378405
Ni 4.95444899936037 4.844894462945427 2.5182061460521576 0.5424364325697626 -0.39796048951015334 0.895655356198167
Ni 7.340063083493045 6.105916421200468 2.848747755187267 -0.4380221334177295 -0.25128548191669625 -1.2275991724978792
Ni 5.098401734055873 4.529196048879242 11.41600245058098 -0.29236733955867067 0.2878684232470526 0.5967422451011788
Ni 5.489292828779718 7.8718541409572245 12.44476933677419 -0.2834091019241184 0.1765244868547218 0.7300822261486265
Ni 1.7708439603989912 6.475783366209255 0.5795396816701086 0.01820572437474929 -0.23729405273361068 -0.9387426743059446
Ni 3.010242117304923 2.0229429587324996 0.4088697409883909 0.10664833068887439 -1.991626902354015 -1.5127951911190913
Ni 0.31520052149730576 0.12163206546257896 4.9839791166481335 0.6585927027490722 -0.2234409489006023 -0.6884087576692403
Ni 8.680366256274276 2.0467473114781582 1.1382042179705893 0.6647687496527971 1.92932161655689 1.889221663212211
Ni 6.854681428252081 0.9484217442981205 4.724154606429268 -0.10027122351793699 -0.6987600189965772 0.6125028503695451
Ni 0.37421260222949204 7.49162957681483 2.451118756648085 0.8556896144385071 0.040909079509536 0.5393598505269679
Ni 7.738622450628087 3.792551273340113 3.816504630431203 -0.7324278435626677 -0.4598582554562145 -0.5388536003145107
Ni 7.657642223138752 3.85518761220598 12.552254166488574 0.200490510752016 -0.23400484045937764 0.30803075712754047
Ni 7.917600292130657 8.847659976543671 7.095833150011832 0.3540589030311967 0.7571019492705799 -0.4169164617873658
Ni 7.130057812743749 0.6136053458626938 0.2525914395238958 -2.010997593571143 -0.633560956591425 0.3407889253951679
Ni 1.7350556606031324 6.875605636028131 9.183897367639181 0.44586039851522563 -1.3081582622988697 0.6515753908909746
Ni 0.15953277442384434 4.6602290165501925 1.6981607309735252 -0.7287488520491836 -0.17631288506454795 -0.5369324720323978
Ni 6.371071471020813 1.886849294695392 7.046020270483837 0.3665061276556139 -0.1490131688083305 0.15241859494545362
Ni 3.4475516998828026 4.343540268724742 0.18891570449234063 -0.11899425384873699 0.826125527628145 0.2522712428687333
Ni 6.116519352366187 5.611212908739258 5.033300463548824 -0.4656365527008884 -0.6850964054665556 -0.8929960641984492
Ni 5.35355350434455 2.6182880037752603 9.316449452783061 0.24729847224449023 -0.4064088773878227 -0.5753702071833059
P 0.1814891098609279 5.506964380722583 12.73798444881579 -0.7677383459385037 0.3235141974751203 -0.7556819289946018
P 3.80959591675647 6.209474441274902 12.496896326471774 0.9082581325638422 0.7157079597048255 0.5629432942738628
P 2.2736972837048026 8.356290890593018 1.5853035677558918 0.08037988391064867 -0.09886637275061037 0.060593445312340816
P 6.567366524864307 7.670652846471494 5.90033948691233 -1.7691105221502115 0.6498113570120163 -0.6851185169537426
P 4.756863785940584 0.9804576785657513 12.828222934109638 0.8145972152735713 0.1540630725274121 -1.2019948416662136
P 4.14669099140129 6.071209311472065 8.218468231011062 -1.0030891589028144 0.641044923673296 -0.7864906868453423
P 4.731205964507858 0.9923325980461238 3.6521573802363947 1.1282823424734116 0.9638222429823916 2.0364355740282734
P 0.3441891351882595 5.667243993999745 3.682343480069287 -0.5016217125462458 -1.0012117393744435 -1.6801945757440935
Ni 1.7750506074681667 1.15700965663966 2.4201085900999146 -0.9556281372073736 0.7270172140700576 0.5157391257842343
Ni 1.8041427973504565 6.519948617620188 4.928541323080123 0.9259995157076634 1.036532011942292 -0.07468051953302624
Ni 6.022392217081826 5.576705682888871 9.192474203132274 1.0716874767975026 0.35771629727812587 0.38657435916039873
Ni 8.723777400327238 2.5242335535374516 10.321252987691281 -0.3510329717206793 -0.47754024611700985 0.2876722480758465
Ni 2.3623548692361536 5.438140727269009 7.096857100605129 -0.3261287522798319 -0.7029835701596217 0.5273584551907177
Ni 0.8098340746012103 -0.00748746835789975 9.260638239788392 -1.3692880397306548 0.7073932691915431 -0.5571657683601372
Ni 1.694570089673875 1.2981640170429247 11.41959309188063 -0.3523236655076448 0.43876723911387017 0.2731344594709877
Ni 3.9716290567816905 6.832703287301031 1.538202749027354 0.8983406163398142 1.3068084331391945 -0.12112055616312044
Ni 5.665672179868066 7.800068571856671 7.97369679393304 -0.38104365915015664 0.49025820790431046 0.27304164264686526
Ni 5.224310405944933 2.910182065095786 4.9276899994723875 0.05445005141876429 -0.20509715628609193 -0.7076537219417812
Ni 0.586710061512427 7.194066081863278 7.014012501671745 0.3747488272803804 0.5098615839575349 -0.674556168056864
Ni 5.257963582498338 4.429835590243164 7.121284727624967 -0.007144324354265115 0.10055430197599456 0.1315810893748121
Ni 8.229519083776156 7.314650574092431 9.032702476617892 -0.6680168242764495 0.018801448977219234 1.3657422313609253
Ni 4.8241973959398505 0.37924785882935613 10.465600038764325 -0.9781751692699542 -1.1527175926976405 -0.23140442672205308
Ni 8.324354898264394 7.098085477891851 4.838927929186619 -0.2589190872025541 0.7305627653294708 0.3806898753551637
Ni 7.329978033284006 5.988457385973034 7.076990460256404 -0.16494115289249658 -0.14971919373641956 0.05055071636435811
Ni 2.4082736473951454 5.198652584512208 2.6300139189102016 -0.48253975621413026 0.19608466837483648 0.5177792961427147
Ni 2.1813418464301386 5.390777333809803 11.3628515102901 0.5329778582600241 -0.3919520785325443 0.30379023668363164
Ni 1.044520461470194 3.317645350433403 3.8233124936038445 0.45352485703901885 -0.030041540667412776 -0.6965391000858585
Ni 3.9267006123819646 2.6958429484458493 2.6060378477420647 0.10800664448898173 0.44149800778147186 0.5782575560334299
Ni 1.2165296241346255 3.276968981256947 8.49758789540014 -0.59900815831722 0.9072564307722052 -2.1440673516763398
Ni 3.708554616418886 2.7078904949117817 6.923295203633737 -0.5958518720764254 -0.12490959089190745 0.35038093995897723
Ni 4.199814674799713 7.112840542341831 5.911536618333608 -0.21244099824567284 -0.973042218918763 0.24618004236933083
Ni 0.6285675626953466 7.399610307880467 11.451028465951127 0.49482423000843817 -0.4730148474428305 0.2458008046530412
P 0.019644950956741705 5.486358170025196 8.194265927635534 1.9939622353554112 0.2576967847596788 0.6264294877529664
P 8.756640126999393 1.5844068159940612 8.110929796074844 -0.9506995895575048 0.40711695919844076 0.2514698300133605
P 2.029093930796931 3.3667531850098475 10.3821303484306 -0.5749061230626937 -0.26095565801660864 2.1264516954771056
P 3.842086132565049 6.3048190510890025 3.8140042648298267 0.7207866597793134 0.815226364217138 0.06110175240732702
P 6.813051067839635 3.9117729209464236 10.30760909589046 1.6845693077730215 -0.42102816996289427 0.8521600040186936
P 6.351864447469545 7.715881116688246 10.243380954505112 0.5272460979825695 0.36597442352186 0.21835736373010783
P 2.1910271288831433 8.543945509527687 5.970618658423101 0.10002594027635031 -0.13284067281352605 -1.1099532051469208
P 6.920043456363634 4.0679094865701435 1.7367773876433243 0.08014257108886198 -0.20253839441998017 -0.6887620272436009
Ni 5.431153877169233 3.0191187786150406 0.29511673457200865 0.5418327375474926 -0.49875878917615396 0.6099991101110849
Ni 1.5170005209482436 1.279456703186699 6.935621678965812 -0.017551121509885904 0.2216424622392828 0.6245942343164405
Ni 6.936252221744647 0.6456158403640314 9.211410474885138 0.41292533835010176 -0.030742680499495443 0.14143741334360158
Ni 2.8162275567969854 1.5618381090397802 9.117873905604009 0.4488241091292399 -0.3573411733268943 0.3690476631305451
Ni 6.619836042843765 1.9405181159429516 2.5023153777498077 -1.2034359449881145 1.2632038090753663 -0.48440072068226897
Ni 4.27026465616988 6.859714867725781 10.338021427930743 -0.884769819633915 0.6318851115508989 0.12879247088608142
Ni 7.963291929519174 7.130139583421119 0.44664143399202716 0.44947665511157425 -0.1963230096378877 -0.4276515888166828
Ni 7.82890636407603 3.793323551959724 8.155849154843752 -0.6774041790286205 -1.1899517944587505 0.28701584543877023
Ni 2.813983405984704 8.461184498397838 12.584235586971293 1.0469547499375131 -0.1697516869072625 0.6814179281737038
Ni 9.153046199630342 5.0112796201329255 10.476025800129076 -0.8435624921576699 -0.4787234677918336 -0.9064473046073486
Ni 8.63447473500774 2.2966748440459366 5.764822760432226 0.7614465993925208 0.2796025836938346 0.549979277914027
Ni 3.8348903129564373 2.450503659441642 11.326322731582497 0.029664616943968262 0.4803196086343599 0.6674036161724828
Ni 1.0711322741389093 3.4293259244599814 12.858102848183933 0.34579254925734637 0.23361069034475251 -0.6712767259746439
Ni 3.087942432068615 8.412594544778074 7.888085620415285 0.6542871333951829 -0.42188511864655087 0.6279374397570605
Ni 5.591533432385404 7.716480768322297 3.731731152074955 -0.4097723945434169 0.5643360608563313 0.03823281822895351
Ni 3.0455216217749204 8.640162339900407 3.865573396795126 0.1744992288945769 -1.2680400541217451 -0.49700889636458273
Ni 3.70773690964518 4.199696561599067 9.364387966673107 -0.5377732227661383 1.0766119106823135 -0.7541852898444172
Ni 7.1685808874161125 6.127794620212509 11.644191702851328 0.24628828581242102 0.18595940701537653 -1.09871491322894
Ni 0.4527815032994761 -0.1437846505253519 0.38704423863510035 0.8424504900404137 -0.14371412519292023 -0.5186969228609776
Ni 4.5382635084365575 0.41754288416816415 1.6622970204418694 -0.18997675570488573 -1.5539256426108141 -1.0418161431593669
Ni 5.858996232433763 5.507818430019564 0.37791772247746136 0.188383700186153 0.9276167395961122 -0.07697805731795129
Ni 7.981872044543934 8.934473179018774 11.422146154140755 -0.435571614994708 -0.1381281464647105 -0.6125720130445838
Ni 9.00372385712084 4.796050111662731 5.576765648052277 0.6845202212481115 -0.12489699248641717 1.9269124928947654
Ni 7.535122491545162 8.88935393637185 2.7265950830787617 1.1103987773247717 -1.0090317496394945 0.1514253777942489
P 8.72252358327422 1.5089597376734696 3.380271695105369 0.03924840397766143 0.7258190799968984 0.9077508539101206
P 2.0581043500018503 3.3460106898501767 1.681179686972901 -1.5623223513149416 -0.10521622622803815 0.1914073175038252
P 4.601926523584966 0.9673016851399064 7.987446987614444 0.8382125406996661 -0.16789457909386568 0.34759592101467235
P 8.891243747582191 1.5742854232617467 12.423053770553809 -1.0293167251407755 0.32635706624055405 -0.9269801344533778
P 6.240765353815379 7.778353914199371 1.5074188146865748 -1.4032451134023898 -1.046924668030526 -0.8378399878515957
P 1.8485533607935023 3.496423308057955 5.960072966731541 -0.8294823599155199 -0.653293659133662 0.43053405257080046
P 7.002277500905984 3.699150988521269 5.969394823951787 -0.2642153026044869 1.2370549185941404 -0.262521974062464
P 2.5067618854726033 8.61468623108406 10.421757327247466 0.8011619157042719 -0.6227389262752565 -0.5077193408035514
