# total energy = -381164.7601704334 ev
CRYSTAL
PRIMVEC
9.32330999318313 0.00000000000000 0.00000000000000

0.00000000000000 9.32330999318313 0.00000000000000

0.00000000000000 0.00000000000000 13.64560658963662

PRIMCOORD
 96 1
Ni 5.676254707064496 7.366085944246383 7.01408718337492 -0.06312341082304612 1.0914096378167786 -0.6713474313115793
Ni 7.683889602117472 8.835113237714802 6.351402179260197 -0.24155462778217757 -1.6340491875362826 -0.5562193452864678
Ni 6.076998528059978 1.9682345882450076 3.279038789724315 0.3187088056666769 -0.6501360873412868 -0.6628265383247617
Ni 3.1232621342014615 3.313588178493432 13.038063116818808 -0.05019873234157806 -0.24219328980744095 0.10770685386037579
Ni 1.1635770209547756 2.341241562871889 11.983789781837666 -0.5023866157367284 0.9971244566789472 -2.7802528903748054
Ni 6.305093299961763 0.7053260933757087 10.477014272040778 1.44993711814229 -1.1909565815741812 1.2097932546647099
Ni 3.9724105353978993 3.059975507932534 3.5040960273246258 -0.1582424007160823 -0.2880036632733362 -0.0085705152778304
Ni 3.926222859125615 0.8544421764462166 4.977426028221318 -0.3169691972677509 0.7493552154456256 -2.493878535174776
Ni 2.773004035251685 3.6876300404974276 1.677590663871859 -1.3958670757707636 -0.710990242514182 0.0774601391606924
Ni 6.204923660504875 8.558304172611022 4.18959703494632 -0.3087468093579586 0.44645483756611504 0.9300271488098175
Ni 7.988314310563706 8.640740877011414 2.626725035324023 -0.7795723624589542 1.1003318800070727 -0.9615876972249181
Ni 1.3415590031990057 7.5900131967106015 12.34580737131676 -1.6588433637618272 -0.22141697649203804 2.1578469219589356
Ni 1.388072995310921 1.2602038027242466 6.397646727721674 1.069976150533351 -1.6649330215993328 1.9443201468482512
Ni 4.8815171412990335 2.172303191040278 0.743121858583665 -0.20923303283133643 -1.4332622285897705 0.14789808136728078
Ni 3.8718586402431576 0.9054397481946563 2.4636053410785106 -1.223012067347829 -0.47663470358360494 0.0685684930980174
Ni 2.6223300271296837 8.33216729574702 3.4989793949592176 1.2016647120203048 1.545545646077235 0.08485797428666031
Ni 5.035249195003859 2.164676723702626 9.288836766101738 -0.21272536225531105 0.373010504433035 -1.3111510263786064
Ni 5.026914156128723 4.286158553547865 12.066768170531844 0.7565144521982261 0.742165896786038 0.7027827670027251
Ni 5.555238147110064 0.6392182335904318 6.560042933134176 -0.0173505754633056 -0.04823235264382661 0.2916155489943107
Ni 4.872697290319303 8.196354643292766 10.60974557063795 0.3387508119192166 -0.8727301148605615 -0.3058653740451055
Ni 8.997609202541136 5.8938234623107695 11.723376689178867 -2.293665960674495 -1.1940861283420985 1.8740518974503078
Ni 0.3536778889491055 6.904218504833239 2.1990853304952167 -1.0578048052781395 -0.34200788540393356 -1.3057329406868285
Ni 6.898820308514779 0.4082733259122152 8.40093136646689 0.5864768586194287 0.31792873296754276 -0.3980607625334435
Ni 2.53314324650379 8.058901088330655 0.8909830241680506 -0.9571759413104677 1.7260502006256275 -0.6581003364936859
P 6.050585591669307 2.815732763623885 7.4119519663338895 0.170870373892738 -0.5480224112979724 0.3376794332319088
Ni 3.338761114693507 9.097154180247875 6.7312002526752766 0.1447705914818926 -1.8628220901727595 -0.38585239339270966
P 1.75727605957868 8.164012081930522 5.484905895698026 -0.9718528265963521 0.7349765781264503 0.41979326911452863
Ni 0.05389618873532981 7.927936556922342 7.638960572655191 0.22627250481212643 -0.8001674130014864 -0.05067181532325466
P 1.5218718128691686 2.155689053148229 0.3542727161082036 -0.44094367793989864 0.22086830307741961 2.0183923433733177
P 8.169149225577277 1.594416485673902 2.871171960115183 1.0809028247481836 -0.2690371494731625 0.17710041396284984
P 4.117080332070698 0.08111186209149181 -0.09830590984711304 0.6768282519204925 -0.17976716216173558 0.7036158044269818
Ni 0.8276991948920338 -0.14520402231882215 2.2883951788091994 1.1561338174680411 1.8366765421256432 0.7597334733561562
Ni 6.283034349202735 8.718814272470459 13.053031690548147 -1.3366229453974658 1.0368706262286336 0.4408950840901504
Ni 4.354628940012067 5.710760276278005 10.227463767517795 0.6180759735819484 -0.24768208083615403 -0.22913619951316666
Ni 1.8092068946284634 6.2955648774445505 6.812650550909013 -0.11642032247397369 0.5160628276722403 1.3649300198722751
Ni 5.323358111468562 2.669608530637305 5.383750782405453 -0.26666556391719237 -0.06358029585480664 1.6066566544559426
Ni 4.747382684591451 6.754523444230131 3.7005251101486585 0.6926155966617362 -0.045977238061062756 -1.8042197071485184
Ni 3.578845662874291 6.727140883630271 5.533047737684213 0.1534480646512325 1.459389007583809 1.2129739663855368
Ni 4.964410687874908 1.6440910797753823 11.942647880777042 -0.13842356621794225 0.5069431247591591 1.64774031187013
Ni 7.281523525233541 4.035091146536085 6.0835658674152855 -0.36419727701677923 0.6343364013048689 -0.6871242345298617
Ni 8.38731467264459 4.642243721062474 3.760115044120057 0.6508004603981631 0.0627328602528468 0.4237082878982186
Ni 7.166100951101348 1.5511003887903663 0.8752415480642707 1.2371672758022885 -0.5912804506556592 0.44971602481589
Ni 2.804982987535483 6.316728790472021 2.2994479624629727 0.7185827101494592 -1.6685947867216362 -0.6509292726665434
Ni 8.242048184150752 8.274288189106256 11.90371746877814 0.5582733996020192 0.2287633895547802 -1.2399517805259612
Ni 4.530447914405032 6.992575510895501 0.703347687056577 1.762404056664313 -0.24594041555469903 -0.319018880707928
Ni 1.80092779561155 5.199880197752346 11.802862566058026 2.3963074841968215 -0.4878022901646503 -0.08418357392745501
Ni 4.937335796495272 4.3717092433893034 0.8945025735812092 0.6696523029973434 1.312625296931288 0.7886462997357644
Ni 7.289849240798973 7.566891388645349 9.388449803969314 -0.37318919610274437 -0.3225973420878057 0.3746902061283031
Ni 3.412070298893946 3.0793586688065915 10.810717902280611 -0.25895122599207016 0.7829978432007355 -0.8389543039616971
Ni 3.3475157025053104 0.6935358359243703 10.54053491338327 -1.1039553356922729 -0.04246331137053332 -0.2580168871032589
Ni 1.5161193307819667 2.2372493664364703 9.618869809311212 -1.7121014517550193 1.0473573846925706 0.339549396561112
Ni 1.9316872142063812 1.7825888454243106 3.934342529546594 0.573097094878413 0.4984476856936383 -0.7683003890895607
Ni 5.757749757184811 9.12650395919522 1.8478473516955776 -0.16908294297501206 -0.7294800737882533 -0.3577656624588225
Ni 6.829613380583982 6.3199080390809925 2.749044061644066 0.6026084740739686 0.7367449828807828 -1.259597579781347
Ni 8.60659891687635 3.659762667792975 7.940173400908489 0.34867552723209627 -0.7474178892135966 0.1018784201040568
Ni 1.4761130088432557 6.459692421469035 4.07788047642136 -1.5678751628123708 3.2381853895632164 3.401819650718831
P 0.4707851851447631 4.033739266629044 10.553962344018585 -0.8403447565513205 -0.1149679062981633 -0.20753121964888127
Ni 8.45757513457191 7.457957838066952 4.5211171460535375 2.9572067514574623 1.0753777811648964 -0.048910866768089964
P 6.989899721010531 6.242422012133281 4.929339193762383 -2.2661479577598844 -1.99146055197948 1.4014137166206058
Ni 7.443525354645576 4.248874638042643 1.6880430263807122 -0.3985058204906621 -2.013482821886842 0.6142406589962583
P 3.649245974447166 4.945381812769593 4.393544434715442 0.3871070917354172 -0.1311018357455484 0.3343503688586758
P -0.16186104743550844 0.5833277889094738 8.345066094722132 0.6454535942639529 -0.045688760286366474 -0.9712468175812371
P 6.612790490114007 3.0207803139380474 13.080200747355791 -0.006456554258621139 1.2073527635440175 -0.6411467393584829
Ni 2.5989751363218367 7.313306688013561 10.67733210734224 1.631804871586796 1.1489056751507183 -1.5006246171948285
Ni 9.415051071216002 0.7562509433084595 4.766423679999382 -2.305190159264011 -2.0046140586423022 -2.38914233390695
Ni 0.4818500891011514 3.0007538446944326 5.514544697246188 -1.244909895862185 2.376897969321958 -0.7320969425858102
Ni 7.994402431800243 1.5419169287321912 12.043584828622548 -0.494597972930245 -0.5434468761121479 1.5562941428429906
Ni 0.014461385681457595 5.405692259462214 5.778968677739533 -0.3181632175758521 -0.601315466294158 0.0946883301135208
Ni 6.694938171913583 3.366917509998775 10.624960279743467 -0.11080760427288659 -0.7013444918943018 0.5751953721683384
Ni 5.980670092201026 4.340895704818472 4.067264023661721 -0.18136253167331345 1.543318813629245 -1.2288304738018192
Ni 3.6285482269048828 7.048916271435149 8.19958983175996 0.5592270217645401 -0.011980312290327755 0.8058040424619736
Ni 2.0470165552415374 0.43332226209323005 12.67323361713307 1.3535058371957336 -0.8545033074398897 1.3509982402825313
Ni 8.956567993225311 9.187002915862735 0.32720808036924204 0.024934301347834475 -0.21048670273277942 -0.5658134167328063
Ni 0.26180972445241896 3.3171030662517387 1.8957570432701416 0.31603485837893963 -1.153525947531549 0.8961137838918244
Ni 0.30507267847064323 7.151966813590491 10.105526996895607 0.2082742684624929 1.178883452459731 -1.8064851061439273
Ni 6.499288517780782 6.769459386375508 11.828598630164208 -0.6332943331935997 -0.8490787939902086 -1.3334895419748067
Ni 1.9901816592875914 5.616818607703209 9.246945270940934 -2.1910128671879425 0.5162078378905368 0.5687336757033947
Ni 6.835794734917556 5.53703904656838 13.718882890638257 0.3368433104838586 1.0770551688673193 -1.0982004354863668
Ni 3.3958104467706383 4.112111007998609 8.65487594685324 1.0759948459236048 -1.8820608837977137 -1.4389528512166443
Ni 2.8384070528233596 1.703713645330744 8.044098469514042 2.7238428870161924 1.062032984426874 -0.6088179453187902
Ni 8.960493106610581 3.4626119607978727 13.242596952768293 -1.9685008578595131 0.2933878104033851 0.10999410723265574
Ni 1.6430282224691568 4.5277721245200615 3.6296493097808935 -0.20450400278678327 -4.871125660306037 -0.2883993560498581
Ni 8.43493813861125 1.7634574139122539 9.892054903933154 0.07677339750631294 1.1189209558631696 -0.737315253561956
Ni 7.930873399479018 5.107010709793479 9.633470112307254 0.2021810110805615 0.7172673337721454 0.4892711614006929
Ni 2.8231168249092407 3.403427590798587 6.023866850720354 0.2872289898908408 0.32421662285878355 -0.01820263905095575
Ni 7.690453212148899 6.22784967906635 7.292676068301144 0.17968874351531633 -0.34929413465270165 -0.42599039906417596
Ni 0.8683236522641021 5.24801644575271 0.3748063733997014 0.3578430526639773 1.0589970258140278 0.724974472608416
Ni 4.7082993703134095 5.128584848447912 6.87900920772532 0.7012179936187665 -1.132132055236805 -0.0025819017945632955
P 5.9735284369679675 5.7314207305814735 8.63311068034988 -0.4599443874121176 0.659965928947515 0.5674820626844808
Ni 8.002234011951376 1.684759356703058 6.467894137015408 -0.22872970810336737 0.8983051351161884 0.8807095335216122
P 3.1058928082234103 5.356194808245104 0.2614759499650254 -0.21982520652488594 0.7850655243630414 -0.7353750991164497
Ni 2.043688133677305 8.895024825870982 8.589076688619159 -1.7527757895459295 -0.511221440419539 1.7775812786253837
P 8.60245004405819 6.978292200429385 0.12602317726533577 0.09754842527013523 -0.084773384992654 -0.11060243024061597
P 1.2589731258433539 4.320598859593448 7.60165334887571 0.8579115617904902 -0.546262234073756 -1.0420375151415537
P 4.25698591748489 9.266120522008597 8.695048223704678 1.0079202617428706 -0.24449545557805635 0.22430072579773627
Ni 0.7386503992497555 0.14232778127522105 10.708485014386286 -0.056232083019851546 -0.31488840347932223 -0.15948347221203502
