# total energy = -340867.4604774177 ev
CRYSTAL
PRIMVEC
9.31775800377925 0.00000000000000 0.00000000000000

0.00000000000000 9.31775800377925 0.00000000000000

0.00000000000000 0.00000000000000 13.63748069194307

PRIMCOORD
 96 1
Ni 6.315893247777333 6.709605798772979 3.771881592383646 -0.7078653237319551 -0.5402466240072953 -0.9452370237810365
Ni 8.001242745134686 6.682220907700509 1.837637072284288 -0.6947516691681326 -0.9616789713871435 -0.9594714222128639
Ni 0.29561239833205377 7.922134978817816 2.717499925338379 -0.10060289582574287 -1.8306272506077699 1.7803308163460627
Ni 1.1511624251611021 9.04171952175891 6.560228159702437 -0.33626121272814347 0.6557547190796449 0.8570772388146529
Ni 1.9349629192493027 1.5426666674857128 13.615210639298063 -0.2984220303931828 -0.2669614978910564 -0.297404644872262
Ni 3.7158194371894515 5.409238113066288 1.9737937443787406 -1.931288510475274 0.57523445293639 1.0899621067369745
Ni 3.168829765356052 0.5527853173751066 10.44740116845458 1.3859585584078002 0.45907226921980937 0.3726317809373776
Ni 6.707732929393746 2.483732282880879 13.248663080283595 1.3806392030774157 0.11286654368444432 0.7213942114563253
Ni 4.962544789481981 0.7805644366981125 0.41760421455431457 -0.38908786961087183 -0.3009424828221914 0.602369104369653
Ni 3.1046210942500974 4.07855044248385 7.48088136241558 -0.5493820106496603 -0.39701509487774855 -1.7298821727772078
Ni 5.737661133015727 6.854031049410375 6.167809845307663 -0.7516900342263892 -0.06902383546788113 0.1817577102292031
Ni 4.391906647576471 3.041856675650517 10.42522676771478 -0.4768241938865917 0.08798700683394525 -1.2861943564332687
Ni 3.1890306649290756 1.3848611162086202 5.857148335859192 1.5873733807462986 -0.5625406595188054 -0.2413394264475779
Ni 8.587870159949473 0.9694102355525186 8.02753932206042 1.9830075361161201 1.223721434710028 1.0295954327234589
Ni 4.822983408575729 3.692683443813151 3.166541323965307 0.38101434857411803 1.190507924072537 0.9163306251593315
Ni 5.634988756449697 1.2974698629358372 11.627657361524726 -1.3188874757909157 -0.6382239092847332 -0.3181249081387489
Ni 8.084385100711298 6.169856024987661 5.523588435866115 0.011600046132773571 0.014945822676554903 0.4291232882662029
Ni 0.7324596469261327 0.4045761251710108 9.920844408371034 0.669475411099847 0.4959071786599718 -0.43273697375939024
Ni 6.395671892677808 1.0128216705666881 7.472957540922545 -1.3012769617980042 0.18842072407167548 1.2289109493307673
Ni 4.18536922140689 8.6366672591487 12.181748096810432 -0.07735369548981516 -1.70510085206747 0.5940341021413963
Ni 1.9148365617411236 4.211971420798488 3.562505045319276 0.7053129896237466 -0.5532535777899247 -1.6859404770889352
Ni 8.763165143190848 7.824932126259795 13.167819415631643 0.4143594996934671 -0.11266908296165756 0.5203735392324522
Ni 5.592909760844634 2.8314896508995173 6.223000790118981 -1.6110113318802128 -0.09304282409029783 -2.068244491008754
Ni 4.524712653856136 8.927912424256641 7.897669341359841 0.13250257274781696 -1.2726706109152213 0.38242357021681883
P 2.8436865962597984 9.00734631210721 0.5721914121817198 1.0292583610990145 -1.1654221847485027 -0.5725363372789365
P 8.284157834496186 6.356248458132852 7.912111866423581 -0.13677137532649994 0.5487461768378743 -0.7753902060568066
P 3.2328334457836823 3.4671191555918552 5.392191274612022 -0.6834786673574745 0.3800044192523649 -1.0487576074742067
P 7.361355024988073 3.7136111285184152 11.138807704943078 -0.9422527443417321 0.4653694150824308 0.7249343633990999
P 6.071721396619076 4.874184489366212 5.01872900730736 -0.0683751461402887 -0.23223335038125165 0.7023724189381839
P 5.588148386452652 0.435911745680273 5.609982689021595 -0.4807908918438237 -0.5127677018607363 -0.8646643071332916
P 3.102282336965582 7.256427750960477 3.1198332661333623 -0.6126350050720352 -0.45228789930812435 -0.07329880869415119
P 3.838608853505555 2.446992362670347 12.447910788873806 -0.08284685739390248 -0.44630699913434096 0.03569359674686757
Ni 4.8290492691025 7.611583418914992 1.2328912768330886 -1.5653374839921816 -0.3594754460610777 0.893153672822236
Ni 1.2365130894087502 7.20692250214522 4.819458500684366 -0.19975620368915276 -0.46897487304550206 -0.23652786399154746
Ni 3.8080093358866383 5.824511956318383 13.12970326254891 0.41228950453831575 0.9136656767326589 2.4534127138502457
Ni 7.415714825776367 8.619038060812832 4.3868638768897 -0.19591189024239808 0.5382699598968987 -0.7566471211213485
Ni 8.95023777267775 4.451642794791719 8.637312048009612 1.5976012291218935 -1.1363131831976883 0.05894691084785332
Ni 3.3930057076196074 5.803230196805105 4.958288437579325 0.5031018966361981 -0.3668102891595941 -0.05221396299939395
Ni 1.3077566678844619 6.567892015744325 7.071006228209893 -0.5829073961006154 -0.15401782111177345 0.956490485207669
Ni 3.2051410686937247 5.24557169194075 9.341414961692854 -1.2160950285130216 0.9666741106088901 1.7996225746961394
Ni 5.699421053750187 5.054548333017055 1.0978881431921144 1.049587816684986 -0.29794663341866107 -0.08498704366535685
Ni 7.657063396228613 8.485617082498196 6.837328036230208 -0.14809785608291268 -3.5610382993052543 1.4309497784065097
Ni 2.7824689255057535 7.7628479040019265 9.284314808245691 0.6730178770354668 -0.12801959727579887 -1.0902541840560964
Ni 3.975356271463905 1.9067301121892184 8.115964846482928 -0.059036385237866064 0.48834890669673964 0.24627260208313714
Ni 1.8827275673090935 6.984311943243411 1.0901954021000992 0.5089938366406008 0.36860311939395873 -0.4206561313354562
Ni 3.252652317274375 8.14809061287955 5.826545091137033 0.9287451967736005 -0.37963803705188165 0.8901141146649637
Ni 1.0061874267954736 2.0764064872928945 5.268417903039964 -0.35572574921065836 0.1401120096639587 -1.3804702815997194
Ni 7.7307575450861075 0.9813742369601584 1.860466511418913 -1.764341125786026 0.07824483984551686 -0.8100823581223532
Ni 5.206260070493061 5.239133121089753 8.064469324536306 -0.713341773465494 -0.9878312043024794 -2.0843370256952425
Ni 0.24170730413931416 4.541000095024792 11.293402356776967 0.21994090616714382 0.7054297177072689 0.8722531752241429
Ni 2.2334013936147965 4.314177909459235 12.514324973323365 0.5261757477365261 -0.08807828099617089 -0.5881655591757612
Ni 7.173583563643246 4.236514395648739 7.123087837141359 0.4687995238099023 1.2986444092711633 -0.6089336449610481
Ni 5.320402607287131 4.211216682391931 12.404530102461385 0.4362267320802035 -0.15211571899305415 -0.06512295775157817
Ni 1.7977030245951426 4.051650074832873 1.089975503008806 -1.196228628606398 0.7741506772227507 0.5017813780525616
Ni 1.678016421728217 8.415696625673485 12.34441565426705 0.46822076848829686 0.7403033896560025 0.35705526665535925
Ni 8.018322195742321 4.517528662356689 0.5778621997648113 0.522888335234506 0.5917319363707809 -0.23710147710683038
P 2.401810553616106 0.44134586220748134 8.48319539716654 -0.23696083776390806 -0.9464806663801507 -1.155147285185056
P 8.84929849911937 2.8214916964521675 6.767245450414459 0.15955854842434455 0.9499020333568737 0.17016589162654566
P 6.67277270098139 8.350779804951502 2.13096568810465 -0.27374586780274146 0.6311947703520936 0.34565422390726924
P 5.354468330921346 8.900201411650473 10.246807540180583 -0.2145801560758627 0.3830432060786887 -0.9852464742944387
P 8.886895653075621 0.8805123007940537 -0.2774110896484996 -0.007287791910664868 -1.3937824253275932 2.1591874951472296
P 6.433902654185243 6.22909833102331 13.06382019031137 0.057891215889829324 -0.48857516377493276 0.3196436587761205
P 3.7001096970233447 6.471993649321092 11.245057168845863 -0.2247252149296646 0.8349888915560458 -1.9731954351217051
P 1.6333377716116806 3.6384634093964405 9.468911709403926 0.26341388974911406 0.3408609162836839 -0.2039923532576874
Ni 8.351879300407967 6.10337382090393 10.176710977727675 -0.3050454492469714 1.4322402150831592 -0.49310467621417015
Ni 1.5625880343155678 6.6454157631832365 10.770869004643439 -1.3173355579227635 -1.0460800606420437 0.7216263820717894
Ni 6.579604437683112 7.301665466563352 11.073402633696361 -0.4454639344077554 -0.1466364410460378 1.819870783422214
Ni 3.7429993375835986 2.6746158754329885 0.9631496338813401 0.9945896060722357 1.688175279956725 0.8391923881144321
Ni 0.5780970072690734 0.4805810780387037 1.910242906995044 1.847085139053477 2.175636898952505 -1.7907412130461096
Ni 9.373291943948054 2.842950493369453 13.080102972600974 -0.24915558005788704 1.3871068130796302 -0.5839669477133814
Ni 7.964074208051295 3.4143340559234137 4.7424062318055995 0.5583219934517674 -1.111909043321711 3.117426587614889
Ni 6.322834977566033 1.7377712044596763 3.7865281763498992 1.2881846473904204 -0.1848160374395527 0.5928524231284693
Ni 8.971062962043852 2.585733780863303 10.35069774773102 1.42585925125748 -0.658636154392498 -1.423122311942291
Ni 9.14024549596793 2.778378429697378 2.8429514251452637 0.19198093061910806 0.3215835561113107 -0.8017905504272063
Ni 7.597019762995879 8.900555486458487 9.639271076176746 -0.5194397145642731 -1.4593951782313963 -1.8695709788608188
Ni 1.1186993559210578 4.62671415183856 5.549759223057422 -1.1019447330201473 0.05105568102523466 1.9008183669108747
Ni 6.350480765865462 6.970745287441602 8.77209155545605 0.7296644218849175 1.507384047405849 -0.7780019326480407
Ni 6.360180552053432 8.330429821248787 13.343525312005477 1.5153619234050033 0.8000180319078157 -0.2542003415706461
Ni 6.9583619869192095 1.8355983468107744 9.664650785704884 -1.6639277202632698 1.0325018077369768 -0.4633215314144666
Ni 1.5144338604256284 2.1755474335368876 7.620583441469228 -0.5729561984251745 0.851728830018546 0.7630969905117504
Ni 4.216937785868793 1.5676755302412464 3.0876348212235185 -2.5232801282653448 -1.6170714220313633 -0.1423537545102839
Ni 4.707303441694227 8.442913797100054 3.936690370652937 0.6055639571578668 0.8586646379064309 -0.2243737451275168
Ni 2.180970368754369 9.26940825882829 3.898233187623535 1.1410370710359188 0.582136836483178 -0.9037612731347533
Ni 1.8696640704449885 2.3903310756299594 11.237243296898477 0.15800843032840528 -0.058457887026576734 -0.10868181617913542
Ni 8.078477642072324 1.0213753725076642 5.818908256593652 0.319104755553515 2.050696711932978 -2.275268946224546
Ni 5.366264612683085 5.313703139209178 10.26836883243703 0.8733199259257605 0.11128017303393092 1.6691773986979834
Ni 7.98188044379117 0.8275063702585084 11.426722703304065 0.29444042003761545 -0.05172185385432383 2.754556771160282
Ni 7.258114265177597 4.657481389103379 3.149480508873883 0.09729234339527115 0.6686806831126936 -2.334384778550096
P 5.741378918499876 3.0906351393335343 8.403156786814916 0.2126369163065628 0.5370723400443719 0.5853728269219725
P 3.4712562401907587 6.465443265372829 7.282141968004607 0.7178522597413378 0.27867852921766845 0.41227844879472225
P 9.11200337114974 8.289515545406928 11.07449374317053 -0.0792326576800829 -2.643798274957776 0.016847667684958084
P 0.6552815883129401 5.655087160683559 13.38899224445775 -0.8534342427454269 -0.364806628466004 -0.07942677596875998
P 1.897281905470101 2.2237481962173553 2.295706446739769 1.0126271803002367 -0.08602474090125185 0.5532180965662988
P 9.251611340846521 5.752634770291488 3.744292642408661 0.4110304353202341 -1.0381392085284122 -0.8413228041938736
P 0.21827966493430745 9.271169315110257 4.593772149831887 -0.8290622416589657 -0.15872859632388145 -0.30775899152339253
P 6.4446926180715725 2.9219837176214782 1.7700907802248937 0.09529742445242942 0.17098735908657647 0.3371042774547291
