# total energy = -340868.76636057306 ev
CRYSTAL
PRIMVEC
9.21710316091393 0.00000000000000 0.00000000000000
0.00000000000000 9.21710316091393 0.00000000000000
0.00000000000000 0.00000000000000 13.49016215506303
PRIMCOORD
 96 1
Ni 6.77629453031433 6.388134658669255 1.0853240534292579 1.1765172662203995 -1.5897575647077589 -0.26469429912343445
Ni 6.657587456799812 1.6099053494381055 10.539999121762396 1.35933375673142 -0.13617822182719128 -0.5556279915593721
Ni 3.392788076673165 5.317632629070939 8.843921230069308 1.3837198988852684 0.1365983400837454 0.5167724521447551
Ni 1.1654474107826516 4.263039319783677 12.745680516587473 -0.756351958478433 -0.21944519747764787 -1.961542681374125
Ni 4.4658708951979555 2.0854525775542685 10.885927147756709 -1.4351033955635673 0.00887364834054601 0.285699697730508
Ni 3.2974555771498584 6.802885873360326 4.122566978515669 -0.6955998761010408 0.21977969799893116 -0.05901195975783385
Ni 7.398430569454245 6.70279734852966 8.889882315718825 0.2393673903228716 0.5089215886417687 1.6361780609538275
Ni 0.7146232188717833 6.844141627770683 11.50771570210188 0.14875760115409864 -0.38827051591589906 -0.06133520857437179
Ni 7.974960381422032 2.9058577259705873 8.947161082521266 -0.6040637184632563 0.8984540019892268 0.7912577692166824
Ni 9.152390026506172 0.391898328747139 10.986631375088406 -0.13443501388383944 1.6213427957132076 3.1085647663488856
Ni 1.162700713996618 4.976498418507553 8.585328023057222 -1.1585575964181853 -2.3054004755026036 1.611473616228612
Ni 3.6053529131815756 0.1555883906945009 12.483984832601635 1.2107941851253985 1.1202409602261738 -0.23818931085437042
Ni 3.706022115520699 8.196760755445897 8.065134068223383 0.5950481452282075 -1.5808913725663807 -0.655495037660355
Ni 5.7455274330804125 7.667275038766418 2.615648011188529 -1.7408510130838857 -0.3626805832619367 1.0966660011197111
Ni 6.298249467201472 1.75385806891553 1.6374220896563092 0.5710273568335779 -1.215523472280268 1.538039567508177
Ni 3.377966974552554 8.999450631302631 5.172074290197116 -0.16006145620269208 0.14363339255365587 0.68269396667265
Ni 1.8682884064947476 1.7181510106970934 11.991594269898902 -0.8646802479728914 0.4153622299263685 0.39255165978975615
Ni 2.8503338956381503 3.6120076617705563 4.722460303950698 -0.60333095406229 -0.08117049813274407 -0.14348786811472708
Ni 7.398089536631819 8.618424797618596 3.9000873039779425 1.0735083320563252 0.5990320695766199 0.8555839420985782
Ni 2.647714313599975 2.928817530312902 9.512669082352344 -1.175130670285518 0.1954110393465796 1.0360882395366544
Ni -0.11928314247132077 8.177681351596606 6.570599200901996 1.6377094099966893 1.1933361375499512 -0.09852107359604968
Ni 8.851949327051305 6.145033558898667 7.466265684676296 -0.5372790567385393 -2.0185666641676527 -2.3366535199796146
Ni 1.9929405116434664 3.3288674652263763 1.348363591077525 1.245731877542848 -0.3615814366604869 1.5009886854024665
Ni 5.759472910386684 2.0204535650203463 12.943797543659281 0.31204810581704967 1.1132426745314699 0.1634637970160217
P 4.326941497023848 4.089988205160252 6.891247477651159 -0.1808107729349015 -0.6721285324519779 -0.6682147992198686
P 7.936985915789621 8.496602343185693 1.7620714296740352 0.1525126973211567 -0.27774650432170234 -0.686478887636379
P 2.4393340419937766 5.2606893648289415 10.880395964061075 -0.9892856773608188 0.06589197470711877 0.09979608365373135
P 3.379727441284542 8.564062322303073 2.8762514684322706 -1.691466549113487 -0.15058385572956 -0.518995685048319
P 6.326859355872104 3.8385824953084007 10.33407152134668 -0.4986865411773218 0.08748538460717838 0.3998903595430145
P 4.861616442866204 3.5348605070755865 0.8857995746821903 1.989195667204703 1.8356689267967354 -1.2447710562914756
P 0.4743204316657567 2.3729432468602196 10.220645848028125 1.1085205864654522 0.5199325950402917 -0.27080683977907555
P 6.187533622255716 5.5149155082932975 3.0996611486938597 -0.08406453185108749 0.5406389743497075 1.3604760978659796
Ni 2.1449858478260504 9.478223845576887 9.869753490191675 0.5826711117200933 -0.1022399172085336 0.977069337800285
Ni 8.204337214365763 0.7954295635803618 0.06201820132384415 0.07784837573804658 0.5554122760041401 0.5921155449624448
Ni 8.812205177583598 1.607840718296926 2.6475926478362983 -0.12686157241195573 0.9508271162743044 -0.36837609098481716
Ni 2.0816919994042626 3.35309922982531 7.297179767896334 2.0816157701093374 -0.75745393329336 -0.7934365220355561
Ni 7.080772321018469 6.1265717009710645 5.220692666730572 0.11636684352821895 -0.3575980265327067 -0.38737422935387483
Ni 3.108633998765013 5.106395055439001 -0.05218908235529981 0.44928176549194876 0.207484682681662 0.44767508312646126
Ni 9.15685110450765 2.4629851290842533 7.083118073810568 0.3586100127369889 0.27458147633015934 -2.3479794865153947
Ni -0.10118904696574182 0.747260981688377 4.982321784378078 0.2695806806814583 0.9174819651549554 -0.009638294420712434
Ni 0.6394162644233236 8.587040560852005 2.957597013684416 -0.3089506978386486 -1.037125165441601 0.13712593045244126
Ni 4.577158200548859 8.747353638702617 10.155839472953357 0.2899631009925522 0.25317395718866076 2.366705602169988
Ni 2.036537410294268 0.29233886564639966 7.457523262187864 -0.55288462448628 1.7170428549206944 -2.226265262632334
Ni 0.6297567401556619 7.308176693854108 0.8356926359643568 -0.15103302745183667 0.0013297745550170646 -0.22405929921089154
Ni 6.592173674616992 2.4504222172743075 6.849657142390692 0.08728638122249484 1.176514695117238 0.6331858326401935
Ni 0.309414471236352 6.614303939661511 4.885839912072159 0.8834030211933753 0.19569848868001136 -0.24730438578176117
Ni 6.329016158046373 6.354224935596043 11.307534965599224 -0.9697249816200718 -0.05122897337830532 0.06947352141079002
Ni 8.212383745554378 3.09200634439587 11.680105950418062 0.2598192304193203 -0.32446499142416374 0.8848045295265923
Ni 0.1555588959639126 0.865265711930762 8.555919933240046 -1.3070205491500007 -1.160947951027233 1.6090940602528416
Ni 1.775748689274019 0.5550834559887837 1.1030761944020788 -0.8438427424022499 0.11237674853221935 -1.0930854828573047
Ni 2.2143445502250527 1.1745262575418562 3.371205307565191 0.06574722159913839 1.1979538388276207 0.9562961098086756
Ni 7.688870711819025 3.638534485093391 4.600388066018123 0.19082881929253587 0.19237996582973965 -2.599146697686672
Ni 0.5004490761256494 4.366676429388246 5.828438042474399 1.490535865500259 0.836744697904888 -1.4567567121672846
Ni 3.2831045472979983 7.430893207307971 0.8432432869949564 -1.7959600382428877 0.5506847886214838 1.5005569971816868
Ni 1.5081669631151569 7.105796756501962 8.34668707957778 1.3264583461596382 1.2838898766698081 -0.40792274292918773
Ni 7.8841626967266745 7.696032401089991 12.844294304888725 0.4556966678793572 0.05290019043314115 -1.0398608192052092
P 3.6319534733308805 2.80886614785169 12.786583255941101 -1.5115137533035063 0.1365487177927326 -1.3852836438279625
P 5.39256767897179 7.049535557904818 9.003928300090065 -0.7918771479682362 0.6303619900381531 1.3110494678037357
P 5.520123171662791 7.778119923158498 4.955044688845904 -0.4055164474805404 -0.43800670679876175 0.43076673740689686
P 0.3420992412798208 8.169422827031887 9.68163333336863 -1.3256579617455297 -2.329234344697408 -0.7304774047045162
P 8.092561402539491 5.531819675761706 12.429714528319199 2.699291165818758 2.217759539154168 -2.699492997416918
P 3.799925964031136 1.1051491209362363 8.748303000343427 -0.0841383225118164 -0.23273163017390885 0.9819112392736186
P 0.2911222080096331 2.572558053219714 0.5236688027812729 -1.759732937590053 -1.0312399103054175 -0.7617096232459204
P 5.838647827809598 9.478039503510711 11.942206265239157 0.48312031130794864 -2.5742437637974054 -0.8703227909706495
Ni 8.788323662910399 5.45829484266711 2.853546977851611 -0.9977353507900686 0.01558499892245058 1.2525774397097718
Ni 6.939142311574872 7.790876394137929 6.97275432221121 -1.3099222961778278 -0.28509240316381224 -0.5504222789887165
Ni 4.187763237060401 1.5069410883750816 6.737135666906735 -1.8850359072656373 1.4069521299403318 -0.0689742131768683
Ni 5.972406431027449 0.48442698544389706 5.993166112809943 0.08480578089248621 -1.7583064895561717 -2.5306208849011322
Ni 8.623899756984047 4.696215523989115 0.6997127108490768 1.808607808913885 -0.7556366775789631 0.6354327196928411
Ni 1.7402536244316857 5.589841341090838 2.256957983952801 0.14625720332974812 0.1742958546345192 0.053319794469063014
Ni 4.929011902260424 6.268561177443706 7.1423398059905105 -1.1920241036067472 2.0181948826505307 -2.867768871109603
Ni 5.8652483879589035 8.345672276503477 0.36600011186996734 0.28438560690477477 1.2229318489291972 -1.308740617164901
Ni 7.266708946067649 8.37887228262191 10.424105108177734 -0.7017255293828044 0.7915393050128433 0.5060098143116124
Ni 5.05344279692973 2.8498453891627817 8.688797381381573 0.2735666619123998 0.823718460848549 -0.13393621987054996
Ni 6.25403502262898 4.809125039522374 7.873196187209819 2.163552714094461 -1.981692931069755 1.542948060553388
Ni 4.030510237508325 5.201930331235102 2.2136947444417796 1.4334350067222088 -0.06500648677837191 0.4107427288764861
Ni 5.8936001977368875 0.1296293409354909 8.484786016743762 1.456759540380762 1.3614333195729262 -1.489924200058189
Ni 4.496305770323737 4.739130356995062 11.500147538574993 0.3502140753638097 -0.7673215701160591 -0.9914968260795248
Ni 6.499495700846631 4.4835032138277615 13.012961765178465 -2.5881007242851557 -1.6143627648509489 0.4679137787708393
Ni 5.056972947497014 2.9452700597191765 4.948529118516887 0.9515606520062192 -1.676766781009467 -0.09724374954552284
Ni 4.205349470173664 2.680149300143774 2.4724907277266577 -1.4393747692454115 -1.4303748797396463 3.599433354143685
Ni 2.7264652442706825 5.610275659126531 6.381750892917555 -0.9492780266196296 0.019167059846754087 0.09310967277249126
Ni 5.030667334653592 0.5285621629279347 3.5894488014221766 0.5736622233532637 1.440093649689307 0.07986412061649471
Ni 3.351956309015015 7.30356814219969 11.45710090099173 -0.9306920360873262 -1.907511205550018 0.2846064646663292
Ni 4.738604982106457 5.132885010348601 4.811536233747965 0.5800287890012399 1.2487590944049463 -0.2312208499563373
Ni 6.998869141016138 3.9581928449471846 2.0011437335883318 -0.7978117682851162 -1.0304292414786642 0.6371216773594899
Ni 8.205581523312457 5.0591481838779 10.185747129769872 0.6069006736914193 -0.24113219553277826 0.5654164384047037
Ni 4.181808988322892 0.40799231283470017 1.1862504129506979 0.19175930152660522 1.8185098985189456 1.6584044764521955
P 6.799890314784955 1.7657112637706949 4.213530571070588 0.312392633640662 -1.1028348489345845 -1.3926097451757307
P 7.800600438128753 4.161088940084626 6.550971379405826 0.04951481890067601 1.8926198902604825 2.103200952479281
P 1.656341115908029 8.588496863174802 12.605099413500422 -1.1205937155799022 -0.436429592119629 0.10381754610829863
P 2.0198360190986544 7.642001741493586 6.20837533625766 0.023329161644243694 -0.4467975656175144 -0.8288778935623015
P 1.765655961150842 1.8431072802550037 5.642287580628455 0.7553479426939507 -0.6907687732609845 0.11668746009243129
P 1.0229786449379499 3.631778348368013 3.629325677177531 -1.256387043263849 0.9449603730808822 -1.3238857003364557
P 7.903666087328174 0.7120710029655662 6.872941388769477 -0.21671417169973 -0.7709190576593304 0.8600358072223446
P 4.702704364718535 6.586505156082057 13.162864124841745 2.2118706844735585 -1.145932194344691 -1.7166145091340241
