# total energy = -381169.7757195092 ev
CRYSTAL
PRIMVEC
9.20543162124472 0.00000000000000 0.00000000000000
0.00000000000000 9.20543162124472 0.00000000000000
0.00000000000000 0.00000000000000 13.47307967697454
PRIMCOORD
 96 1
Ni 2.7501595649057156 2.0829774860526404 8.147616279505256 -0.8951017976875423 -2.4745803490667964 1.6252950954927365
Ni 2.5930780770744186 2.898109264414892 6.078083326561945 0.2751656309684035 1.3031086156901042 -0.7707030849937824
Ni 7.499195791155519 6.849660525017669 6.659986285439099 -3.0674541123515047 0.3987940411550422 1.385720474255065
Ni 1.6202572523836327 4.051292113899313 9.381777471239696 0.22601462316504944 -0.6894323138377482 -0.12427787084517952
Ni 2.2822198514195287 8.273473863294418 3.0656646925212967 0.2752635899988485 0.7729155192640688 -0.6731870556234794
Ni 0.6143990535907758 7.276470369327213 6.461325703360474 1.7541096778660048 -1.3793040292057601 -0.22760356491872413
Ni 3.145265902177578 6.1640215554530515 6.606969442209681 -0.5784113080024748 -1.5981481027642994 2.121392278676327
Ni 7.582790317116372 8.198431183453774 4.865008096854366 1.077998249506879 -0.008923270631558825 -2.8020249919445748
Ni 5.891476336851248 9.209850383582713 5.9924488769194575 -0.4011028917938769 -1.1296419418250998 0.10656579827739711
Ni 3.1866995506028397 1.3412774369701737 2.1841212471518894 1.0266929143646835 -0.2980762170179899 0.7725136558399599
Ni 6.0177380390953905 8.438508844180463 9.063394725650834 1.4642851593338462 -1.4798642447190256 0.5212919372816635
Ni 6.19643388073751 5.855243757379612 4.857355621418702 0.4054675965204759 1.506460507150315 -0.7396953237583584
Ni 7.838627677044138 5.720513057901246 3.040564241696778 -0.5621917608198189 0.3285756711584277 -0.2573437722956342
Ni 5.949673076541206 1.1558063975406752 10.448535124492043 -2.7119996145243617 -0.48303675045520683 -1.834387231870834
Ni 0.9436672222551487 7.837946475092689 10.360704258827724 0.2176665083106703 1.1190631378679887 -0.7450398758997233
Ni 3.003944113547359 7.77227492480035 5.247711035350801 0.09573656887237705 1.1158387173934203 -1.9484367401197864
Ni 5.117511249392743 2.2737140324581993 6.279802873619843 0.9555227219777609 1.3957572896657768 -0.12059605111821811
Ni 1.5033298579606882 1.5354476094283038 10.61422737320692 -1.3792929734621666 -0.8045668276207627 -1.6528434374246501
Ni 3.7742546445906595 3.3546894750890877 13.498004700889242 0.9046907269275581 0.45964562522477614 -0.9877849244455763
Ni 5.7522165649389265 1.987563185690979 2.973603010412575 -1.4427531987993412 1.4678379096821106 0.22102822569405156
Ni 4.564706660360571 4.504088892113437 5.758556345803285 1.3782912716705296 -0.3710942612469286 0.31473799394438695
Ni 1.7148706801807534 4.510468256334434 0.47858579533551243 -0.10410550966236265 -1.414346879742506 -0.7279309841335785
Ni 6.9029139478437385 3.60323613305 7.186109851010757 -0.5416519889952544 -0.4012826119048508 -1.1193950672861108
Ni 5.583886039476955 5.628836162840775 8.23140504007659 0.7784297642140787 0.16539598104172806 -0.78595024096084
P 1.5959549124941215 3.084464025294918 12.013864486009494 0.337913917840218 1.6437111361060788 -0.30335212070494855
Ni 1.6372228631474093 1.9190471569797543 3.934664816552277 -0.9488648503416112 -0.5078787491995511 1.2113058346544947
P 3.3408168894021584 6.961690629735606 11.27944685400528 0.11019285350702314 -0.8296427967527841 -0.7968257502227631
Ni 4.55798669516385 5.5141825100665836 1.118196685475301 0.06494169497870751 -0.8115710268527376 1.2130657547683947
P 0.996276264856875 0.2657230731123663 8.6176649574114 0.19791272272251076 0.06252588644836328 0.0466251560577068
P 3.693983279501061 2.446472370604586 4.027979357925758 1.7640027686100008 1.1228449735079242 1.1625695457910559
P 7.5961566040556034 1.9013174953785428 5.574999115640085 -0.8737022489658437 -0.2529302166089708 0.30389719457514114
Ni 8.63020275549076 7.993251314591154 2.5442294533533234 0.22586909872612068 -1.102759515611959 0.12495227120438479
Ni 6.846144050079111 0.1976461434968725 2.2333924001915184 0.03732367615112282 -0.7003386763376068 -1.6155814677493983
Ni 2.9592793585686055 3.8026810179159667 2.2165906461133607 0.5039004812780934 0.06898141226571991 1.9292344561597226
Ni 7.981136966373503 8.616670770779557 11.196910952698705 -0.9128442092726279 -0.7799539141680889 -0.7378456721441292
Ni 7.175606453353964 7.230341950696023 12.841058141628269 -0.2681596319642156 -0.6342019326095335 0.3780475526363102
Ni 8.202518395162466 1.8297268524540236 3.2042220899890843 0.20646138362347025 -0.16251865949393304 1.7705446834935765
Ni 8.178280493295388 1.7506521934953485 0.5455184897812084 0.5957073760787611 -2.2326590819738192 -0.21221834071190546
Ni 0.33335261874353045 4.0764597643758 3.6331915285933554 0.4319797838783916 0.6612998172675901 -1.1804901348252184
Ni 6.744313563769348 1.096900839603939 7.750267499052679 0.6563059635974245 1.9554527664263035 -0.3493591835626822
Ni 4.76191462530489 5.4568694918271525 12.302592853674085 0.3828496020106439 0.8926505079335723 -0.15262171209519523
Ni 8.440129000173098 5.0905393342880965 7.818360998445369 1.2869191504144353 -0.09525371569868757 -0.2104936447113149
Ni 1.188964362799016 1.1003712873836156 6.396789182806157 -0.43106807069739955 -0.7371581591588015 -0.9624479883426843
Ni 1.7160397700163472 5.396960541826797 11.226443818923528 0.8163471080851423 -0.23049657019580302 1.0106857403031497
Ni 1.9687012559812789 1.8350015648618607 0.24272054018967273 -0.36479891515652013 -0.18975409817111835 -0.5330714464150949
Ni 7.036972650802434 5.166797131123215 0.5501755177168538 -1.0158811684611602 1.0357977048794291 -0.047011078642215806
Ni 1.0529356974401867 6.62746901823239 4.113142489461297 -0.8613306147743681 -1.1102028592638815 -0.5923767690436315
Ni 5.393057438753632 3.4046749696345597 11.379161011549666 1.9149872022120888 0.44202868347396135 0.011268630935283819
Ni 2.5993745924094287 8.6870462967096 7.2668939586502965 -0.8497187415670527 -0.5596034312673523 2.1554534820260947
Ni 5.377039987462818 7.706143102919196 0.8994645799515668 -0.30918184001284815 0.4203419425291471 0.549797500920524
Ni 3.5589672116376283 2.458945730661513 10.52021229847526 -0.04554760672281188 1.1569372872059431 -1.569169456143762
Ni 8.588787517929052 5.390222165766522 5.518196078321064 0.6049337797730356 -0.9257398342883734 -1.6322008214736343
Ni 6.65757078014099 6.268687314749926 10.55177956512265 -0.08639883641121894 -0.1505303767838053 -0.05453078405802867
Ni 8.899249910017561 3.912897652573967 13.129139367438986 -0.6583700452153048 0.05886952064269861 -2.7718842066951357
Ni 8.097521240321646 3.5788049171156193 1.7414090194487353 -0.2281105864621297 1.5085767821623697 1.9021936499918466
Ni 6.939652826063072 3.727776419551969 4.3874413428164925 2.43411427063195 -1.5415223838504548 1.1172867626938565
P 8.732788087206185 8.546460942621486 0.2892586005349094 -1.2488663094067718 -1.0972270158295039 1.8993839484571935
Ni 2.5929307901659975 4.741865194896043 4.704489300797787 -0.8741236527739784 0.5441500728267596 -1.659135698191265
P 5.098529649069952 7.041787091621454 6.216506324725798 0.10468889296965841 0.595933118936322 1.0567012878013156
Ni 3.9841292836592093 7.331758192575851 8.715102611677498 1.279436468884145 -0.3905729387968306 0.1331592324952094
P 7.6269395679156515 4.314153218272418 11.196331931039973 -0.47656554090856623 0.41871854799311115 1.370686205629762
P 5.41809621318525 2.6703760877002622 8.73082548915147 -0.544530853204946 0.43435522608910354 0.10343496595789928
P 2.358983947002345 5.98641195476054 2.2424459423435392 -0.6746340724826511 0.3200802320929068 -0.2975537688556166
Ni 0.1735076602929798 3.1872058493505384 5.675655909398367 -0.44492194586135636 -0.18727555472363874 1.1601853618295956
Ni 4.105125478927292 1.2413064478792288 12.319919317363494 0.6189015548070373 -0.6875291832777644 1.1742423541432938
Ni 6.383930115157802 0.2717590747281059 12.89043699821968 -0.0503339723678617 0.8465912516816645 1.0416227962016384
Ni 7.58979565069816 1.8300306317026427 11.492725661744716 2.6067846738479044 2.242792313753079 2.052432206566846
Ni 0.308724406569137 6.1734203012966855 1.0563205347043432 -0.7450303628180266 0.39163403307149325 1.3805764681602803
Ni 5.066163350944374 8.27989004924252 11.334228378506221 0.432886611963377 -1.033144583527298 0.4457927785020838
Ni 6.1597318242452825 2.9024542282133203 0.23656302687448555 -0.330041971291309 -0.1384780736049615 -0.29196496191392945
Ni 8.203899209928915 0.8177332333822427 9.345750172896674 1.5928310614267602 -0.7095010595631652 0.7226756492719103
Ni 0.40197543046336065 0.5515729022605007 12.407561471676399 -0.0026994012090340606 0.9220302466472702 -0.5357775324923483
Ni 4.578284672230658 0.5908846986613183 7.976844473536201 -1.158303057205218 0.09109829876941732 0.6948570843977453
Ni 3.613702708979687 4.08019716967699 8.024997166615005 1.2991205775766337 0.8679118675363117 -0.5869075183989441
Ni -0.24638614312300733 5.51363938959178 9.89367312145786 -0.06631209296367288 0.22063587535163937 1.8946595463983307
Ni 8.484628057379878 -0.26106972734943146 6.8779801153343705 -0.5068755047460174 2.353667795149424 0.8442086103821009
Ni 2.7103368670413115 6.453283838160672 13.43063935115006 0.2856950697448177 1.0812193275473378 -0.3014487330346486
Ni 5.150899350445493 4.312763198074192 3.3563869567086426 -2.015493681669284 0.23339034680383033 -1.0449397763900132
Ni 4.047517886871018 6.625581904718243 3.4086084506325856 1.1925339533636299 -0.24831714331699167 0.2445299083604176
Ni 0.7142071065392793 0.5837173494802677 2.091978557243536 0.5728602962772585 -0.3272528385819461 -1.2999538721112063
Ni 5.055494255515608 9.031642429824739 3.804757763324707 -1.45019345712747 -0.038577603162881946 -0.043611823152679724
Ni 3.985132675722829 5.117235086439454 10.036743942125582 -0.20576718576992303 0.46786929868614907 0.7337450197121943
Ni 2.8237385810939215 8.768440724475909 0.7504424476404474 1.146510178335348 -0.2298057147763655 2.0785944667845104
Ni 3.610324315517774 0.7894200868677842 5.7607923451817555 -0.7730435602015009 -0.12260973911413724 -1.7991060400710372
Ni 7.630419221127104 3.1983444217998973 9.414341686148466 -0.5061144582102767 0.014995444967567724 -0.05211446130705219
Ni 9.506357341098306 2.5417025623307206 8.032919361201715 -0.33329595945223245 0.05576362802386525 0.18592649689491206
Ni 1.8563857828782757 6.780426472627891 8.575952384403315 -1.5377330920113519 -1.6326129693103884 0.05218825196778109
Ni 3.242723808393585 -0.10312661110387057 10.085974591265396 0.013542000350492805 0.6488441080027406 -1.3331103042585168
P 6.240951348807843 7.430808638489164 3.064142114105492 0.5963342110294827 -1.1216031306810232 -0.49407475343692325
Ni 8.224602225993882 7.468219513228169 8.761085584486622 0.2765206023344011 0.30303073280978776 0.8918529517329414
P 0.7849250745314023 8.827429131298633 4.747118734810795 -0.1312159927259095 -0.4726880602310311 -0.4595630928132988
Ni 2.4319554046933134 8.694272560654019 12.180742394337159 -0.4406050636535573 -0.4057912984084818 -1.4906970736684715
P 1.436535244991637 4.737400560484522 7.290215920055629 -0.12214976875858317 -0.09083116115095971 -0.48351214742972853
P 1.0210480817669794 2.687967667824829 1.9806913308699488 -1.1924647906885915 1.0787605815942003 -0.05666942766758627
P 4.998954493545389 1.1614953543784472 1.0565828895099685 0.5813757899474375 -0.5950676856122332 -1.1163678504240129
Ni 0.4707841919050727 7.025070027515639 12.40024591504375 -0.6386607397118356 0.41901551040823964 0.46825959214603224
