# total energy = -340863.257797141 ev
CRYSTAL
PRIMVEC
9.25435094305942 0.00000000000000 0.00000000000000

0.00000000000000 9.25435094305942 0.00000000000000

0.00000000000000 0.00000000000000 13.54467804929473

PRIMCOORD
 96 1
Ni 7.015649484202909 3.929934201472432 7.029823448246858 1.3994550502323384 2.4132214863433408 0.6466697260592411
Ni 8.122793770176926 7.799104334054444 2.1694641972788857 -0.23545005754633644 -0.3451171204568766 -0.9494209799553972
Ni 3.4890661725551735 1.8887019938635459 5.777224825328234 -0.3762902036255713 0.5579921209161744 1.0872920161039792
Ni 0.7684970422749913 3.8781190900320635 0.29464372996660815 0.632051461925434 -1.1160518618454909 -0.2516050700396441
Ni 4.560720022313115 1.290213858132149 9.721029448130693 0.41228590499388995 0.4865851299280975 -0.5996267657378254
Ni 8.24027775655583 3.658207946406865 12.32747207058717 -1.1630950792772226 -0.14623714872509008 -0.40049482589623286
Ni 1.0219487303533648 3.8331336896549186 10.938654953056052 0.21350877738855487 1.301218597756243 -0.41741345602844243
Ni 5.48463741216142 3.949211014676627 4.9611992870119055 -0.7494572882411287 0.5624861521317862 -0.21154985388997113
Ni 7.563997546031124 6.997520210526953 9.430143910119066 -2.8703582291033336 1.4728196791674184 -0.7219691101231889
Ni 8.897845669289428 8.488090768549078 7.171405764718764 0.17650957445638632 -1.4145160583305187 -1.0811450226659767
Ni 7.4548054581788445 0.6888022729090545 1.5325122023441298 0.5533052569634663 1.5739555646784957 -2.149266379378776
Ni 4.693825353237713 4.066695001055531 2.2475496349999786 0.7666533404044409 -1.4938585021155886 0.06662551043903363
Ni 3.7060066694984 6.353833824344624 11.687838164722711 2.2276456879196282 -0.4638334380538786 -0.2061137704760644
Ni 2.065145450681205 7.969338121328169 10.01188722308922 2.120742303797154 -1.080801523283629 1.9650545511821258
Ni 6.086077685872721 9.150387654661142 13.525594030707998 -1.4620331300748755 -0.9475057652105552 -1.651661244191091
Ni 1.7299528562232376 1.3621016569656523 0.7771803998503616 0.5565880414797962 0.5002454010240095 -1.0650630295024497
Ni 0.2957829405789156 0.6057361434613663 2.4718491918855845 -0.4764292724410181 -0.24736069294099333 1.3976177399132832
Ni 3.879183340400994 8.6896505340735 0.8752404288436268 -0.09294743616301412 -0.030096819385380426 0.4740867403507706
Ni 0.7261639389042425 2.9398574560807798 2.5368230650614523 1.0781748842940593 1.2513512806121547 -1.5226412306752357
Ni 8.704355697866811 2.138995171933954 6.961043260490632 0.41645469165959886 1.1543265890559733 -0.5038470023323387
Ni 0.7524407432306905 4.179366724896662 5.715204015567372 -0.400185265075614 -0.3411051710840061 -1.2118133704185325
Ni 4.218910566865709 9.120588644331084 7.060623779358813 -1.0226382846793354 -0.8124048356079427 2.4217493213086936
Ni 2.664429460601541 6.119763523637133 5.9808149954695535 -0.4729575118423339 -0.5739519866795406 -1.9822081801432765
Ni 7.955780497063096 8.8191281593927 12.124545437415001 -0.03832743482528883 -0.48556980128970567 0.994106752898546
P 7.138945203031277 5.311747626140885 11.496370269001062 0.469216813852979 0.24843618539335924 -1.5918643266381163
P 2.274136460086072 5.857069515180924 10.357208704754095 -1.9170271154602534 -1.7229013705840006 -2.337242559713865
P 2.785161724193442 4.075421854080762 6.568884582806672 0.9399135546855941 -1.4428830395089858 -0.38961237465577414
P 8.877754473194225 5.8568936825112745 7.1938086977023055 -0.542935226583052 0.29473198313610527 -0.41405559529980296
P 9.118469397944256 2.5282331764315273 4.276800234324913 -0.7574822154281341 0.6769043565740664 2.584918984123064
P 1.9235076081030937 2.2423847816878033 12.280729268948637 -0.6272918357532615 0.9834729273337838 0.926864691921436
P 4.683608549695979 3.483717157657418 12.643591447563695 0.9030791594660641 0.24239537851591805 0.7778517802234217
P 6.375785144997697 5.099832241809218 3.133046661094786 -0.8310419910931558 2.6232135088278885 -0.9767798315843241
Ni 3.4443769114111227 3.9875147736070944 10.917592975537362 0.8836169369763943 0.3262686202918058 1.7761430035169607
Ni 7.736841060296488 4.644536679629675 4.687203865072757 1.8726233925338975 1.7852740192839511 1.3001945273671027
Ni 3.2255392725058893 3.6448539178645447 8.759736510760648 1.2301093405142427 0.006903669098368756 -2.0672695286899945
Ni 5.8270484004260465 6.562214046581236 12.661132144513878 -0.671800716798914 0.8121898913836593 -0.731826719643559
Ni 3.872483190252248 2.075334491169836 1.1572778818314762 0.6560586234733089 0.522498555995255 0.9431811696932724
Ni 1.4584209425293884 7.8299861034555 4.262740098798685 0.6251863593744845 -0.8613049037427553 -1.422636373444808
Ni 4.877033740661356 5.128594764823447 6.936649716599639 -0.887501102522149 -0.051841667261639746 0.9158624272736614
Ni 7.5576120438175405 0.5725352336911452 8.113221994902275 -2.7035409422340475 0.76723518104984 1.3723864761503204
Ni 8.634679688930476 7.0865100500716185 5.142521637694783 2.110731199418055 -0.7391721042650365 0.8892471386789782
Ni 7.110265969176356 0.4332840882447488 3.5819854095489525 -0.21034683472080545 -0.07410227843205303 2.586340289950623
Ni 6.093314588381448 1.7049568540799198 11.504552040750381 2.594561649419151 0.04399363197213068 -0.8473103892358762
Ni 5.531927145946075 5.586999788950475 10.033559062341059 -0.2706996247772499 -0.45818343885695284 -0.4877763220227212
Ni 8.89156196493722 1.2884277683825522 13.235006482799669 0.38942494123531646 0.4485901387415629 0.6211253019312335
Ni 3.151430429424183 6.533340471354597 8.091617712412985 1.4526630017138853 -0.6582939405617309 3.3216444266198213
Ni 6.665733217249563 7.412929519749184 4.236219905040038 -2.9131354721698606 -0.7612329407198181 -0.9999439284056134
Ni 7.701156282708692 2.776481142923382 9.430752846417114 -1.5410027639015589 -0.5616893672621036 -0.3149004876641803
Ni 4.74058758901342 7.994556227896307 10.163655803744446 0.37578858139880444 0.255511861293218 -1.1334870266028025
Ni 3.7911004272576774 5.501174937459498 0.5737216414937271 -0.48882456078157754 0.07683536109249993 -2.1748681391072804
Ni 2.3173450250646543 7.456360189152587 12.979350408304956 0.4189026389794592 1.4724967486103608 1.4237213789788705
Ni 6.882257268396251 6.556818759928309 6.67292107169781 -0.5831927885515181 0.23137845858012412 0.2632912481283207
Ni 5.213716285635827 0.2623997200933213 5.179742637554251 1.4067567261000742 1.0557294108063495 -1.4679312407268654
Ni 6.407499805991829 4.34223404874718 0.7258835320679068 0.3941004923341148 2.9775225801966787 -1.1910177738294196
Ni 0.47110847179164567 0.6410942424576543 5.0226379980927165 -0.386088934883548 -0.18746761612978682 0.7327628583045832
Ni 6.134959168035254 2.2896745154724583 0.3210871126116715 -0.5655923018609357 -2.8017082320351037 -0.915483446667688
P 2.873216874283657 0.14699426095669413 8.840204943873042 1.1830393836096336 1.0180596641697175 -0.5030890411203917
P 2.0858381795936296 8.895485809775712 2.019335487626915 1.1246290619915407 -0.9078462418374041 1.3483433191581875
P 0.5609784001196624 2.556310877469227 8.949429421953942 -0.14173694686189137 0.2123139857495053 -1.1376301022368986
P 0.35797588126901286 7.959454474423666 13.341359335754664 -1.6108354684239805 -0.05596700228392297 -0.12291878571412379
P 7.251431839851724 8.971399251309082 5.7963230295574695 0.09848302126926264 0.42644111344834945 -0.050024668657559
P 7.436740964960127 9.08917937692108 10.206050911267123 -0.8649157610224654 0.9453426961209653 -1.5416735647163382
P 5.377999525194574 7.184282268747721 8.163770185686065 -0.3110764859323997 -0.5780372124925076 0.021320358744331025
P 5.416349555880212 2.032042637031946 3.2612879051158195 -1.802597083943431 -0.392123314003086 0.6909140405895972
Ni 1.9935722997828638 5.37083665749412 3.7589323030628705 -1.5099633780972512 -1.1798108493700068 0.4880773982029078
Ni 7.101289248673202 2.375860286653768 5.091661575281142 0.9651733576936475 -2.0106625788292276 0.509164300780194
Ni 8.436571796341804 5.176134366086025 1.66338168205887 -0.09783150372819281 -0.6454073144070498 0.9274907555412091
Ni 3.454797310675608 3.507343515847677 4.0814723487869085 -1.4751789234282142 1.4214297547312165 0.7253174577701315
Ni 5.885480372855854 2.0876520323963286 6.8984264705231695 -2.2516909017942903 -3.063275555493783 0.4738890225176677
Ni 2.938386014266346 1.4715713753489568 3.3670577339556598 -0.51493051384001 -2.0899656847359296 -0.34384776682614976
Ni 1.4612250108927447 0.993436074817059 7.471122729922309 0.25896742394198624 0.8980595947642857 -0.10337685902645423
Ni 1.6937868523816655 5.413101278667216 12.410433625868174 -0.6559184983510188 0.024110777005274607 0.7968563463503825
Ni 9.03773443952208 6.8545775044530215 11.247893720038665 1.4406281820365383 -0.048105083037342955 0.09837940581186283
Ni 1.8132327611798154 7.961897623096689 7.051860834364549 0.08144637750195005 1.0755027367785348 -0.7022562050752937
Ni 9.226587981076571 1.8440960218788027 10.943829060719262 -1.7788331487546138 -1.1058834059529212 1.0717178158148057
Ni 2.237220853810731 1.9583132223426412 10.198736272209707 1.3747200093795033 -1.4485749476874406 -1.6111038915940188
Ni 3.9029855312609025 6.0917413487056375 2.832788316355742 0.36557770230407366 0.3933181056421355 1.353056922583773
Ni 1.7060858849060896 6.6936721030217505 1.8765880483598054 0.18143709366499075 0.95755235081328 -1.9212943753770393
Ni 3.985737938208532 8.252909945717485 3.5686702492809754 -0.5158059744664277 0.8088716256437036 -0.20847250051622807
Ni 7.213359439697112 3.1845517517755098 3.0022863827222492 1.2244243743143237 -1.4224186010070472 -2.91840931897429
Ni 1.688076917793577 0.17238449845406792 11.74716410746242 -0.5738216317492634 -0.09749263233153532 1.1328005420587395
Ni 0.482670857973749 6.954330154250438 8.963827341292918 0.3530006369700114 -1.897692162577067 -2.0182630168843048
Ni 5.710573138309869 6.6063573010142695 1.3869755016753187 1.436936335007248 -0.8637806189767576 1.0886001933924412
Ni 4.146606322235668 1.3536801975245492 12.526768221848632 -2.147712918848727 -0.5227878051008996 -0.5629918881236111
Ni 1.0817688554382985 4.4910069959726435 7.9861727112944445 0.2863599570223262 0.3679289761450696 1.2360627298842002
Ni 8.049582599145536 6.189698654402424 13.203812841768764 0.7610174822749023 0.5289000886462245 1.1724603225422066
Ni 8.516298030501256 4.94604343632323 9.734844343354515 -0.11529623617185951 -0.9146388392792055 -0.02309621969783119
Ni 0.2821170404067433 0.03736536773560157 9.519850036433777 -0.37772179386577526 0.13104989946169043 -0.4718902469200841
P 4.275038205888006 8.425040874953217 12.186322857743665 0.3033613766763291 0.06232071241609267 0.8701407568668305
P 2.578058602399548 3.987949728105701 1.4670108311593133 -0.26913716538613647 -0.4639468237032913 1.3555771179024654
P 5.594236691459203 3.1427868655582594 8.677844758459198 -0.5195222469757504 0.7601903583879166 1.0647835505888177
P 4.627008938770939 6.472178465369708 5.17378283548824 0.6849179709071624 -0.19145334025041222 -1.4179610794563258
P 0.01958868483404692 6.358192623681723 3.1487040976095138 0.5401661484783471 -0.40741417872388547 2.4397131048759664
P 5.742084203581248 8.526311238320238 2.077739697003619 0.7378852671328131 1.0952794051848298 1.1966135227496424
P 8.125607092891318 2.860742009089583 0.9593467473475569 0.7646231973482897 0.5614150305547944 0.05021210207801675
P 2.632770325713615 9.138588357092562 5.363326751629883 1.349298226872289 1.31260524232663 0.4479159954926738
