# total energy = -340857.3512261306 ev
CRYSTAL
PRIMVEC
9.38421989224573 0.00000000000000 0.00000000000000
0.00000000000000 9.38421989224573 0.00000000000000
0.00000000000000 0.00000000000000 13.73475438378179
PRIMCOORD
 96 1
Ni 7.667451688086677 7.115274823312441 5.371758143941239 -0.22796429069225255 0.4074851411711369 -0.8466118205069548
Ni 0.8834257398992921 2.619426597802509 8.668786393420657 0.5741239934810306 -0.5155236673393186 0.5657558240219934
Ni 1.2348131502600763 3.6403170783358045 11.28914390580629 0.7065098381453252 2.1035943312629577 -1.9865805981793594
Ni 8.573235331154246 6.314951039974191 3.1533624165416994 -2.509104865206227 0.6622009889256208 -0.21715537300220666
Ni 3.636713538014034 3.0395018034372523 11.318000381039218 1.070924116268917 -0.5153735149146996 -1.0346039416816442
Ni 9.052759567878617 7.1213933344837805 0.6668191833703593 -0.10664010315875828 -0.5166009595638974 1.4104683706237064
Ni 1.940703531884842 7.897609057700602 10.308825160239513 -0.8506003728410577 0.01718731041256395 0.6104760497475035
Ni 2.92474218209628 0.8572203066999573 6.984150061432052 0.5248829970670316 1.1801268379485286 -2.063655328976175
Ni 6.899512846546424 0.2720297574153323 0.6520268380338827 -1.9480464466599032 -0.6896369736493865 2.4670760702699512
Ni 1.2453703972965136 0.696928451918279 3.8544386935178494 -1.89180382211709 0.14785308706195827 0.8379939969309569
Ni 2.601840570294701 4.256672620871993 1.6313865163587713 0.8540178831630388 -1.0704536043904018 1.786003698361124
Ni 4.2185820735645265 6.661566574674505 13.06273982422273 -0.36623719026494345 1.7945981248983547 0.40777259050456865
Ni 2.9941760228274807 2.1462085566412363 9.180955514825609 2.5353270321275496 3.0916055127867272 -1.9790148700169592
Ni 8.755880396994408 3.64846258093814 5.676409325488184 -0.9543706106511884 -0.20851595215965377 -1.914143623264871
Ni 8.48721957441115 4.140918272254699 10.603862208818608 -1.3439778431006402 -0.08151296907382737 0.16968612377664968
Ni 4.069607587605909 5.195441795791187 6.73059220185363 -1.1031503232924744 0.1595768032567897 0.762224615209126
Ni 1.6266043180567549 3.6158148809916817 4.255782058433097 0.7963508674688736 0.11708340997926933 0.039081796492810114
Ni 5.446253832718177 0.46591993358772804 7.604576478425491 -2.9282553585304347 -0.1308005024550457 2.4034212124234675
Ni 2.134196755568668 6.16996484734045 0.30397927142444786 -0.9417071562509072 1.6932442098392 2.7994639160856174
Ni 6.379617697154715 2.390376566099962 12.64810183541724 0.39401153216473433 0.5161898401684077 -0.8696051960783345
Ni 5.516016121134956 4.71494160022967 9.780958116307845 -0.07852817541389057 -0.7551723363480348 1.0990542988462297
Ni 8.987482936424877 9.034375881705834 6.3809192884115635 1.3530242695736245 0.4591098073259641 -0.41223371159971584
Ni 6.20032279770745 8.17249161787067 12.848285069245312 0.6381416339835719 -1.6440795751890913 -0.6197029676624102
Ni 7.532975821391434 8.03114650243705 10.067066079949011 0.5316807367151553 -1.4000340626642598 0.5118711581883958
P 3.674963617054495 0.04842351149575191 11.08202385685881 0.027721891395300645 0.09352824836714861 0.417768525375016
P 1.0022252677728742 4.285585401422449 0.2916878206081583 -0.1916142913083087 -0.4113554227598206 -0.16529673645970241
P 6.732839722444942 4.081441088506307 6.593395849899842 0.015451558668379842 1.9243987253339763 -0.20847610006065384
P 2.097157240855051 8.574868185362549 5.913278288951406 -0.9911702959780414 0.3893555214499617 1.491380215778425
P 3.1114787676767857 3.11136615704173 6.383102996309678 -1.3559342441315678 -0.44773936070549336 0.32739553480739747
P 0.009266916843095099 5.588706286063173 5.81387969665394 0.15513933631072635 1.7202816735729665 -0.0909895411056949
P 0.03065918381577316 -0.0983691434086684 0.3658869680461171 0.7122811934114637 -1.0765342633668429 -0.40802121618026505
P 7.990081157520207 5.81689296956363 9.315555253219413 -0.842817386461529 0.9201559124426927 -0.5377601101400158
Ni 8.146619324466707 0.7759820561490814 4.455266167901867 -0.48615806969300795 1.5880480382158197 0.04995422043093977
Ni 1.1010786369122807 2.0972980041488705 6.018706242334126 0.14012255118691994 -0.9196887429982871 0.8095758507995799
Ni 2.279211100861173 8.436835699443476 12.550516274344165 0.5550726332765343 0.9084802758769773 1.2318306940807238
Ni 5.944105450297803 0.30200013951335036 10.569964530823034 -0.9692760670081112 0.42967144746018904 0.08777103416839722
Ni 0.7926259080102597 5.6977790703338504 9.881990501235572 0.47362599866426813 0.31217100454815916 -0.7026830082000672
Ni 3.4436426042116657 6.753644537271415 8.76782744695182 -0.6070747373754384 -1.4737702160061457 0.402962570710435
Ni 3.000594829025635 8.530565284687864 4.044445679624754 1.1628783352807264 0.5616579998035359 -2.16988919783545
Ni 2.904143820100742 6.579632953452163 5.146893474174916 -0.49541892616964356 -1.2978890191623775 0.9208557667231947
Ni 6.373048743443154 5.345664382955001 4.06856406238773 0.8234752344894916 -0.8579737824869934 -0.2674314955489394
Ni 4.235558126799118 7.814737014519465 6.644255504800625 -1.3899849059583738 2.4499352968246066 1.8439931303917148
Ni 4.88869042590046 0.9264476946002232 4.92474741282322 0.4136650447296037 -0.8046231347799949 -0.14748876174400405
Ni 4.9509171859881205 3.4005033467658854 5.498736019185715 -1.4986029587791094 0.8900050998909251 -2.200238242440953
Ni 1.4488671990610882 6.380546734893922 2.8628035175499704 2.5790147028234873 -0.009213805288784132 -1.3703067108031564
Ni 5.329063698503927 7.061981840272505 10.958080838229074 -0.09018298604399952 -0.10577209873150817 -0.7221765981483047
Ni 9.32657232701566 7.734060878721907 12.22784551434445 1.6423132273172876 2.379376769879754 -1.7990731299505724
Ni 7.764747276774485 7.420168117724755 7.64421448354301 1.720598690592753 0.10314057464593206 0.9435614358508266
Ni 0.1766860864018172 4.4582644260602144 2.592159809367778 -0.28766813431078847 -1.3406850312819814 -2.2141993326067353
Ni 8.385034807318021 4.472537824053478 -0.4721829617407221 -0.6056740003731698 -0.6802550182138543 0.5022963700157671
Ni 1.9683494427909263 1.3800808694814557 10.902454938199575 -1.7325471212038808 -2.2863303462450304 0.3304880576897921
Ni 3.3542672968560834 1.3273227869580322 3.2210198245049018 0.07886756103118031 1.2482039932324245 -0.818129396796546
Ni 4.741217415075915 3.2763032005194415 2.913787044149314 0.11037154517673249 -1.002068173837468 0.10666324308720986
Ni 2.994814149759461 9.410213876203008 8.95150196168078 1.0594860496353042 -2.874547584594333 0.984739195640717
Ni 3.350457303703378 4.336494792687048 13.115412510347902 -0.7662815588873191 -1.1181159434633712 1.6285020324658082
Ni 6.512141646175666 8.611860778978226 3.41890955506568 -0.9261784644876887 0.4531309640347099 -0.3527175585119538
P 5.536924162376896 6.57782179907169 5.834152426229776 1.885102498837515 -1.7922159978194232 -1.8811136893930955
P 8.580789627922542 8.4365823255146 3.3377651467106833 1.760595799810981 -0.7693784526450879 -0.09573631176206092
P 3.470293787841428 2.231548649574003 0.5517921117711309 -0.030845781736263008 -0.17905728057890455 0.4557437190672086
P 4.273639289886996 5.222871869646749 11.490028140837579 0.27781412433484415 -0.22859009720170953 -1.119251342619395
P 7.864407688798455 6.391845335277807 12.398293909986162 -2.5264181596736943 -0.7357224551535393 0.5865745605395575
P 2.5817301877177368 4.404061173720248 9.161258976332473 -0.6929932917161291 0.22475452550570324 0.025030974826698825
P 3.3957924685327376 7.168961943575071 1.8168881386415037 -1.114754483190306 1.970916409279541 0.9880055250968146
P 9.451410600194086 9.103500043190634 10.31937396147832 0.43228368827205554 -0.9513004563662972 -0.2708855155358109
Ni 4.809196701770983 0.6204780302011724 12.876468695933786 -1.013459703503861 0.5229315297676156 0.34204285240692706
Ni 4.9165334054178915 6.910013788265333 3.6911467037339056 -0.8882958305093023 2.0091140033951853 -0.5887885374717409
Ni 8.486234231354414 1.7261521194456693 0.7137853255641035 0.8527086774333121 2.9383847336549525 -0.30021383218628295
Ni 4.6219815209914925 9.3031117780458 1.6774667882234138 -0.5448987780673261 -0.7343160617243161 -0.06639076872040824
Ni 7.656106166604853 0.2934586228444034 8.33113091158291 1.0798077919117919 1.6776622962405432 0.42818046473695937
Ni 1.7977255622429211 9.246731386761429 1.6949233135009079 0.56951631950569 -1.623792799915597 -0.746316685729618
Ni 6.549143624010931 1.9949724737619245 6.2966152133213065 2.064604066042689 -1.4784182563011183 0.7571762541519411
Ni 9.104128785903026 4.388952580183657 8.00668841092499 -1.9066686550440648 1.026961851755354 0.037254256365768096
Ni 1.2957636564837751 2.2600203718038263 12.881125145693323 0.17020291551206815 -0.7897030231350528 3.36241852321339
Ni 1.4550232471107796 5.632624433734753 7.40385646723699 2.0804644301137136 0.7036906235289752 -0.32366897788542964
Ni 7.906458376772034 0.467307859664785 12.402510239847023 0.44167387123770385 -1.1794141281522204 -1.7209856416185265
Ni 6.028066062951142 6.113819061545778 7.9911960028072535 -1.1589293779353071 -0.7376032171160201 -0.13646849937410044
Ni 1.825446546905709 6.205352739406588 11.964000673253723 0.4818136766813831 -1.4118963613194846 -2.2521781258433538
Ni 3.6045725859253244 5.082652860563684 3.6096860471787955 -0.6794325223125589 -0.529708700590449 0.3965080733343429
Ni 5.194212463025167 3.292406521332354 7.865632329454681 -1.0581866140975904 -0.503613546165294 0.6505515776121505
Ni 0.9623423345241106 7.899063611736733 8.061737181449832 0.32553457033925876 0.3566940266611986 -0.05135572876415672
Ni 8.656585969534369 1.6503839304926062 10.16263309538872 -0.7718855353376578 0.6311993983377838 -0.21409421757837965
Ni 5.921048422770224 5.044815687185092 12.998612759668509 1.3949144820495074 -0.05273872515461239 -0.007227885207006906
Ni 6.773276324649395 3.0384226181846388 4.274516714418469 1.6963328760668528 -1.179313083797982 -2.498926639121645
Ni 6.622434378992777 7.081472864356665 1.3147207184733816 0.19966055865155294 -0.03001865784927733 0.15866766117895897
Ni 4.70864478888616 5.679958437336345 1.4697564718638523 1.078158172123511 -2.229760934490418 -0.328796271809666
Ni 0.7427375198368296 7.326354074504074 4.732927395491924 -1.28143781558489 1.1944658802790202 0.9644490779331132
Ni 1.2683335826282136 2.1062880865141214 1.7215960808357222 0.4259317779120987 1.064711816810618 0.41205219171652907
Ni 6.146917204032459 3.0965390900927785 1.07216116425203 -0.23494817820925343 -0.7590868409110926 0.03230616833187339
P 6.097452982584403 2.104176637106834 9.338905068398137 0.5693553684477937 -0.32793983734664167 0.5629844319244434
P 8.615623851032993 2.3739541818210594 7.3427088924019435 0.22785450458726564 -2.624729174141467 1.1018843120958572
P 9.159739671181185 2.5820304827445506 3.5192559535415278 0.19937748019349533 -0.9906126237023584 0.7093352234092621
P 8.57285996237073 2.4438853861904213 12.1867370020175 0.19519300979850254 1.3644931894451726 -0.12498672398674603
P 6.12700389006684 1.2846245878328852 2.6027217485140093 -0.2526643645420939 0.54225928356195 0.4802309055752955
P 7.083950298327882 4.860669146210859 1.6378559973427003 0.717566610180119 1.6685860449708876 0.8298191744296483
P 6.775932058792784 9.196450738209222 6.223478359540702 1.4006408430103232 -1.286414185753559 -1.9005036638839334
P 5.15968791916112 7.994942183266762 8.990783366453956 0.4666022590482674 0.7413889094106973 -0.485228615900203
