# total energy = -340874.52437307406 ev
CRYSTAL
PRIMVEC
9.21649148750407 0.00000000000000 0.00000000000000

0.00000000000000 9.21649148750407 0.00000000000000

0.00000000000000 0.00000000000000 13.48926690920134

PRIMCOORD
 96 1
Ni 3.5563676059686817 2.3947210072274148 3.4887157928241206 -0.3172008536625827 -0.8154371946763634 -0.0027351395429759348
Ni 8.15430935837459 7.342391749127421 1.525784651171513 0.16343988575662174 1.8323120945093605 1.1257513485214419
Ni 8.723538311337602 3.137782207880518 2.5308836105317924 -0.34643789615082915 0.4690337513078955 0.111268345959389
Ni -0.11150664502960243 3.6809008401974346 6.319249664201006 2.0289912019350864 1.0348474251510178 -0.14874140320418255
Ni 0.8270612265622417 7.731429075210154 7.392360801526624 -0.9735150447901235 -0.46952611756328166 0.05155087549409832
Ni 4.744871061174023 5.342726436984469 8.803945748828863 -0.25219616665642375 2.724568452328308 -1.2654247279860853
Ni 8.208741957645978 8.038393543773124 8.82146814262073 -0.5074144079686229 0.6977925128769853 0.3833144574622043
Ni 1.8834453533193458 0.7710996113377327 7.2995009622616465 0.5649035033240272 -0.33621390442997584 0.32177587462777485
Ni 0.9199007895457432 1.7887274693518433 11.754628569389903 -0.9457772125552227 1.1899898467855379 0.2541399206463558
Ni 0.2742450018048656 5.382016340589944 1.3642370651083837 0.3330517046519103 0.11442051843512552 -0.8101288950895725
Ni 1.6317337517783848 1.416934199015262 9.52084593813218 0.13028756737436917 -0.6358752065468986 -0.041590936067909014
Ni 7.085694025641688 4.653987237703795 7.027327827763961 -1.1664549968883913 2.11297294426438 -0.13464198768832297
Ni -0.026222761843372362 5.231409651681414 4.045755014023445 0.04150763232548335 -2.8388095077627753 -0.5467947095384583
Ni 8.662018230041205 0.7960163963242214 7.375620887869897 0.2765211165550334 0.6770982177524274 0.4736002876326553
Ni 6.002498203229251 0.9364324104927616 4.3780897189586385 -0.18239688647509877 2.222367213129508 1.0776231255556472
Ni 8.366952252107996 7.242254568110887 4.190346098877718 0.1760066666780388 2.052957997163329 -1.2838399972684793
Ni 8.069720398653491 4.2548578533409795 10.47967626646262 0.5773317017850508 -0.20538743383300112 2.3209196541841255
Ni 7.54812227417584 8.652774088986481 5.8336493125364575 -1.1922195074470048 -0.2151224017325779 0.6920000745649244
Ni 6.162247651785124 8.306316954003277 10.379815580193487 0.8734816483146054 0.19951169177851447 -0.8125696433205813
Ni 3.519381825258203 8.976143912561822 0.12190192588266714 0.622725813649134 0.6536759821737451 -0.6560822776223927
Ni 5.91906130495565 3.6002012399230887 11.905073969695783 0.29221950112689676 -1.2634256952781853 -0.6073323619121992
Ni 3.564653231899088 4.77109197971908 10.81735377156673 -0.861630148292658 -1.554237517424278 -0.44406268318485465
Ni 7.534067124516363 3.565713128430786 4.751999095761984 -1.400222524525982 -1.108294072276943 -2.1673502334636807
Ni 0.682053556288553 -0.29612495281574924 5.414712766119097 0.10907956583818633 1.1289279464772104 -1.9538658815551577
P 4.053025904230895 7.642600529362262 1.8599672626684929 -1.2671612510612178 -0.8216726340631139 1.264298327691126
P 1.5362508990097434 5.8728498161736065 10.263591934773249 0.6686871108705967 0.8087798372608459 -0.612794413468035
P 3.0030186679979822 1.7968656314169698 1.0596089771609407 -0.04695194326950624 -0.5319789846818644 0.6504613318911895
P 2.758661826737849 0.9450866960863672 5.20063855124332 0.15610427132715696 1.4854419959171192 -1.0567131148758575
P 1.1968167306104884 2.6810313181596386 7.851319962630068 -0.8191609233848537 1.5302488678191646 0.2602275216013325
P 4.113292542672415 2.629824490941244 10.347063855714854 -0.7011776272991342 -0.22178618690599866 0.819651232757711
P 4.923744729758367 8.265229834539706 11.990002096307025 -1.5075748232604167 0.10560986212203101 1.0287317991715832
P 7.663337635417228 5.386827349194696 2.4083733962048464 -1.4853499504239451 -0.5745636521216104 0.8815685390877979
Ni 2.0235268088435325 8.175912814638075 9.217715530066485 -0.6851776523264522 0.1946469074870454 0.8231831571703695
Ni 4.027883315200697 6.593782220543167 4.145979751709989 1.1947759553202715 1.232389137687355 -0.657168568708036
Ni 1.0915183143091636 0.28450019198591453 0.15504811620092396 -0.09979762631562812 -0.16945703848497912 -0.19051745869970416
Ni 2.4984618364517224 2.87850386675239 6.1646891004046624 1.8491152821096286 0.9757045962422745 0.037485655650283826
Ni 5.520162332882334 1.1966692667452086 13.046576082790677 0.03035984323877997 -0.5351969773985299 0.14175288770149136
Ni 8.455384488817948 1.5765269672142765 9.876949053202996 -0.9392687220127437 -0.2692626352204072 -0.3000875910210638
Ni 0.9948281011435444 2.736514597471146 4.53069362159255 0.14039046013632595 -0.5771931193246576 -2.891900988271116
Ni 2.9026418582003695 8.309505860089953 6.180080641343237 1.4554639614977902 -2.157160437414872 -1.4806620580299727
Ni 5.761486948412652 8.092789277078193 7.987116671218721 0.5572117911067243 -0.320746404921996 -0.7366765915366926
Ni 7.709595206657171 0.8951950622164363 11.993105289022004 0.9283369055915884 0.6503713432805444 -0.5094316955089678
Ni 1.97099280683762 4.11606670663799 2.450608890519284 -0.10508844240092226 -1.0481127748013561 0.2668751088248371
Ni 5.840592095643661 5.761293402089472 11.007713953607208 0.44438278552843463 0.7376929486163488 -0.342856606557474
Ni 3.750983042171638 7.1136107786374625 10.39192881507706 0.5543475821850518 0.708009048398671 -0.8120387105177757
Ni 6.670638543828659 5.712833089361913 4.442744329041389 -1.2773765010313225 0.16783775771400125 0.008440931678501592
Ni 8.114328217900617 6.739117076267945 10.89112625676956 0.9069219302509219 0.40645824256851937 -0.0011387415901335225
Ni 1.70670991078156 7.788562106514479 11.698903817999 -0.36886948568146793 -1.1289081489828687 0.657106605121849
Ni 3.448636035890241 2.784117776481767 12.623984275812694 -0.057199332029127296 0.18325537782065213 -0.4555506292197961
Ni 2.075065429758807 4.992287777638712 7.197373940712995 -0.4733434344268429 0.9664293415879357 0.008244756507295479
Ni 9.104501990796269 5.627506810314415 8.65111235555461 1.0442044408858855 0.3543982886484864 -0.39302782809522635
Ni 4.552559747866064 1.477772259934741 6.565266395594695 -0.22623933758134582 -0.15343700890763898 0.07645175250083608
Ni 0.5808583220386374 5.056462208510146 12.024926147851062 -0.01789230689938854 -0.1041708156826593 0.8411649384597707
Ni 1.073905598899813 1.3720406685291568 2.4224156427761105 1.3669557920530522 -0.6579707528943572 -0.36784875772643744
Ni 8.158447563094004 0.4966453951740015 3.1827789630723196 0.009343388888112942 -0.21465626072943675 0.020219155260352277
Ni 6.962773677439433 8.087545093369181 12.860909859911885 0.07918432094065073 0.4456937910303744 -0.32184143775838764
P 8.427320271956896 3.1998276291969754 12.73308541653992 0.36458577070444953 -0.5503744564699167 -2.2926025524069873
P 3.701094173249181 7.556057673426206 7.927966149907538 -0.061955615767190074 -1.003304360237414 2.332255390911919
P 5.662935003947876 3.099487685365682 3.3738414417711913 0.28826128781009713 -0.3922264152398536 0.048338024983755466
P 0.3033820182858291 -0.10429381871910644 10.777614103172152 -0.34645229432853236 0.18061305510179862 -0.788459637646255
P 0.6637956864686034 8.23884301914621 2.914450948861804 -0.19644128038330683 0.703646400554601 -0.28391432369531105
P 2.0808902524373574 4.74115681506729 4.650357783319597 1.0965143060331954 -0.7492852814396387 0.15949401373499628
P 8.518683352989283 1.5667021871900129 5.166496979834424 -1.2863442517475716 -0.3515037407095108 0.38980623583413515
P 6.602620835968373 0.8684248407732129 8.514937770811178 0.4131785920114884 0.0786320479816065 -0.8620973177370637
Ni 4.640568025963338 6.110487835071932 6.300499633730685 0.18695313838721353 1.6593773818884259 2.051774775488505
Ni 1.2088073861560484 6.498216419350307 5.546368505040862 0.21169949209395797 0.14214832336769712 -0.21142875493107458
Ni 3.3126835685938874 3.4965894415809013 8.463637857027825 0.19243653009928793 -1.7496552416390772 0.8754092043546214
Ni 4.98772561430662 3.0619581316519846 1.221630290891281 -1.7177977308088481 -1.5800984443514399 1.2195277083436546
Ni 1.209673736364567 3.739232015407157 9.818203135872173 -0.20497811420972437 0.5682819328779568 0.22306093985336423
Ni 4.5558869013264385 4.399602853604638 4.84808286378164 -0.6980581078335462 -1.8787418467268098 -0.8158380296592077
Ni 3.776015033302876 6.246550900267245 12.580912845711952 0.2519305716998629 0.24002430718058018 1.9759357168710032
Ni 4.013717567642261 0.4791119415922387 9.19506692365783 0.7566039265882388 0.04976884389301107 -0.8077467680106413
Ni 1.056412697881002 2.9316461572025814 0.37210570940114274 0.7709182863283819 0.7471576935736746 0.739964518259345
Ni 1.9958865505951586 6.434631843939992 3.1510659371947503 -1.0189528654079483 -0.4580633683393208 -1.0560070899477685
Ni 5.883504080440069 6.877281501543496 1.132808196587495 -0.6362295045625236 -1.5048859635743437 0.17790208392853876
Ni 7.110790532213987 3.7070019443519513 0.7549375717030717 0.7950894842579468 0.13497494554770947 1.333635837744684
Ni 8.300363100442608 1.4327865645328357 0.7358151949729195 -0.04733812296433138 0.6502039644647448 0.5575547762684397
Ni 2.6689484976982785 8.60000967469107 3.6455555949881933 0.44898171775302675 1.2931126808196567 -0.1983305269862197
Ni 5.984857838345161 1.6306277727887863 10.419352485773306 0.2877349829929819 -0.4959362321256943 0.09790400883734107
Ni 6.127529128003323 8.13654917909996 3.36747376773858 0.6572690988416423 -1.8521782373056683 -1.26348251665805
Ni 6.293859151547307 3.795111603856604 9.284824491856984 -1.2458609469215445 -1.1203381479256704 -0.29429335293678993
Ni 2.0158310383742455 7.345451624331976 0.7599918956855353 -0.4173414651399264 -1.4607180108078779 0.7952784603403013
Ni 3.9717917474449105 5.2220917786940495 1.8980479625786733 0.2266183181873194 1.2061137489305935 -0.6817328883109615
Ni 4.751525368094772 0.44241924531400373 2.254879180484308 -0.44244468796545733 1.3570220778791082 -0.5787326958976355
Ni 8.379486680656775 3.2728130260188735 8.357747741967065 0.5787473511856549 -0.8645750898535949 0.9483480586061925
Ni 7.434243304213548 5.752574601054807 13.040047120155414 0.5864580895663513 -0.3586112982885695 -0.2479512753371407
Ni 6.891548630509312 2.369974727335156 6.629610409911199 -0.849885349051904 -1.688761491477498 0.9174241153338264
Ni 2.863729830749674 0.6637459174140715 11.279023502843849 1.8447503202727136 -0.4990858334982695 1.1398911303569335
P 7.006422981562241 6.052820247255967 8.838828326160789 -1.0549495952175316 0.6737128462199622 1.5618361557071425
P 5.481913892825398 8.06417207072234 5.386723202839842 -0.39490627606486184 -0.1740729399904357 0.2907017789307897
P 9.279901042054957 7.367469822716559 13.203753208546576 -0.6464884632863704 -0.5232845422316601 -1.2658451033529554
P 5.374938075056516 4.780087275501145 13.51084947293914 -1.2158744278617835 2.3230747528539153 0.5596530535583653
P 6.6989055235044725 0.10902556549627057 1.2120700241753628 -0.15019999002758003 -0.3501492835641453 0.6892729054417485
P 8.195903384875061 6.3614989832528135 6.184802249979664 1.089896800716678 0.5382249655915763 -0.12397936576815421
P 4.87291577869475 4.009726826788127 7.026896495958018 0.2621535349794517 -1.4036572612391438 -0.38326637783308837
P 2.052724654168924 5.074056490936336 13.681893731926285 1.9694781341711178 -0.6714240501857857 0.47834885806123423
