# total energy = -340894.9532793743 ev
CRYSTAL
PRIMVEC
9.03169825000763 0.00000000000000 0.00000000000000
0.00000000000000 9.03169825000763 0.00000000000000
0.00000000000000 0.00000000000000 13.21880332694268
PRIMCOORD
 96 1
Ni 6.354738935445895 2.0276071998861123 11.487788062267812 0.09831667089472745 -0.47318222625863027 -0.19313766993137063
Ni 4.563599656162629 9.495837103453733 5.892281670417861 0.02332504787918564 -0.2527967763549001 0.6880014949284926
Ni 2.6260294549966203 1.6150301973248649 4.693468250003146 1.1876005206177547 -0.4069236122407121 0.7378618700940454
Ni 3.3045357774811044 4.152928341908126 4.801901914656943 -0.48380011098379255 0.8460829445866784 -0.3431126884323381
Ni 5.168651177705131 4.449086755493334 2.686681823830491 -0.4128368924013535 0.21444311627736617 -0.0484552672879101
Ni 7.156392462017912 6.162056687407507 2.5871443818408837 0.1601794698377951 -0.8527277035967057 -0.7367544959624795
Ni 4.967524291909365 4.395790704791424 11.225777596165885 0.16820182592163935 0.5358688066545739 1.1989997635936318
Ni 5.484598041906826 7.716420968351295 12.504881909841897 0.12515333147159735 0.3615546971876096 -0.19433220446010402
Ni 1.9065643814643212 6.603390616834519 0.41106599946305566 -0.24685752805232972 -0.651162214612956 -1.0455393576472254
Ni 2.573753986184105 1.5347654959881645 0.33123301329726734 0.9502352483265765 1.000286656457013 0.31542345004718575
Ni 0.6667452451714817 -0.0441821641126369 4.794288193128099 -0.3139864604903431 0.26090603572559584 -0.32335504618943667
Ni 8.70656603502649 2.30024707152457 1.5448683535233543 -0.7439350728713189 -0.06975042922126051 -0.45352639970091574
Ni 6.89225141832565 0.477087712838917 4.978148278427016 0.25079645809541967 1.869305126793942 -1.1896610026912091
Ni 0.7682660480718058 7.5604164464441475 2.529563693543146 1.194255564040427 -0.8143398478471265 0.22194019598535972
Ni 7.536193432042772 3.915521124699113 3.696254976366536 1.0219762256153044 -0.30468832301786886 -0.15820923348530172
Ni 7.5384061980861485 3.718024981554111 12.67890737904027 0.9844118942082853 0.6361626558803302 -0.49255805968208083
Ni 7.983777296580057 8.604950399295735 7.040453456212907 -0.29607821275135465 1.2057692211069815 0.45276483894454284
Ni 6.842784807633503 0.6612548758744659 0.4485854798605937 0.13564806035533414 -0.0428911429365713 -1.0824102625316456
Ni 2.0897814098559384 6.512414321508246 9.257814827601642 -0.6153516326722499 0.18233003779290533 -0.2942167340625836
Ni 9.173586113952947 4.747421808329373 1.4124293383932647 -1.2128567240813821 0.437239232505118 -0.25768418635418844
Ni 6.451838722108533 1.9999611718911037 7.138801423557972 0.03169938798580992 -0.17549887380368484 -1.687446115100184
Ni 3.354345592702428 4.326020836689027 0.6530811890611752 0.25348608911244086 -0.3466870360471578 -0.163028509250816
Ni 6.110034106142805 5.645615156279582 4.782139655965052 -0.771367972271291 0.15954415024664134 0.4420047722145614
Ni 5.412696693044277 2.9494545652551145 9.4691574671593 -0.7352552857091338 -0.5428015292186652 -1.2693963110393236
P 0.3117444150589043 5.502534994405384 12.43927746091993 -0.6517448265893033 0.2671409608917141 0.0793720114714246
P 3.929899588131995 5.906604137322299 12.518973165274048 0.6728001045977058 0.9091127672546536 0.7047170079109606
P 2.5607934993586117 8.45684861325779 1.3099818832641632 -1.1216321841467456 0.6155791753020237 0.33764806577334106
P 6.29802890284849 7.75177103485651 5.9162210894977605 -0.5076594340998934 -1.2638797520964684 0.3303664445102633
P 4.785598796351229 1.136783717615069 12.694082438248769 -0.3648691062728232 -0.27146067131299056 -0.7865349098197164
P 3.9644909919937663 6.05749671808434 8.130833211973826 0.9034753664632181 0.7126635164515467 0.42822494482164963
P 4.84267912857222 0.9834616100543823 3.656823485473558 -0.2650174867908081 -0.09689356529495571 1.1619134002642957
P 0.0678506322484484 5.7314072568756576 3.6538755392018913 1.7269166623909809 -1.3500502745469651 -0.6061517113405368
Ni 1.5714341904212694 1.1544226240751314 2.517838743022689 -0.716770853751701 -1.127769150282419 0.1594222799567964
Ni 2.0405857501078786 6.426902203554395 4.812146569852872 -0.4608579003653224 0.8135587467067279 -1.0433618903799322
Ni 6.101011439704709 5.644197179672195 9.090213605287571 -0.6910112282890938 0.5045499419366344 0.8861505020315255
Ni 8.482977315965913 2.2571207129240585 10.107638916183257 0.2547209899608065 0.6794633755504943 0.13584140731306282
Ni 2.3184007847783974 5.213123259327942 6.954861859315456 0.04711572254088015 -0.414727424555847 0.6400874448560331
Ni 0.64428070239723 0.05811175214814865 9.26241557463224 0.2520740392562626 0.03379663683447083 -0.9405840983900575
Ni 1.5011946740157873 1.08396634691438 11.353537288491594 -1.2317090809011948 0.14566045028601365 0.4498265822518253
Ni 4.018455388357757 6.782597571253649 1.601788824687334 1.2396283357482716 -0.01417397750753688 0.06630900763987936
Ni 5.553148630760832 7.744979197858063 7.987620284137024 -0.6389880411442672 0.6348691338798872 0.22422667802669125
Ni 5.177800287917136 2.830371625328886 4.86652913384057 0.36020821046204415 -0.6769881745371245 -0.26906208917382696
Ni 0.9846808893027736 7.558501726439267 6.846374907642655 0.06408397496410254 -1.0106080929876788 0.6549000843888334
Ni 5.101175360929337 4.450658270969038 7.052588445828749 0.6602127548509985 0.3510234586389826 0.007362353902342159
Ni 8.12581881316859 7.298217217851175 9.142110645948177 0.08609313224534205 -0.4168740385852046 0.1491653781154786
Ni 4.668864097940421 0.19337859196469265 10.554354834529649 -0.17017103383286822 0.6009251728342747 -0.7225586640780718
Ni 8.01196522646324 7.252137493960116 4.4976185854283806 0.021177919629195786 1.3137758655959633 1.5064931601604636
Ni 7.340873928148603 6.153503669272494 6.995641782740175 0.2484549544464366 -0.6381640025810751 0.11039674198771308
Ni 2.067030562250768 5.4681332562044735 2.4627824143540273 1.1026777545314301 -0.9016303428346795 1.87524386087588
Ni 2.3566229312909344 4.99419489650566 11.302142410247361 -0.6928955897960003 0.1915423004197927 0.8421239599389303
Ni 1.008172336155115 3.0468614296543843 3.80881341755915 -0.5007241404326409 1.6285549971909308 -0.3442234049980136
Ni 3.7371450865085163 2.5003985339216235 2.512576875688519 -0.22061170698192328 0.5198122674123434 -0.0713761377501416
Ni 0.8970309684000758 3.356901563274982 8.203377617743675 0.04608985237952708 0.30649735120214955 -0.4659384002120233
Ni 3.4631685235458964 2.8794859997937197 7.046098267548052 0.17652037308966373 -1.1516035336978554 0.11287965631056687
Ni 4.062006236770671 6.678832391366471 5.992229151502854 1.10833675258942 1.222315555501437 0.2927476057162248
Ni 1.0864952223925253 7.323180831499722 11.452466897196631 -1.0894208895215238 0.25862649566279977 -0.25281965917303556
P 0.4186201117842007 5.751529880323184 8.132379438694748 -1.0114370166468774 0.12325508600761997 -2.2870641390872612
P 8.499577577140307 1.608409962591006 7.857587313390427 -0.07815459412455572 -0.524236107511652 0.8286938025759534
P 1.507977479316098 3.1335476683659462 10.403634759202012 1.211637249851984 -0.14857428149869895 -0.23694515403462418
P 4.081297943989664 6.061082302244424 3.773241171279784 -0.9876918505111376 -0.38929638607725214 -0.24580903218315733
P 7.008272612583696 4.129274324489333 10.482167180836182 0.070035307451531 -0.2159122446237249 -0.18283731644662704
P 6.301551265121621 7.707488618894561 10.273654172304605 -0.05838281081426719 0.2550140957211931 -0.061789522502971005
P 2.58115094695768 8.552114965198774 5.79540045085012 -0.1145570440129898 -0.18646591433814982 -0.36234042631369856
P 7.002356850304464 4.074235156047131 1.5337250443628703 -0.12346514513589703 -0.31329869039469915 0.762934496791957
Ni 5.424239203262381 2.9756826166427346 0.47164701788165037 -0.9285873310394975 0.0711809910202 -0.4774142620621068
Ni 1.5691220756983937 1.1734795071425825 7.0323240247204835 -1.0732746187789644 0.07044462707480773 -0.5203187747351169
Ni 6.790780289765075 0.6907253068929933 9.275210781381839 -0.2746282704076948 -0.4053177012061729 -0.7081838834136385
Ni 2.655960502620096 1.6702499997297917 9.179295953514675 0.9358013322894334 0.03868816059881724 0.12178827165410638
Ni 6.333622825203383 1.9254225671727752 2.4616191316340807 1.0230882277325608 0.5711224876505455 1.0331026745457692
Ni 4.156459735879393 6.675590011735563 10.427560630734705 0.6644437622132106 0.6997925740261497 0.12442185262221152
Ni 8.129305048649176 7.252580047168792 0.402540076422452 0.4716562765324071 -0.7177620140203769 -0.6670986833375544
Ni 7.375365983330876 3.8465370143345674 8.265413642732016 1.4074411537616083 0.07102312528609704 -0.41967242726594817
Ni 3.182391091886693 8.527097161361409 12.384458665912252 0.17073899052119626 -0.642982507015641 0.398301674899656
Ni 0.1354763752133046 4.931045263137121 10.00274748353849 -0.6707406509655157 -0.34672740236679 1.961268601777132
Ni 8.527295858720407 2.4843853331260823 5.62194397863433 -0.2101663432788832 -0.402626527527255 1.424090075172199
Ni 3.479931355286744 2.445449682460783 11.422169162628826 0.7086932189498891 0.7847179112156356 0.023986335612268365
Ni 0.9463413307144657 3.333536560196548 12.66210661416725 0.5201061445036784 -0.28361376173575675 -0.3004310904034116
Ni 3.018574151091704 8.525426297206208 8.090621382361876 1.2032215149844634 -0.18774066728551536 -0.20513829393667252
Ni 5.4352398115923135 7.8440478947144 3.8689455605803738 -0.016864379855506442 -0.1229277845751883 -0.9519116075877349
Ni 3.1119799732166227 8.590048097370952 3.3610389841911905 0.1917670148360891 -0.8896217484095774 1.3695148110294801
Ni 3.351861875714964 4.297814843409571 9.227597475147249 0.0705407863330398 -0.7776247518142801 -0.20907799531071086
Ni 7.238219647132182 6.167466674591109 11.508025388281668 0.9977862586326623 -0.7111342242912141 -0.5421530970013889
Ni 0.6786336694282049 9.039916981536704 0.371021256266627 -0.7452054549433101 0.1337521288842019 -0.5163333077248076
Ni 4.636377079744392 0.3181867253394791 1.4829515469504109 -0.2035328971227656 -0.9009610846817967 0.1320613714453403
Ni 6.031819600283031 5.587351671602745 0.28533572970855986 -0.9202392161851185 0.05279966029953488 0.5697433479148316
Ni 8.156264667585829 8.914728613670382 11.176511489172363 -0.43548496881817256 -0.8124302895292397 0.5562699960187452
Ni 0.22485496313927736 5.129616178360334 5.865764604689883 -0.9813931619866195 -0.9400863328180326 -0.585663618689514
Ni 8.017564879307704 8.800604076020946 2.372656001822375 -1.237380163144043 1.0945867499931792 0.539453952902671
P 8.400752736133649 1.4706314075227758 3.6572994559653367 0.24540099811146124 0.42886952038418397 -0.5788381111272484
P 1.769029682245769 3.201357657972782 1.6600568252132395 0.181097708047701 0.23203846076162615 -0.10139582404068344
P 4.7629021389348765 1.2874776010181124 8.199901317131038 -1.1851109214266817 -1.3019130527201062 0.33679214553094905
P 8.395207273478002 1.6228335845145698 12.38157665103698 0.6753352123147337 0.027478665036242998 0.8725820193184715
P 6.275810925433357 7.70598032530581 1.4253040240864645 -0.6849521665792075 0.3151192885432057 -0.2486228474828686
P 1.5939502138748975 3.202396303258449 6.012215396308524 0.5487798582892871 0.5536179031078787 -0.7252557512942607
P 6.827024494385777 3.8977286793707338 5.790258705101163 0.5130507803187938 0.24571313003524137 1.338561300070759
P 2.5518972766944223 8.466304801206427 10.30761335729684 -0.26883531787500153 0.30135025978357133 -1.0362525330286607
