# total energy = -340889.72383086174 ev
CRYSTAL
PRIMVEC
9.10700676682554 0.00000000000000 0.00000000000000
0.00000000000000 9.10700676682554 0.00000000000000
0.00000000000000 0.00000000000000 13.32902495360185
PRIMCOORD
 96 1
Ni 6.542136820897156 2.0380206533483642 11.60611534661511 0.8087878076806458 0.368969501594442 -0.392689213808885
Ni 4.758693439333891 0.23720292395968542 6.213191730503017 -0.421687657923764 0.8330513082137008 -0.6522168811297154
Ni 2.829292057666892 1.3188949579473999 4.753863082857007 0.387176768631088 0.08317852970170836 0.3929185562108717
Ni 3.323793427083043 3.9853810526858298 4.635421904199172 -1.0136985589875445 0.7136379645496742 0.20898723536911748
Ni 5.144393396930032 4.6566676406715 2.423123191289747 -1.1607921421756588 -0.36116517505867474 0.5201498532574204
Ni 7.137543827123028 5.882279526611503 2.679561024591112 -0.033688393391380696 1.3654727797496227 -0.9630239154508126
Ni 5.503974458644379 4.2482365937723765 11.884745134409068 -0.7887961950500674 0.7300441738218395 0.0437105535140731
Ni 5.871797361632443 8.021032783637875 12.176557314737508 -1.1481669972124806 -0.11974527308214863 1.7853043583012542
Ni 2.0946207014325164 6.659662745358297 0.554331672859185 -2.45293757398604 0.7140819940656282 -1.808199260621557
Ni 2.8808012888758965 1.656318671795497 0.5071437164395496 -0.3681845437993014 -1.5275427817419112 0.0962818998528858
Ni 0.3767778229045809 0.18243338426892255 5.10669585243453 -0.8782237909852811 0.36879492368979067 0.3920598077550022
Ni 8.762315826905088 2.4897373041966397 1.492304209047121 0.2298874758568944 0.19806750313282015 -0.08569383992439435
Ni 6.759329829225225 0.6967789217905231 4.779094956263596 0.5170678718979869 0.8995863158214572 -0.5237501690141689
Ni 0.8573472931157223 7.3854183418059645 2.492967559555521 -0.16027305799286592 -0.9143004821031803 0.35096663725911814
Ni 7.684547091503802 3.746449618810397 3.6924468891033326 0.9822794212463146 0.8175102751553082 -0.11059677381366113
Ni 8.019411736403928 3.8761789325607987 12.789172921262624 0.025470376356962587 0.20862213872021493 -1.3631994103344136
Ni 7.757931353364156 0.16578031139254593 7.012827009988155 1.1191857794887823 -0.907469832334592 0.30218972496573115
Ni 6.8881484422823975 0.5919918786262639 0.4038119729830693 -0.11529495062027886 0.8166715813040968 0.058571015565673325
Ni 1.9513492683738065 6.543803403165764 9.04265044639677 0.174693347183254 0.4536207591869349 0.1755281843797235
Ni 0.1791931112024155 5.211575787069499 1.39013725177728 -0.1574265896830063 -1.0644472502953217 -0.8152127373703832
Ni 6.318942295000712 2.0293689967626936 6.87889663393989 0.07799621416982053 1.4078049648589304 0.6637464790358697
Ni 3.299459504559977 4.66164917346346 0.3647219671276218 1.202630932588316 -1.2720718009889576 0.5128150101589039
Ni 6.053354651834479 5.778996960992457 4.911732137327476 0.6936751482745022 -0.42653315894152344 -0.4594918732557312
Ni 5.366704543154045 2.9710517275748423 9.491718779629137 -0.2456282836309189 -0.18259100476377588 -0.10077824506134257
P 0.19647274615573335 5.802575001940144 12.434393984303671 -0.3869962771891658 -0.1975309139030598 1.2556293391622182
P 4.267853086704519 6.258544625025797 12.44556372830612 -0.27564334193577045 -0.2216118661116635 -0.33978182428689224
P 2.4548665746529204 8.602424106194958 1.5120709675936461 0.8592711611421782 0.4513373624693969 -0.610053103277472
P 6.563310612014719 7.947675842798317 5.801605105701856 -1.948371691209806 -1.467570257843021 0.7746582129867884
P 4.933629935496157 0.9956508538928707 12.555768529894396 -0.5772237154522769 -0.6273933943281323 1.2042221883348359
P 3.9656279546497033 6.16251123692485 8.059702045773049 0.7054929668450366 -0.047928191139846484 -0.04142921367906413
P 4.780641326040699 0.8792223237670713 3.9246118168280777 -0.1782692374599704 1.7561071679120082 -0.100925055051852
P -0.04296868010790779 5.670350368290296 3.5617950355506895 1.3918543550669447 -1.0675366878539227 0.7609040966254895
Ni 1.2461937216069674 0.46346286838953704 3.0508272869002737 -0.1413368832099953 0.8747674570055644 -1.3990619285589776
Ni 1.7902189947208855 6.607616200740287 4.986055331602549 0.1827383289749175 -0.37642518654153884 -0.4348817880165349
Ni 6.10105715414579 5.640024035205786 9.072853834887693 -0.8945196999318272 -0.49153424640325677 0.5952816013952522
Ni 9.107371212562441 2.373832426969447 10.49256882377965 -1.1499860526990904 -0.14334337211706283 -0.7402468253864541
Ni 2.527340135820045 4.894752122902232 6.8965979233141725 0.5137146391550379 1.0895931534333299 -0.08587870224169081
Ni 0.1583890645663033 -0.0948230668796462 9.284132752913935 0.6677036639114049 0.6577097859234867 -0.226571524109784
Ni 1.4090087915423612 0.8542263218400282 11.779299654643605 0.6284128367315823 -0.06345199780705847 0.2987153932638856
Ni 4.011326915435911 6.829089502326529 1.5987897090042515 1.6714831640130243 0.3329624873722137 1.1007316865486527
Ni 5.726859346305125 7.834867347928101 7.981526587565621 -0.28681915604693187 0.06062506988122463 -0.047301870409757245
Ni 5.4142977613821675 3.2616563187840617 4.612362962646627 1.0646375119292568 -1.0200242440952563 0.35371206121473925
Ni 0.43651523487690524 7.576064424926422 6.811318088998869 1.3805134761328288 0.4755245012385617 0.8026526413171854
Ni 5.045017737284936 4.2209975360379115 7.228570182812604 0.23784606858233875 0.7033746349504532 -0.10762226456636949
Ni 8.135088938457812 6.953982995395887 9.362626956363995 0.32827099543381527 0.25473564524882586 0.07816410720625248
Ni 4.652032174142968 0.39200838129813453 10.39116139088796 -0.09457108780936617 1.0751690075882 -0.41059463333439605
Ni 8.185669254959725 7.2738939349132 4.643565389798022 0.6561583822759668 -0.22688057070977055 0.7448084766152077
Ni 7.611381397809823 6.3357902578254395 7.051347827910335 -2.557009916417622 -0.5771231853186706 -0.7982313723210382
Ni 2.2714605620436297 5.210264378071249 2.7061252531118947 -0.12020652898928331 -0.34953864656333994 0.17412667604650656
Ni 2.231653834742611 5.496342786835124 11.667469252317915 1.4659972569289461 0.9274395905882994 -0.7491484987514582
Ni 1.4000748177417897 2.711301675852205 3.5466801361451763 -1.1660323075286756 1.5556791349668109 -0.4297290401710019
Ni 3.990781507796675 2.519608286934535 2.56758308875312 -1.7070453773883503 -0.2255896198124889 1.8210907718722444
Ni 1.1083500646798996 3.606320103143325 8.253572009347536 0.6438487116706783 -1.1646369698430459 0.1669846656850866
Ni 3.4015490522708935 2.530682407364194 6.834817809686936 0.6797299989483196 -0.6000633390546117 0.8851914805523659
Ni 4.351109344079469 6.981495263338322 5.953209450103606 -1.3674797828773224 -0.012979442978803454 0.4926953565908935
Ni 0.6492503633116202 7.41421469772585 11.08371101865913 0.08674490689672802 0.2747156879151785 0.6392397521437572
P 0.2620677849869036 5.689429547813433 8.044692787647952 1.1598624312725379 -0.3205422593309899 0.24241054802456966
P 8.435356064022187 1.7544830995185985 8.320297227739003 0.8819958564332034 1.0259868894365944 -0.5267539888374994
P 2.0142604722620323 3.3973234010543134 10.431521824210462 0.6224676748917409 0.029588769400710337 0.37964600747168165
P 4.05173470519446 5.979797356842412 3.881532031235596 -0.5015520356505749 0.46247846668788095 0.060259716122005896
P 7.1258504302219725 3.8919158405397876 10.381924153756543 0.2414217017487391 1.1325010085404497 0.5358135279366063
P 6.276394358613076 7.77599965511781 10.172285407678807 1.1437642401590946 -0.22777094373452386 -1.3267545372438183
P 2.3270952673929592 8.662202499698477 5.929883673247945 0.18467282699346904 -1.1916096417771478 0.42261814015783344
P 6.8660457364577425 3.9886504681745203 1.2306152755486006 0.24069227978188226 0.0629550035659819 1.4091051717275926
Ni 5.062302836442413 2.840056539860853 0.6604811242605143 0.7606323310213416 -0.36841748574571387 -2.161097310575433
Ni 1.2059589649801319 1.1360262587471142 7.254374886955233 -0.1748165030246796 0.584841894119167 -0.6420957335353135
Ni 6.781323250966694 0.7605489164324635 9.237453878181816 -0.37269245897198394 -0.13710767561999612 0.6010483286757003
Ni 2.2884542369792733 1.516079872045238 9.435443851692467 0.6485255483210572 1.010990673138078 -0.7198407509262764
Ni 6.4325522064809695 2.115585031390637 2.5272900472819178 0.06254157017764712 -0.9244152019396789 0.16097085539083889
Ni 4.166865486832409 7.199853968553722 10.111318549770623 -0.3778079258216783 -1.3955526298541385 -0.38073486966048625
Ni 8.337592344604106 7.446316897162156 0.3700404591760763 -0.8468293358343997 -1.1639047196627117 -0.6174874480683301
Ni 7.909845336001605 4.0154888176039645 8.246161637806736 -1.5744746704067591 -0.616601445918951 -0.28695053941847354
Ni 3.2621116691306757 8.275692018485364 12.062008470842532 -0.14309346088978583 0.004013234924451153 1.6877929569166417
Ni 0.37974306436173294 4.751708365016828 10.396160226993091 -1.9034007829260702 1.2792986577546999 -0.5046718122264793
Ni 8.477822037347432 2.650002412190994 5.663049280832682 1.1553627436299716 -1.32444260128119 0.7646818185003669
Ni 3.656135431062925 2.513124097998748 11.744657510973884 -0.3539933399005839 1.1253507706489134 -1.1398227390128433
Ni 1.3455056322035368 3.4755525906026428 12.621746973717414 -0.5313526639517752 -0.8390877442157678 0.13576427421822426
Ni 3.1871518950710365 8.731570571501694 7.99157708041609 -0.16074202720948447 -0.40786335044616207 0.5950584296408525
Ni 5.3679977381384285 7.938231876609538 3.594052054104844 2.4076473346896727 -2.045902118757812 1.2593497254365988
Ni 3.080845803150472 8.169167358398424 3.776472688564061 -0.1414896067377757 -0.15266722062114998 -0.3814604349726011
Ni 3.636273048943611 4.619073916055028 9.71064849417919 0.31601300400206866 0.32906752319318167 -0.25882164239274136
Ni 7.184117060574733 5.9996415249478625 11.439009055013223 0.9311237243081061 -0.164416133626962 0.12839189301355305
Ni 0.4185197891787098 0.2104665730078827 0.7267209391824903 0.8700265998864694 0.5846277212258317 0.046140246001488285
Ni 4.696456153958654 0.1491017388967589 1.879272772708929 -1.0858866511160201 1.4484587338245505 -2.195189881383768
Ni 6.071350097532676 5.948815319258779 0.4183749877684865 0.10299067933162907 -0.1468706685440309 -0.8255370021145267
Ni 7.922194437401783 9.122215633862066 11.519143430411788 0.4740152636828868 -1.278252732988689 -0.9793092828743974
Ni 0.22622624850420214 5.05436152639746 5.922898598930882 -0.5188794711854289 -1.1810133543185402 -0.6280976194840087
Ni 7.902987759781594 8.538766127738285 2.754976148997365 -0.4527643247239106 1.2539522085701114 -0.7986964848829149
P 8.443707189379092 1.5642286176962295 3.5905859272664165 -0.1993754233109663 0.09261910628931791 -0.3676734084908378
P 1.810035841805538 3.30126269193257 1.4718307467626506 0.5186416441430101 0.7612923332028437 0.5032281378014172
P 4.748211274354831 1.293449980578595 8.278190981187583 -0.3993452856728219 -0.42856047378419737 -0.5049060397244725
P 8.69493308261311 1.640381409663998 12.578694509145729 -0.5473307845475864 1.0457383610319086 1.3943460111405468
P 6.293479103618043 7.886185331991528 1.3847122077477179 0.5900352653946483 -1.4309070980940324 0.7521988555420078
P 1.6129055697492938 3.049845551552974 5.772214062229292 -0.5276765006517686 0.591216173076627 0.6177666698716457
P 6.960394328276217 4.133934549765265 6.0199474183047785 -0.41910549901888466 0.14068433722766094 0.2626217328651219
P 2.2288944116421288 8.705387926571374 10.191053127564858 0.3332162552542326 -2.0315821025907144 -0.5690406654208523
