# total energy = -340860.30678541906 ev
CRYSTAL
PRIMVEC
9.33851312435587 0.00000000000000 0.00000000000000
0.00000000000000 9.33851312435587 0.00000000000000
0.00000000000000 0.00000000000000 13.66785790887013
PRIMCOORD
 96 1
Ni 8.465446049323264 6.138111186717053 13.854970830556187 0.8836925274093361 1.6044046251969724 -0.1347908545613614
Ni 4.488051976892192 5.339883114013963 9.615830379785058 -2.5519728682143468 -0.5622902340708962 -2.091023693686799
Ni 3.3232499162638467 4.6494308194391 2.613225966217089 -1.6409932229542836 3.5342111518100814 -0.7108262061324919
Ni 9.370263909008035 6.927206193740443 2.9034081165353496 -0.2822608472522881 -0.9226761077613851 0.3276462173656228
Ni 5.765709966701682 2.6527166698431732 5.530411190929595 -0.43301696689365426 -1.3030229979548333 0.7963562667855124
Ni 6.0130124670388865 0.6733814928749764 9.506268144126642 -0.5342220150797702 -0.9351503289689959 0.8829402226243439
Ni 5.4915965956421715 0.37553335726380677 5.57179761268756 0.6233498203863781 -0.9878497162452408 0.626486823353463
Ni 1.6991891265333434 4.466162502502402 4.722176901584587 -0.8666417425746366 -0.8695146932470574 -0.32559421993260057
Ni 2.169896872530503 5.993924546538575 13.333555893010772 0.7144288358820857 0.591244198101085 -2.7824429560475887
Ni 1.4888484605113212 0.40967869606876683 10.256962251986954 1.2656376153278397 0.6492338872419916 0.21683527065862657
Ni 0.1897044200721258 4.028671847121489 0.0783482560731469 -0.20358046253124937 0.19777028360737553 0.6390608033637317
Ni 7.424201853733872 8.39161576582255 2.0135346791483535 0.5860747380850035 -0.28184895652585007 -1.0113493420290776
Ni 7.2072028279678575 2.292408824117384 10.429272757810606 1.3930514606988396 1.1409591666101317 2.3116904222763734
Ni 8.97715920574942 5.175310500033049 8.217553354966677 2.071957421083967 -1.3285987895414086 -1.755089011060139
Ni 2.0081538279779627 0.19302612913375042 5.984458095946029 0.7616000942512496 0.3559388936627289 0.3374804298472252
Ni 5.1017416948953525 2.7371368270461156 1.0088834466120293 -0.6269581065629267 0.3461738438561651 2.172472899402226
Ni 4.716882898584769 7.426947376545561 5.179147695010338 0.25979711893213325 -0.6021040236337244 0.10931533599807625
Ni 8.176932691271837 0.7753627237084648 3.6116633522265507 -1.5376022228604422 -1.116512346421677 -1.4669007425798222
Ni 6.76246548652616 5.321140718493354 8.744504162997705 -0.8874121423527684 -2.360736529070747 0.20374989822957815
Ni 5.675266468636361 4.058386995375887 2.9595970151940203 -0.4135640003753652 -0.06834712111583068 -0.12219681994643472
Ni 0.19072605339048881 7.872945417237523 5.291361134499497 1.1947908677186068 -1.2308603597476544 -0.6087806643229515
Ni 0.7840904979254858 3.232059337161332 2.345800838143059 2.2891336200217802 -0.060472346353444235 0.9335379901765534
Ni 2.4683464083766142 1.5968763784896003 8.425304451343525 0.015483183237263656 0.6353776980851896 -1.5925238145989864
Ni 7.93887531876991 6.2076457542539005 6.256147189039844 0.7379243479008647 -0.7652808855369465 0.7082553600815221
P 5.173153303538151 6.2599507653704585 3.284181313423777 -0.23278845155377326 0.04795853015714966 -0.024182253673158353
P 8.424982272646234 5.0755191504898365 10.156680630513081 -1.2535063792819443 -0.5983658967475308 0.25568361098439196
P 2.5105284714391907 6.398356866023646 11.049847761422809 -0.07911284427276696 0.28771210017484644 0.7183734223521306
P 8.083463515005878 2.0895576454932336 12.519401920297293 0.40790628786895555 -0.21057643423310832 0.2291958491065085
P 3.748367041966232 2.861591189329702 3.1920736923481066 0.3963756615215367 -3.9151604514742187 0.8497897040143042
P 2.4171900343547423 1.042252754989604 12.110514196276656 -1.0786263700091812 -0.087548633744946 -0.43703508691411186
P 4.995740234230463 1.1735242317375867 7.498432759440783 -0.43044766350458125 0.13492326637416763 0.3316339983687772
P 0.7699800048354807 6.724868633329364 7.160399134838939 0.4640625233455492 0.6120374806973524 0.7515450240080928
Ni 3.5503438745449483 8.04531568954415 7.228519851512897 -0.7753356986697874 0.3958776388391956 -0.16836354831048422
Ni 6.7191908174466874 2.47330515876099 8.310057862843356 -0.8035625547259645 -0.15103457011373342 -1.4901825959258979
Ni 4.227750266507808 6.418023774327783 0.8596894957817581 1.7017550755236883 -3.8682154501832478 -0.7667340730437053
Ni 2.519166595931748 0.8462672510972681 2.147261250954816 0.12455529287628228 -0.47049928010982844 0.06805787201018601
Ni 7.166542942518564 4.905007242263229 12.250336949346622 0.018383901823826404 0.3675679932612251 -2.5366521786968765
Ni 0.6218945354941463 9.195260176045297 7.778446202991535 0.23764706519765522 -1.6723573390878617 1.0024073023444413
Ni 8.32541504741418 2.1117926448627253 1.1558856484494322 2.289569679117934 -2.6024927313407695 0.3824883620164832
Ni 2.7279757458275222 3.735367831919053 0.3772423051363884 0.6997547788096788 -0.0367372075200335 -0.03327933087842011
Ni 1.878124373454315 4.1924039949355585 7.3347603781096895 -0.43482162420256076 1.3612356017398233 -0.22416882820556233
Ni 5.340219300480701 8.815724332124722 3.3311437612730996 1.087659426745727 -0.15214374401751218 -1.1977329810660662
Ni 8.98870160777407 2.687922863720949 7.208660569841682 0.13186853870824386 -0.0554682082706335 -0.6434494193497305
Ni 3.8537988533402605 1.3417482042877868 13.56107101822659 -0.257515264876492 -1.3597687873863096 -0.17515048932533062
Ni 3.8506330974451504 3.04677390142421 6.881069270437219 0.37867747291082526 -0.4327788827409192 0.3576869867020872
Ni 7.677443648316771 7.247237033048501 11.297318354993383 0.5279521229106585 -2.1187340151178735 -0.9545577869613303
Ni 0.9555446621102541 7.55565076222819 9.742790265097133 -0.4444635181676991 -0.6717438954190496 -0.037084306446807096
Ni 2.174257958085124 5.642936536751784 9.032445070204382 -0.3092479173640932 0.5568484942300346 0.011387158791019097
Ni 0.2534724558531317 5.529996560953953 11.6330687131753 2.396238321521783 0.642692486579048 1.8423805344889561
Ni 3.606020088841845 0.6833811725578205 4.100657774311631 -0.45983074465238866 1.0136602495504412 1.2780259616898637
Ni 7.171772509778924 3.7000869299375574 0.3820945964729646 -1.2791587897427261 1.363750397741877 0.10886153629010929
Ni 4.104584619013383 7.964005257158529 11.295063104112351 -2.0458910630142184 1.1699573536146948 -0.7591004677578475
Ni 3.3104374764759665 8.145760734994909 13.539338430854611 0.13854852183158073 1.880038454051046 -0.5912632242644785
Ni 1.3332128034378432 1.8125586739275605 0.507192382299834 -0.12386880833221893 -0.39059067940864345 -2.0576818850015592
Ni 1.3091101014753659 7.90290336682901 1.0504286230903979 -1.002540485488196 0.19092626410234861 0.35635515526454115
Ni 5.890276391140847 2.447390785283317 12.487870431271217 0.695322454069938 1.0464086476260557 -0.22033531339208504
P 9.240467917308509 1.432892090825477 8.96600528586411 -0.7982866510390058 -0.22350188404552476 0.7578704520054884
P 4.878495203955802 9.025056438746532 1.2485871989496722 -1.1648362303380455 -0.7774961966562158 -0.4997777173589715
P 5.169333851735496 4.474557825657872 13.4609537545809 -1.008109237825225 1.7440417521070415 -0.49744341279884
P 6.046911269101573 7.814915897673465 10.184303018012042 -1.1776624355684364 0.9770158588545301 -0.44674820043681773
P 7.1118472720829855 3.9876851137184226 7.019825565326592 0.880444967006316 1.2262133478939463 -1.896124303869315
P 6.6676142103413945 2.1534891052511256 2.5355519507800097 0.6212708263701623 -0.21402711178587008 0.734905872789515
P 5.811767512644704 4.067323952283322 10.452617172520332 1.4809497644737204 -1.8476790638837342 1.4325734300528619
P 8.336210368401636 8.388478025466334 12.780964329931942 -1.5545041408221034 1.447291195879011 3.2530810757281268
Ni 8.583139328220243 0.23647822995955703 10.727600892988175 -1.2812467826200062 -0.22966173299933348 0.31429267887685225
Ni 3.4091922510800727 7.569817286395984 2.4466558443129776 -0.9385590975402287 1.2674648983445655 2.2024128814947685
Ni 6.814817190207543 5.947979062751133 1.6845500736095234 -1.820956303176909 0.7461595913264633 1.1622108769000565
Ni 3.5564699390499404 4.064307612595651 11.618129893985309 -0.6153907134403015 1.225880904255192 0.4301846396511817
Ni 7.943871423206146 7.243856491355197 8.722225272617276 0.14903296630267235 1.889443806525346 -0.05655681334912195
Ni 6.043960299004656 7.347840833219662 13.52773439464439 1.3421762711155272 1.5784537096591655 -0.7982696817581413
Ni 2.429246054592463 6.559586292363115 5.6493222119172 -0.39027726193328266 0.29546731864023307 0.36355501544708996
Ni 8.522933935135356 0.31990010012654896 6.010139940450875 -0.5543591521492776 1.9703068007200002 -1.640740483513529
Ni 0.9172287434151576 8.092251055705876 12.264209310356023 2.066348559537622 -0.10708027601997043 -0.6327045221284007
Ni 1.0616581849307227 3.127467991954146 9.538429048926554 -0.8788061458513123 1.6527696467639212 0.5079754226784156
Ni 6.531496045364614 4.5991989582007555 5.004554856618058 2.1675911458298924 2.1376092547558216 0.07597558419536592
Ni 4.275479406271551 4.8807738011192425 5.143351307113179 -0.9415212654923463 -0.08132476432242122 -0.38499827292253047
Ni 5.331002188184317 6.983881628924586 8.305806971741722 0.7730836694108171 2.6867979184477533 -1.049823586844876
Ni 5.765495180903489 0.17057634396606525 11.72693944549875 0.8811242524615277 -0.594901335237698 0.8068409683669201
Ni 4.311292603492048 1.9643375251465238 11.020584597195912 -1.466922596956693 -1.077806702321363 -1.6069078512348005
Ni 0.7997455810598898 2.885441751442126 11.976706379407398 0.6330994435739742 -1.2343436903105645 -1.2710945246773528
Ni 5.201887907931233 6.1004583024424655 11.518272241000043 1.2893632410795535 -0.7684672536847282 2.3638105400103804
Ni 7.174956942699963 7.79320385503001 4.341267362406872 0.6834295592870939 -0.7585821333605323 0.33088400757663017
Ni 6.503648599703201 0.7368413577281397 0.47146416554731874 0.6239730557926738 -0.1861812932181955 -0.7755431866949031
Ni 0.9482606219976109 1.3054213888542197 4.247094996114655 0.7426662334612242 0.5995725154611222 -0.4997113828974104
Ni 7.348475852101278 0.13089233312160675 7.855409557591983 -0.07457638985499414 -0.49016899062461394 -0.3252116397822012
Ni 8.135217553857506 4.1653129688243045 2.328798207587816 -0.017800518516530636 1.0890539931004082 2.4941695840526337
Ni 8.236671158708475 2.7489967385115737 4.679532582130246 0.3710639222296255 1.6124853453225776 0.5343783381519763
Ni 3.9296836096932597 9.41704985896232 9.199903284691457 -0.7824543119924394 -1.1837353812353937 0.014854291404013125
P 0.26257563829134284 0.40378702823919416 1.853279259711126 0.18252698429505984 -0.46404863938847823 0.8815225163412109
P 1.979718055999759 8.40814493377047 3.9989146755587477 -0.01811470732283977 -0.10549159137661188 0.3057057085387896
P 1.6557370257075366 2.597526058220453 6.112115568176584 -0.23514332493919501 -2.2055506557928015 -1.786966833605342
P 4.154881849842481 5.665722508386207 7.170445507086607 -1.6273617482137779 -0.13888199391159953 -0.849369328647434
P 6.611480408909217 7.801057544433513 6.436057376714353 -0.7641444579396581 1.706330353599197 0.7399431781031063
P 1.2072175865150443 5.459621527250261 1.3232644855763063 -1.0090114379245205 -0.1856868700802802 2.9468493194825376
P 8.653420976794285 5.139543995377378 4.488278902757239 1.1555483772782165 -0.12111104308142366 -1.6360181383371954
P 3.207732510887696 3.5761835399189024 9.21771276276687 -0.42790458536775333 -0.7940574434490066 0.10878646007779974
