# total energy = -340865.2278481346 ev
CRYSTAL
PRIMVEC
9.28783770057478 0.00000000000000 0.00000000000000

0.00000000000000 9.28783770057478 0.00000000000000

0.00000000000000 0.00000000000000 13.59368930381327

PRIMCOORD
 96 1
Ni 5.761654512439178 4.064413590798749 11.448713754807791 -0.5543419257580969 -0.346051716456004 0.5071783806984169
Ni 3.09579426434799 0.8087802801606003 5.271252027553301 0.3878971917368803 -0.8028729848581077 0.8603512815802344
Ni 7.4081745513235395 1.6706312660652354 4.883207088996214 0.9733474088640075 1.4783346954483767 -0.2203754226014011
Ni 4.041834856870897 7.300138420904462 4.764697063780575 -0.7525552104401619 0.40091545837341924 1.730687956507955
Ni 1.8280043913937134 7.107146437240601 6.479676827020678 0.4015636334803794 -0.8061601402498116 0.537962198848493
Ni 7.611420308025799 2.153153020495423 12.32297886484569 -0.38815018828795084 0.4989644774290568 -0.9208310841328464
Ni 3.3165011562967996 7.800139886256993 12.209647738041475 -0.387050784576185 -0.9481161451010447 0.11948610588349098
Ni 8.103954351709062 4.44971954595998 4.829674777708693 0.46159452142103086 -0.17462572717011218 3.0310295509758833
Ni 6.685850110228103 8.446127587676157 8.685388793392004 2.5687277190751825 0.6096887779595178 1.3708911225517164
Ni -0.03797982672882512 0.0484416473361196 12.247710226527586 -1.7091048310205403 0.10968146108824336 -0.0012696107410429748
Ni 5.01726216850023 8.986865510045373 6.957915959396512 -0.4125268173601024 -2.4912159007409485 -2.064239226504103
Ni 5.2551422727207795 1.4388904226946702 3.611870190749034 0.7429714234064688 -0.6931727547167867 -0.030934741905643496
Ni 4.63999019311999 4.79367604680332 9.349997681011066 0.64881891119176 -0.7961009562415967 -0.981736147148335
Ni 5.110131259633342 6.958494591697501 8.33789362630987 -1.828614076832483 -1.4182564992095574 -0.8916830018139805
Ni 0.055346226028824434 7.923305904610448 3.0867330496955785 -0.29531922309814296 0.8142799411434687 -1.6114093386495796
Ni 5.442905203648571 7.574956256441781 10.83699817522893 -0.1895844053624735 0.3866070121705471 -0.4883692184117138
Ni 3.325872584734974 1.1103331570847246 7.700566833729753 -2.8353462318045235 -0.4475480706302938 -0.2265563546011324
Ni 7.072725709993945 7.413059954057415 1.3305097134896096 -0.5036369432040617 0.08793969853577759 0.4290569538046417
Ni 3.004569120522665 4.547009647932113 11.130798493860345 0.29710922511903026 -0.760001125195246 1.596540134847231
Ni 5.3492745098078975 1.0909494393934749 8.563236078153123 1.7053903582834307 1.7218392478680733 2.0654057360083784
Ni 1.2447374592936722 4.46808160148255 13.132523534065221 -0.6575760885590998 -0.43324425241311193 -1.0345260372558571
Ni 8.457440174234826 7.685342209848825 10.920830200088162 -2.8548665612256383 -0.9357941332005819 -1.3216688951907947
Ni 2.982566232544433 6.410846517932842 9.834776380050249 1.708472082532548 1.9816420232271614 -1.4916429825215085
Ni 7.985116465815655 6.008460228878841 3.1668815180448213 -0.33591797045611177 0.6149574825576248 -0.4364427047457516
P 6.636197328830202 1.9754395301722936 1.8293167628885738 -0.8188727027204736 0.2763074578823306 1.5633281668716368
P 1.197666696831165 5.687537566020313 10.540383641714694 -1.7365559852529575 0.15110758944351396 0.9057947586250142
P 3.8350597217677387 2.367293411050982 12.204536640846701 0.6462462653685773 0.6501216891635836 0.1067066947306356
P 4.304550639628293 2.9913803907087817 7.688726697978529 -1.110609607783997 2.1014636580732 2.474104952092275
P 2.9368979336043877 7.569132782080298 0.9028400721121207 2.6004772435726373 -0.020198586435061987 0.49752800209284637
P 0.21245371919344547 2.6558015196486275 5.3067315683202265 0.2844205739077682 0.2486387883224686 -0.6586811486978205
P 6.858594607276284 3.1586915025871574 6.378308435427928 0.8961700910510566 1.8465629480014196 0.2022874547514387
P 4.691992797505859 5.840303923751829 12.253895926567054 -1.325430419115756 0.4147888739214018 -0.006962033140129944
Ni 9.192823315413586 3.6606805652496686 11.225763850006832 0.177998500297087 -1.2633981844743596 1.9898597831512632
Ni 8.979806753243576 6.744939334929459 7.882341895565284 -0.5705167357457464 0.6448735533907668 0.6570279293651136
Ni 4.429964314752847 6.303553414545532 1.580905179276502 1.7598897748828914 -0.9665347568175483 0.2636229204361266
Ni 5.102719564991457 9.058001060499269 12.665947139736778 1.4286969778165912 2.384478352772377 -1.334226163030515
Ni 9.069406525436909 6.2833245036056455 0.5903656266047954 0.007056906846781395 -2.31931682847338 0.015739008001811605
Ni 5.6891815133281 2.763178213577012 0.07063307842366286 -0.10856714497814206 -0.43617248180350043 -0.6925446342144846
Ni 3.5880775364080306 5.1416077422666175 4.048812809482988 0.5418363370919184 -0.8218603245938878 -0.3779017710870653
Ni 7.333602500847716 0.5884411865925161 0.5114840193447173 -0.12135478366111357 -0.836228934610734 -1.0313126725248818
Ni 8.563785918156631 1.3803213169155515 10.030022521971736 -2.7162506764912315 -0.06499131726972032 1.1462646379834451
Ni 0.5146474569324698 4.122704061440954 6.799264827573393 -0.23293037644827627 1.3941398086670118 0.20245740467039972
Ni 3.938284752156118 0.1934712360993506 10.39388471699614 -0.5793793283426989 -1.1188805895435374 -0.5162952553980205
Ni 7.33759627114347 0.20848409727622455 3.2189992916206136 0.570266053187521 -1.3003297673933862 -1.7600219295853816
Ni 6.984082585104014 3.67624698156521 3.059803892496724 -0.4897262466602404 -0.5009899924995178 -0.8848425818533793
Ni 6.543597584996105 5.249681024037284 0.6871253930330031 -0.15258700220251786 -1.3813578264109951 0.19707634286414444
Ni 2.236901454813582 3.186257805465753 1.7866047827511757 -0.21776241045858627 -0.07116067930522584 0.40415530546695555
Ni 1.1810136034816627 0.9866005806195461 9.142368064821374 2.0674232806590394 -1.0446402428717236 -2.5549689747281934
Ni 0.9518176276949032 0.9519662331012568 4.008710711794675 -0.6255956789977613 -0.4928678776130157 -0.08478392651561527
Ni 8.279494487964268 2.687825984717832 7.965521914204142 1.3381553228815923 -1.1014906762018641 -0.5904795520209186
Ni 0.5353240416589958 2.017244088547145 13.007787871107157 1.843360124793406 0.8217543951436428 1.3028149957090853
Ni 7.438610796112339 0.6034057510123252 6.929832323947047 -1.0444481814655755 0.2394051855393425 -0.07141341874598023
Ni 0.7990169049631678 1.0734697284711312 6.5094610655891 0.2313164949939371 -0.7498468103700634 1.1095261449118312
Ni 5.225319025233189 1.9864177545666668 6.214694811816388 -0.5286851444219411 -1.5454026927414675 -2.143770132150895
Ni 6.691125602153656 3.430806577296421 9.234315802435095 -1.3360367338766928 0.09517426861100384 1.1092608070655865
Ni 0.1021012020028305 3.2113442556258227 3.2422040258227307 0.11601897327049696 -0.9654412666430534 -1.6351344501806613
P 3.3289375712410174 2.2458270670326956 3.629093557345418 -0.8911471839151685 0.9473658971985813 -0.3455053570342308
P 8.95535187606051 9.051081621265928 8.01371093234946 1.007841071765503 -1.0064624462504215 1.4054832587042891
P 7.02926791647341 0.1659996691673055 11.302935566310053 -0.2498628905375568 -0.15538641932452593 0.27600920991562145
P 2.889845746817674 8.284584223131882 8.221803082866426 0.31897362929228934 -0.4857109548532602 0.5743116840118044
P 1.0374422052682766 1.3428634666765433 1.854750578185995 -0.07598406883579817 0.5716621622040994 -0.5096152722746836
P 0.5628680537266385 5.2654889241381495 2.390273379575989 0.9058227836494722 -0.5738517136562504 0.4208908730540816
P 1.8513540158670252 9.267218896969364 11.265974615398541 0.6111553352027151 0.011843272491831217 -0.2337760122780232
P 1.00408029154189 3.2875416777336386 8.948345131150935 1.0016411136023782 -1.3804584545251775 -0.6164111842850157
Ni 3.8233663338552883 4.3276773559920745 -0.014435157659674262 0.6109046526444898 -0.9791686435314749 -0.9035391298216181
Ni 1.3397056017915292 4.787155984599555 4.4458028647187735 -0.37493574648020594 1.1840230876791416 0.8897485037954289
Ni 4.035008296016527 1.4094294008850659 1.3986545801406391 -0.6146821174090511 -0.16933696796734707 -0.7521039818353563
Ni 4.641299778263481 3.5334650495730773 2.190446476003652 0.22894490943796703 1.2548448955877098 0.6546270332331049
Ni 8.81579282381867 4.6637484824607744 9.462159469024035 -1.457144948744639 3.3302974743091287 -2.6640621674131344
Ni 8.632023663186633 8.304850285423354 5.255877869482229 0.6044319004359526 0.23944915140340053 0.42155884565538365
Ni 2.673299806246766 4.630850960629243 7.484318103971552 -0.5287396518089604 0.047257647435383125 2.5559868744697467
Ni 1.6704269336314992 2.2482976319133248 10.90994206772139 -1.6987319724266488 -0.1992360695196246 2.6355486333544738
Ni 1.0549776432180031 7.825932212097243 9.710665788582657 0.8799209761820458 0.6270750917567651 -0.8555219785123911
Ni 2.655977988568673 3.0590237141133674 5.8890855059549825 -0.0934094634010972 -0.7670937703759692 -1.2249388520568967
Ni 8.564473218161016 3.178586051362748 0.9361527602976527 -0.8931601005801392 0.24077995439968208 0.6009655391539069
Ni 3.51099776969999 2.467499894122804 9.996228723783135 2.7510582710887204 1.0794056713773668 -3.0662089270904938
Ni 3.163493314779959 9.190092691071838 3.1486652815772374 0.47089368733476966 -0.10960818464814671 -1.6570906427367784
Ni 5.774016624680219 7.5623062212259295 3.2739990812958757 0.25271501527437124 1.2955719409934268 1.0938478149446258
Ni 5.683859582213061 1.879328983613093 10.692931735255627 0.5802483612112135 -1.1061281749738756 1.5547514809462193
Ni 5.713822147269108 5.003924833279994 5.200442480209593 0.33041349569811485 -0.09644619334489196 0.49806459132260683
Ni 1.5899292425773253 8.863996702504625 0.4081475349015723 -1.3849386017837182 3.137679424326654 -0.34592084730509454
Ni 2.3609405299293647 5.558399467899021 1.1478820281351243 -1.9061184389675496 -0.5581476726574324 0.492350571656965
Ni 5.133406581403477 8.603352107598282 1.1542376956081104 -0.9882243259758401 0.18396474518285094 1.7336701790647304
Ni 0.9565358493466304 7.140647668535444 12.271744364653912 0.594605401263834 -0.8719168749306467 -0.15211237655894447
Ni 6.787709828445609 6.0782026036481716 12.018887621824287 1.8744391055863976 0.5139185276357279 0.09271655109913064
Ni 2.2083599289557907 7.003633483877412 2.993765507480757 0.4525424385210916 -1.713528156899217 -0.6008855778455909
Ni 6.922541371197823 7.115050387291034 6.464424339626058 -0.8087525835673361 1.3295223297969427 -0.7600186086967426
Ni 7.002955471710923 5.095846564947601 7.435435284335321 0.3877812349843064 -0.7614856801605725 0.8951107965486068
P 8.770291705960773 8.302584052976462 0.6184288288108859 0.8753025035734281 1.3795850507812886 -0.08994078812620639
P 8.208832617243125 4.564517222368148 12.842869306271075 -0.4860755372815307 0.025452635745149714 0.6321239670345824
P 1.8164224575360286 8.171597675113647 4.651991937250624 -0.4253242262350868 1.7277293881002633 0.19974540505587535
P 6.230207358672127 9.001447415543822 5.154564276133073 0.16045020700067852 -0.4915825831426889 -0.8133196341127282
P 6.7541900214749715 6.198545119280908 9.653123917674959 0.5717490654909508 -0.7285061399107582 -0.5304792602078864
P 4.164870845493792 5.6796336159698795 6.659385344924104 1.483372257872284 2.1244904579856767 -1.491655838037315
P 9.086328966085427 6.180238790785723 5.834139585739523 -0.5206126518264518 -0.17215001193610996 -0.357082777459185
P 5.808205155979448 5.473555068709005 3.021156270223097 -0.5426873722383041 -0.8451108104813962 0.011555823158399453
