# total energy = -340893.93832917855 ev
CRYSTAL
PRIMVEC
9.06782265236098 0.00000000000000 0.00000000000000

0.00000000000000 9.06782265236098 0.00000000000000

0.00000000000000 0.00000000000000 13.27167504129356

PRIMCOORD
 96 1
Ni 6.557985190294941 1.846788985013072 11.344985670647581 -0.12470287419774007 -0.15318606923909744 2.2883985416279686
Ni 4.603488610596577 0.2826394908691028 6.379057104771357 0.12628924484825346 0.15400213738248963 -1.7783906619005565
Ni 2.888527627901637 1.7388637625897394 4.812415773026823 -0.09558384534459669 -1.2592368540078185 0.6099314900979431
Ni 3.5588936036462284 4.338844213316712 5.019559294787379 0.3947167857618751 -0.07299618985206782 -0.3976182756793862
Ni 4.950378157210976 4.473265612846495 2.5176237671766923 -0.23272905907074753 0.47403249007406756 0.5966111188399531
Ni 7.230346086971571 6.07506017176029 2.5205164025281492 0.8607472314670724 0.22858855453981278 -0.012067729797811474
Ni 5.196633010626406 4.482043264947468 11.690009966190525 -0.12676207071961393 -0.5938194150274289 -0.699793345357098
Ni 5.4543133202889695 7.9318237614335585 12.61977007003475 0.2882695153402132 0.10338148701214453 -0.23518651947230465
Ni 1.880575691343885 6.489042536448142 0.05298782030169242 0.5220519553761396 0.11718368300255948 1.4203264943647087
Ni 2.7134098413582497 1.3977504188558358 0.32877113064027247 -1.892962875422198 0.9915827009251115 1.12961468813159
Ni 0.6323228335705994 -0.07271758831956225 4.687395891780397 0.29090026809484093 0.6194486855597591 0.5156555649314926
Ni 8.613905363742672 2.393578676840239 1.3178293524071276 0.5612201409351689 0.4029839108666737 0.7216901454301894
Ni 6.7208342131062855 0.8298916416396067 4.8027141098214186 0.3668884506956972 -0.385307062412201 0.06377235726095469
Ni 0.5310397910687162 7.281733436616423 2.196860430514074 0.6812605766602332 0.28388527022958854 0.8526747388715832
Ni 7.9536953491066456 3.9841291359552664 3.822520591250753 -0.5060339826813285 -1.4174903104674943 -0.6603068572267015
Ni 7.401410556893951 3.8556380922870916 12.909172342863465 0.8477454198907659 -0.5712785536124355 -0.984151184347731
Ni 7.95261627823886 9.283999304814714 6.860274652344632 0.20378769344604905 -1.373631661411331 -0.3665475224165107
Ni 6.917342992734587 0.7232649313865835 0.5459518250357109 -0.6336152068681281 0.2829797276961836 -0.8970571216417002
Ni 1.9600642226632372 6.303016159535466 9.26802180171356 -0.32904592592662685 1.1875717242623482 -1.0781077785015498
Ni 0.11698851093048426 4.789224817191864 1.3578121017964067 -0.09966547161313803 0.14862724622382142 0.18371277707304492
Ni 6.414967495112552 2.1751257669595048 7.1102600079029745 -0.027854560318422997 -0.07495485624033543 0.26105824503274394
Ni 3.116084631490406 4.328806133899586 0.05817914863620409 1.2116161668060617 -0.06014401647974803 1.2418736801390227
Ni 6.234499693342331 5.523809111303288 4.601303265393752 -1.0762254738771724 0.010151229501388968 1.3636933192516967
Ni 5.631516705988581 2.8806567580424995 9.599694635527708 -1.1717499267387432 0.3578376533473385 -1.4752259746160659
P 0.21151149181947917 5.55317978811636 12.402167721896857 -1.0511944990504736 -0.8154739614515697 0.10557335245714078
P 4.004994195339915 6.089024618284566 12.511605457099572 0.37426443144479415 1.3580672313141708 0.3864560884149796
P 2.3459000665644973 8.184308208850402 1.2598732722024153 -0.9431937680987627 2.579252015645274 0.637951629459953
P 6.474860462185826 7.817025129617108 5.708120762996652 -0.5990145860751233 0.11040162708371955 0.48845329348508787
P 4.530211537633802 1.0854727504123203 12.58203886095195 2.124047199800671 0.08919516820943348 -0.2860858774253331
P 4.118251297345243 6.154267600584673 8.294053343233099 -0.12481960228126245 -0.3642587263823339 -0.20180563001901372
P 4.73537101984922 1.0129120354205956 3.7242970320328257 0.28491628259726415 -0.31523627373704416 0.5187938534501582
P 0.3117598957834272 5.609953424277719 3.57067814566113 0.19978859958898496 -0.44500344983156914 -0.6528899959373401
Ni 1.4150971631421605 0.9131297175289513 2.629729255734889 0.7534175584404573 0.7348896748395989 -0.8267454206003311
Ni 2.0075433408457757 6.436539844645831 4.69701775814852 0.33658722860899454 0.16963701570626913 0.3623851635087049
Ni 6.027490375353568 5.764088269745018 9.402808634486803 -0.314146125996659 -0.1678593549805561 -0.6844829402522729
Ni 8.782784488462227 2.4394527904547276 10.291108840669798 -0.625614962271471 0.6583358495432597 -0.39512893359862916
Ni 2.4805572294771583 5.140893106220742 7.068825500144516 -0.5404947354623595 0.9814803223837871 0.2908131076976734
Ni 0.5202336670927555 9.108446262795244 9.154934267987455 0.1828753687734141 0.028648259864311954 -0.01376748609773758
Ni 1.2669380126485603 0.9605362931321425 11.363685334038726 0.4408161512230989 0.23062538246418346 0.6595262703069351
Ni 3.993260433130556 6.964123888590911 1.7416022449600845 1.7168253395932496 -0.39005691839236045 -1.0444790347035107
Ni 5.788208677377859 7.870443671483673 7.8969652384928954 -0.2646747587394087 0.34433036288952307 0.823032490525118
Ni 5.431380797392935 2.860471785339228 4.829575720171329 -0.09542829360333888 0.5340692915519899 0.27562045911763505
Ni 0.7660922566685023 7.530880925383309 6.79394262457208 -0.21039491434992155 -0.2912525092279371 0.27122592959436514
Ni 5.018151061965806 4.289533395005665 7.372255694254437 0.5377266857989191 0.5916134085150456 -0.5291875379796563
Ni 8.161484499823388 7.303287650504867 8.994054776205378 -0.022302263041626108 0.31835939274705816 0.4234797168271804
Ni 4.504268497694871 0.34665922392497317 10.409465686003214 0.8542968478560383 -0.05390240644541039 0.1398749539524881
Ni 8.25374959293021 7.136784295258923 4.657588145926761 -0.09420264872635388 0.29647699085167006 0.17237241235956122
Ni 7.237999329092668 6.16567492118697 7.050073243383345 0.4420675071316968 0.004063885656728485 -0.5298159155922746
Ni 2.4244999512868506 5.223600714498612 2.2607105952907216 -0.6546997954525692 0.2955616781262523 1.1122044630749424
Ni 2.2410760394082443 5.224280801179988 11.310904260088172 0.22796043403751065 -0.42677278575615535 -0.3089419560879002
Ni 1.3639365090577678 3.437085545100385 3.8298999851348157 -0.494268100394652 -0.015493724760224929 -0.3795372498079593
Ni 3.5689407508857722 2.579677596332262 2.6786619458510907 -0.0014189918347136852 -0.005801437173125492 -0.4517379403419253
Ni 1.1482130137249598 3.2621944541174566 8.180779919147417 -0.019827319138572306 0.5006634623980345 -0.11201293743489742
Ni 3.5341565840889393 2.392318249524087 7.106610209379585 0.5800863817120526 1.373233397531648 -0.4969106802238216
Ni 4.426965311578344 6.657277845775993 6.084452622221228 -0.1748301298714344 0.5265192471188739 -0.6114916354962114
Ni 0.6638217283052599 7.416653566379216 11.393746072137834 0.8829052556213505 -0.02667853773245083 -0.9739361914879421
P 0.26064186046440085 5.743114396491349 8.005022851123536 0.5018765088695293 -0.6114289005790761 -0.7310556458054894
P 8.641108830997755 1.75595660784835 8.11362543988152 -0.6542387966557507 0.23771494232111318 -0.1383595457492262
P 1.7658677377516185 3.197622490676308 10.296722729529005 0.578539606050223 0.7294034549140471 0.8959854858440761
P 3.9773826760760063 6.033085221785696 3.7190549238927706 0.6651613571055254 0.6775831278086458 0.7046342183891671
P 7.113869908007724 4.181027831947557 10.560921896728129 -0.48429196301854655 -0.7540608484514111 0.1963677468328941
P 6.398328040974859 7.82359930087042 10.173694142085651 -0.6563643276391857 0.02196750541002668 1.1052285459777416
P 2.558068975509308 8.371885183396618 5.7570398513792265 -0.25100034657610965 0.6259224662095607 0.5829341355734928
P 6.906516012767064 4.045137445186 1.7802230074221257 0.6005909294233076 -0.5896745396211199 -0.46430986346966485
Ni 5.087683124269798 2.9495994118892983 0.5622385408813291 0.15750346566752876 -0.63275902951542 -0.7430572982520558
Ni 1.5232944202380436 1.020782905279733 7.037517936462883 -0.37033861402782675 -0.3722003498269138 -0.8519931394235263
Ni 6.941844248908998 0.6966735421447399 9.257563882118463 -0.05850905197948634 -0.08406170363761006 -0.3948332567350813
Ni 2.6982303066299136 1.5512505167538506 9.235413005514893 -0.2382965258561961 -0.5494635146198731 0.4115233157962525
Ni 6.292270789969709 2.055357968457793 2.5338152708869175 0.5900368080565451 0.1915178749397605 0.4985595286811542
Ni 3.930048643052162 6.957640395561783 10.457721009784764 1.315217740248812 -0.22524303510634758 0.05386692522178465
Ni 8.143022413379605 7.008982406094543 0.3455375342918219 0.1496286909051423 0.6326854959650071 -0.3856721590611035
Ni 7.849986664107851 4.05736086980595 8.36051776121296 -0.4042483794013941 -0.5257358319856301 -0.27969797162111826
Ni 3.080575038900104 8.480998290556755 12.346665394438554 -0.3345964234312108 -0.8979737199186987 -0.05081785398281571
Ni 0.014956466296844611 5.1211887281056425 10.195154957403187 -0.0851762768580275 -0.4121655773659418 0.39926146770976406
Ni 8.70718605296035 2.5569717689966858 5.8042206382042005 0.012016564844901885 -0.8585782488402116 0.20184933877275563
Ni 3.455783394927045 2.7691316101190777 11.683626219207998 0.29031791322880973 -0.5134814400983092 -1.4512676640282556
Ni 1.025534444226954 3.425351782891026 12.483827996685406 -1.0188649336798323 -0.7402614806744735 0.09946981066256419
Ni 3.173946406341967 8.181234217050578 7.995427281440426 -0.3639532793267732 0.09704243216799417 0.5295688325784751
Ni 5.8248970868825465 7.770897116974907 3.5259257216797932 -1.39072101279345 0.4342747505601553 0.5761505369927561
Ni 3.0825427563648886 8.497782829853142 3.5915277897476674 0.5771185573329802 -0.3117794255366953 0.04639015722876527
Ni 3.5613691191664407 4.224208802303792 9.327253724532536 -0.2950806247247757 -0.11812419253895784 0.33710376323409685
Ni 7.015765137263477 6.147294445144953 11.638581811344789 0.9008063042714873 0.3840389943330547 -0.7099839127368547
Ni 0.3591011830652062 9.25407549083412 0.5928923145665984 0.17081149563034453 -0.8429626537901418 -1.020430478394739
Ni 4.495726608976775 0.36274554089514555 1.5556257410707097 0.5932745982675525 -0.4913712384628312 0.14657833411459273
Ni 5.98980450538286 5.60379637285565 0.4940249399569667 -1.2702360333317995 0.8539116966024778 -0.04704733119678994
Ni 7.905554279887567 8.71334310438242 11.590843353441088 -0.8654058132850062 0.46103093560807695 -0.02144711413018242
Ni 0.18541792602840362 4.9007499651152875 5.7224941683119965 0.0780805463535107 0.7039685597807103 1.1379849144731562
Ni 7.863298227418005 9.013814468037229 2.7504219721232737 0.3872675285726815 -0.808608087569672 -0.44478670583507274
P 8.728205265326112 1.703580865559897 3.550212977245131 -0.7458505447264767 1.0130262155108682 1.512812417510272
P 1.9074617848143252 3.278489331003251 1.4685773662011699 -1.3479787367299172 -1.2549186862484387 -0.08516085023905978
P 4.6816532398428485 1.157634481217637 8.359775106556896 1.7671001765884018 -0.40909696574294707 0.4049623747492832
P 8.49551587424855 1.6576704806557352 12.444225189055457 -0.23381612148733924 0.09655469389829822 0.23053796495669973
P 6.39184454794573 7.895643149984298 1.405085380410048 -0.45372128932054123 -0.8584607494257409 -0.016023114901133693
P 1.890069701415909 3.3305930386191536 6.073237539454199 -1.0474250047057123 -0.6444624339952771 -1.043811319212525
P 6.959118450615976 4.208494266052773 6.314543175393687 -0.24602526195902147 -1.4328133139778096 -2.0304310197054063
P 2.3505971985772085 8.468793001581641 10.187722063366856 -0.26582687006598094 -0.028802526053989107 0.005050417939713882
