# total energy = -340867.4026668326 ev
CRYSTAL
PRIMVEC
9.26626654323686 0.00000000000000 0.00000000000000

0.00000000000000 9.26626654323686 0.00000000000000

0.00000000000000 0.00000000000000 13.56211773460398

PRIMCOORD
 96 1
Ni 2.212932704614528 3.2831772211053547 8.016743836070429 -0.3971166534526193 0.3797768766225911 2.1494774669483174
Ni 5.097558536540869 3.2069251139338384 0.32544332623684435 2.822608215412565 -1.8994772795019483 1.0401055882261636
Ni 7.415533638396412 3.0955723891944875 7.014340436633293 -0.21494422428350077 -1.5717176764869125 -0.4125430153100186
Ni 8.831354298386394 0.6116023155732578 12.781956604445657 -1.9186577090851407 0.047617858988279284 -1.2595289313269404
Ni 7.58273415143601 4.764334326309381 3.0920678871976146 0.1875421781214641 0.5237609676474463 -0.6944279672801266
Ni 8.876962862184937 3.615975183077044 13.30818046695443 -2.5702449270506573 1.8506790270523223 0.35376091217480365
Ni 0.4143170150316839 6.088845196037104 10.099289051265606 0.8546606589533603 -1.8367351632777207 -0.9262080321740436
Ni 6.812234824249377 5.005275788294285 13.26809089149364 2.1604383368351954 1.1880003271593347 0.06611746045436355
Ni 5.716406145904066 6.7277542724104284 10.911605185991865 -1.0157022196811345 -0.7094318968881267 0.28908918302803116
Ni 1.5059351018714988 2.7465028632182804 0.8776775988599028 0.37086671861715487 -1.7083255296523547 -2.7258910277944732
Ni 7.468749807005723 5.010965275935956 10.390128431819948 -0.8662043979269018 0.15311227857836857 1.5027313791251862
Ni 8.374128909619332 5.04914229398756 5.5987542131862 -0.5844374595918967 -1.251626388650412 -0.7149291725572718
Ni 7.3341480195742665 2.19411291731773 1.8393622433397174 0.03407148776241229 2.1065410725961073 -1.1789402738395955
Ni 7.585643759122466 7.701852007516925 13.325147000947753 1.2275063556737569 -0.8575454367003231 -1.2633295360199532
Ni 0.6345956293094837 3.2756252138936905 6.554150769207321 -1.8089325392431554 -1.3667117943630465 -1.658899156700427
Ni 6.057182363347217 7.356720644810603 3.3758417395324547 -0.3534145845789784 2.2262251534230177 -2.654201729679287
Ni 0.9658600241725458 6.401628022331253 0.559626900050624 0.11674196747945055 -1.7190863677132846 -0.6471109273617178
Ni 4.96427255895488 3.1376412391833908 6.694776556501726 0.21583331175667345 -0.6921895648679112 1.078138117518853
Ni 6.231165783477537 8.439280029503028 5.962760960788423 -1.1921040649150632 -0.994304727841965 -0.7727975056289658
Ni 1.1478402323073638 5.310191554315178 2.650336622674263 0.07829806168095547 -0.21875177095504905 0.8084165403841561
Ni 1.975836743234336 8.119918153981539 3.1727492697644384 -0.46757002227817535 -0.40484358978323176 -0.2755687799440932
Ni 7.3918768599775415 8.304465117941673 10.968146091027615 1.1610438531751488 1.027771492140843 0.24015543344180573
Ni 7.413569189894727 2.7250236574309947 9.534616669096268 0.6366889606974454 0.6427531646136543 -1.2676435900142748
Ni 3.6341092666515555 8.228407602367021 9.427909123762078 -0.5556195069189399 -1.2294243986320763 -1.1057088280482699
P 6.956427197526322 6.540816611688812 1.478623707938174 1.1446242741665449 0.09844805426626915 0.3057620156980218
P 6.473108002246319 0.9749224328265431 13.646067462497465 0.4862285179196271 -0.09179558194675803 -0.5735791767211541
P 5.958200104408569 4.732745623751634 8.217924675055908 0.5184719513343651 -1.0957753709846418 0.4724682309107412
P 1.054445532078695 1.7120261354845385 4.841743790168918 2.26735097692905 -0.631871227593828 0.8449460027687576
P 0.7607790136099003 8.390493136289024 0.28282683989676377 0.005216511203932952 1.582515538433365 -0.032488202435692434
P 8.878269405763886 5.582610523659621 12.060818678997105 -0.19893396489817353 0.14655159464171535 0.7956818664263071
P 3.5886674956503257 1.778530130279772 8.052547763266931 1.2348288574770991 -1.7950215855890184 -0.17675048682259883
P 3.7782089772633256 8.564828674547003 11.576515406212959 -1.2562240353234237 -2.40537756481889 0.6669968676523674
Ni 5.695872099301553 5.256178486785373 6.137847993260962 2.147821162291817 -0.1076510609217759 -0.8567100852832213
Ni 4.627453037314649 5.303686635219978 12.931695764859905 -2.2637421765318693 0.8082216507645307 -0.6354298914793637
Ni 2.998702839021801 7.725110336475547 13.50828919890385 -1.385604260392175 0.11401582679753912 -0.755842365831866
Ni 3.232657536052601 4.915800718802468 6.853182455989678 -0.3920736917120732 -0.678478900150038 -1.0925668913496733
Ni 9.13534343775555 0.7606029545460702 1.4040321157265718 1.6251418577443235 0.6793409910400171 1.9094873554397822
Ni 7.869617762814082 8.994283062561479 8.522448478003117 -0.7595717509673111 0.5983396714952857 -0.48044430713768227
Ni 4.174629125143342 1.0144986571222714 10.484344123262055 1.0674022191585875 0.22247498544290717 -0.5534965470386661
Ni 4.202112871633891 4.288020428516517 4.395441476372543 0.3013620868581132 -0.5621205412622512 -0.46744455244390465
Ni 4.115927326755743 6.76798840162889 6.092984437290418 0.6308875235243199 1.9241313306052021 -0.17401894682404867
Ni 8.431320306564599 0.019866875413261875 6.119810278858231 2.8390573621075235 0.48091044814082334 -1.0193791543120896
Ni 7.115983040689081 8.897839760648592 1.697922877845087 -1.2056851460336075 -1.0793629910648894 -1.881471844063463
Ni 0.816567497804436 7.646847449469759 11.805796198412391 -0.27199880320464764 0.16319794494914475 0.6424091510106743
Ni 6.653633406537909 3.195759262780396 4.77192617846707 -1.1650239208688196 -0.0624945189897956 -0.35028375225948055
Ni 3.089271327962669 1.0478479503183207 3.6494171389382664 -1.3366157463086141 -1.5400861656245604 0.017382457142505546
Ni 3.2709735481019657 4.230717836373041 1.1608723095374067 -0.6773540425169754 2.1732547718735735 0.6445570505916125
Ni 0.9168062624828417 7.961168476005793 7.452858159928417 -0.7633348175541693 -0.8114087902432606 0.09206529066837693
Ni 4.068076326459995 8.962471969607316 6.949161517950045 0.0066990092867303995 1.3763660296233586 1.3043987952564373
Ni 2.159809198670391 2.1501444826927636 10.20093628845465 0.1257714246715705 0.4163145665373088 0.9916649762262728
Ni 4.983036748652575 1.3480657192149024 4.785705116778414 1.5831189763453186 1.4371492223490026 1.1258709048184417
Ni 0.3760862526342791 3.7081838011914883 10.12831192462469 -0.3037002480729866 -0.175651083110833 -0.2101051510236446
Ni 1.3502988894455907 0.26798691406918035 9.00638573325983 2.0152437704420065 -0.7900573211506781 -0.012275217822927247
Ni 9.11416075249682 1.0471807791290693 10.485523718989716 -1.2847028594894068 -0.04489917450553558 1.7514537283003964
Ni 2.3513336613181095 2.999610933140504 2.957395676140626 -0.9436815063684587 1.3983559036308884 1.584896894181348
Ni 5.259745999394564 5.383635982731929 2.0792899757676206 -0.6186477869250184 -1.1721587321413878 -0.501928188043071
P 9.196287672640356 3.586276798888842 1.811099203835058 -1.5044406485068091 0.8017206164212193 3.2890299830189096
P 2.994996332414849 6.439554851186887 1.7565116277811745 0.547751931245405 -0.44323015998123017 0.022096317678407106
P 1.7977483670368173 5.329984299596301 4.826337695457123 0.24969319772891188 -0.07526030329589618 0.86823608364495
P 0.638784908401991 2.4603976182276677 12.094736920957322 2.5405821098789017 -1.7927302184516802 -2.0300823781167363
P -0.018543652554580067 9.219444072667287 3.4785073394117623 -0.11852991261780875 0.7704781134671699 1.6252624424825879
P 2.7467252536146978 6.925728056554243 7.787747518253078 -0.1493612961763686 0.15957474637426067 -0.31353728876806647
P 5.76402548953688 8.540319399608535 9.599904003097768 0.7493295044140128 0.9229458164830041 -0.7296816482760982
P 5.7714848340833695 3.953665733769909 11.704378764632976 -0.3517683072248071 -1.2317347919328077 -1.0646069158016376
Ni 8.783364304092885 2.7232908655922445 4.001909623765994 -0.4678199335054524 0.8932058662164102 -1.2815802547000252
Ni 8.119927420248057 4.8090440622557376 8.213218338291732 0.7934020692531949 1.3677638897766444 -0.01477561564727778
Ni 6.962830187689831 0.706916986224328 3.4983621686785513 1.1952858050771542 0.2813643035799476 4.304140848972948
Ni 4.052796252972835 6.544773307491733 3.810439832090727 -2.715872981436839 0.10692780960250615 -0.5493023064516603
Ni 8.138673077412717 7.131485504572658 6.725806503188474 -0.4259634024809825 -1.3105391038262204 0.22937634054843078
Ni 6.5584595831379024 1.7669565633995648 11.299305777079029 -0.9454576244322748 -0.540907654630062 1.930946553754823
Ni 4.369572840135975 0.7157264258024008 12.967635906174213 1.193695577771899 0.8684996217189815 1.9424982631481644
Ni 1.7426696788575131 4.715223113767268 12.562006016002572 -0.9270477544665195 0.8309082937287691 -0.9694002512908014
Ni 6.155312125766268 6.983707086153487 8.037846831437108 -0.3503056066363515 0.2182259803585661 0.4225003836330466
Ni 3.178385013060309 6.3467902570814 11.21831212133057 -0.5457328439328472 0.3744156123106777 -0.0867104541143668
Ni 5.768927344524574 1.4383562201602493 8.447883757964416 -0.30767723044286366 -1.2991529734764657 -0.48567470229868603
Ni 0.8302018823581083 5.489076829433192 7.104149091719735 1.2146968626139143 1.4547039434033142 0.17685950159663735
Ni 2.0238638025939144 0.7571688761747294 12.516857985649944 -0.3085889436238556 -0.1704152886331904 0.03938698643805475
Ni 0.2802369184051562 7.063869557795338 4.569714930644857 -0.3749162060961801 -0.32446396298289926 0.7502039365991661
Ni 5.19837551624996 7.395370242454594 0.4137610390406411 1.3840898806301776 0.14065425532067388 -0.42537127742293834
Ni 2.9816065772972355 2.6819540506582142 5.602673843923053 -1.0860776840809039 -0.22734851148512458 -0.41064142741193144
Ni 9.028188331748572 7.554472038558002 2.283480498117946 -0.9814031892889484 -1.7302536971840135 -1.2391904768799045
Ni 4.034384181402802 8.561010972741844 2.0924990386881452 -1.042608042933043 -1.43997589316452 0.18958569091405414
Ni 3.272011369951912 3.1156616550041667 12.613976798391949 0.18734626006057412 -1.3978625089342376 -1.6109398552123286
Ni 1.8302729625128198 0.8657491339720801 6.773939197986351 -0.4356402634491143 0.9496397808344225 -0.11682784232503751
Ni 2.2912789880189726 8.203221889972783 5.576376179546728 0.019477906218953553 -0.5058843444773417 -1.1183152039583708
Ni 4.220061629878055 5.690303073124607 8.990911068175805 -0.6951350206494803 0.2389501002797949 0.6428516378647315
Ni 4.4257912790969165 3.208500379241793 9.778530749379948 0.561778327431484 1.329145663183814 -0.03019066465076736
Ni 5.111967580975394 1.1626199274025844 2.0929604987607107 0.6741795014437357 1.8929816444752756 -0.8967077087220814
P 5.501447295233893 3.1838613765720805 2.7409449565611563 0.07322836046753195 1.677194612575505 0.9535514571840029
P 7.077833821437029 6.624991376732688 4.819312012183645 2.765150744626044 -2.045430578438032 3.255301223307897
P 6.76646873392004 1.164046932446261 6.071678510687007 -0.9293072399246576 3.237884570493346 0.3713305456274508
P 9.245463749048088 8.030146563961166 9.796337733746396 0.40119699416958 1.3180274417834656 -0.24895400557004219
P 4.39575930931409 8.66898151020235 4.482971556522363 -1.151187014985727 -1.7929292218363637 0.1713689107957113
P 9.33057440701022 1.910982143879196 8.607428481607354 -0.3989364802701774 2.2631991595442056 -1.9946083535798422
P 3.0325988419423755 1.3582122810514332 1.3697200574393669 0.6698060549663885 -0.58739525666864 -0.027092228231101727
P 2.531414284816865 4.458983045762171 9.908984955918225 -0.1005977536194203 0.5556588447973075 1.113572804177379
