# total energy = -381164.88015236374 ev
CRYSTAL
PRIMVEC
9.30933358783279 0.00000000000000 0.00000000000000
0.00000000000000 9.30933358783279 0.00000000000000
0.00000000000000 0.00000000000000 13.62515070765038
PRIMCOORD
 96 1
Ni 3.6203253641140036 6.254289595498779 0.5221810024092949 1.3242353703663903 0.9876792521056474 0.05744795770482364
Ni 8.158932704307663 0.8628448944649686 0.555931060458982 0.21923590968031922 1.7142676061684023 -0.9101764326324776
Ni 6.288994791176285 4.18042142042763 7.976667123532241 -0.056112783833167874 -0.5994097646310128 -0.3940773524056632
Ni 4.248724001083711 0.9069022466815374 4.549043103164283 0.4333900339623568 -0.6550299250984783 1.370194353595008
Ni 2.316143582127778 7.848280241926116 12.603550219630396 -0.3654167512461771 -1.1111140582242411 0.46956802654481067
Ni 8.017319121516291 0.8990926467207381 10.492143087732536 -1.5497249742659054 -0.7029475747153635 -0.4868962334106131
Ni 5.113309740932717 2.129649702029201 6.5655788162988715 0.8502987824402389 1.4792867749490006 -0.2514896275077024
Ni 0.3887773209237152 6.167293872964899 11.691224355190888 0.18150085702339064 -0.8195802703104593 0.5640265000357125
Ni 5.076789225202337 2.2108550190610927 2.0876180608049673 2.7259159674951374 0.7418465657734062 -2.647023980983925
Ni 1.9455297019997668 7.05677277087229 10.158176330271928 0.7593604062874535 -0.24319139205465218 -0.9747700002431471
Ni 7.011901782898689 0.9511625423706841 5.084593239562974 -1.3957081815953962 0.39756479673363143 0.2756034898367705
Ni 8.734854627748907 7.7418559401596845 9.742704495237362 -0.04774975658045325 -0.9834047931000096 -0.9667180764729479
Ni 5.528431545023755 7.330104114833469 2.0081703459576015 -0.5162615739466077 0.8268153546063179 0.8612447399287813
Ni 3.1335123819348545 5.639892196270211 11.699889482909938 -0.38385130380228083 -0.29302142820290183 0.2971192524213593
Ni 8.178947771557297 9.133722335366521 6.849335682963711 -0.8767829447736964 -0.678388911539393 0.9171901449461495
Ni 4.454059972397759 0.07204865649852381 2.336386728050723 -1.3848095324050216 -0.6361616274390657 0.4520498151553892
Ni 7.012637220253444 2.7183067938413767 12.594803169775625 0.7808712837760358 -0.2088208849945823 -0.7259584337882401
Ni 3.7516335146052144 6.267201641208194 8.234046924362143 -0.18436172351095345 -0.08704212642217268 -0.8028711850858946
Ni 4.4046274109579615 1.9741745215007562 9.64355450674947 -0.02208809014829099 0.5794783158144083 -0.47756672847957105
Ni 4.817226385642185 4.8578150801577245 2.1496805951459637 0.10486475642589037 -0.4257967949961312 2.30718919197191
Ni 6.541668723869122 5.783079056440741 4.10489014222767 1.210265052094806 1.659663031449645 -2.3311413319121335
Ni 1.1755081729050827 3.822933700681938 12.774110244331542 1.7512889205877582 0.1730460413878181 -0.6104459678405164
Ni 9.094055264877825 9.273623000774668 2.4167206914572352 0.28946970629590146 -0.9821817193261858 -0.34423266096939426
Ni 7.851910882031865 6.002323172159883 7.29940193260589 0.22442619563200703 0.9089477024316991 -1.1108728887477128
P 0.6208683170170425 8.100712131945237 7.78443031553306 0.12417991181473452 0.10669461054577753 1.460138227045008
Ni 6.043116672014722 0.8762661607225494 8.495131839966627 0.4396817805083395 -0.24886170296655208 -0.7882567776068296
P 3.7720488831998424 4.317352408415949 4.010631277615574 0.5355481900903615 0.27180365647470606 0.11802623350851285
Ni 8.621755533788063 4.230635965890204 8.410424351632729 -0.0026826890384857023 -1.6000144665490768 1.125429703515965
P 3.309375003057114 8.727127880857187 9.041976990827635 -0.18699299048621346 0.35754274781473905 -0.08748101373180417
P 7.160506675227027 0.13410374337263675 12.43199595810029 -0.1803495170277668 0.3997067827772987 -1.392582748592537
P 3.816203052485898 8.507343823788986 0.522474246417836 0.0549843266556795 -0.028770130154156907 -0.9575700914250928
Ni 0.04023959450537111 2.1579407668532204 11.871811463117421 -0.3327053770560851 -0.35314770407083695 0.2774158604551609
Ni 2.1132094188836867 8.808575240562798 4.094453448323686 0.09251729060413098 -0.4028527846054481 -0.5598901092698357
Ni 4.81677953762917 2.384855773462456 11.823673829982008 -0.16026534468338205 0.43724951691776304 0.9065252090331356
Ni 6.258813931630557 5.6795313387580935 0.8419882634574882 2.712178820414703 -0.999377257268866 -3.8471457739971426
Ni 0.8897628325823266 1.883371281522644 3.0186789591234944 0.6434165092292661 0.19622813593123625 2.790399491890504
Ni 2.658103333421195 2.1527461587019197 11.169626117065233 -1.7248731495983904 0.4014466482865409 0.49471752922724477
Ni 7.209715812660315 6.698652016441492 12.041989805140783 1.1352896270291803 0.13301627915944186 -0.3863110781966831
Ni 0.24646274531192575 7.899788784759712 0.506013482738392 0.839066146949213 -0.8230067794935053 0.5140244570859728
Ni 7.070522656606109 3.366860138064787 1.3181308874591806 0.43620436348270036 -0.05623773944680637 0.34622732280191987
Ni 8.183276611683382 1.9611507637880865 8.343851445160361 -1.3648510870052237 0.21645423317012397 -1.2391809637982076
Ni 1.6522205281233693 3.319680435357275 7.498642152275723 -0.8671569916481582 -0.355187103098369 0.13088252064589073
Ni 5.182059169601813 7.547747025172642 12.450567147707872 -1.1650324055092516 0.4967427871873896 1.3067341282578335
Ni 3.1710383056945193 4.56185274620405 6.222987892187071 0.8082568748778403 1.318562231241013 -0.7804807332058366
Ni 5.212696186494162 9.129728631250199 6.3697039207270585 -0.6124835670958355 1.9588026567351424 0.0635018772083874
Ni 4.060982670282133 7.116687641950732 5.634286115573593 -0.17715286446734008 -1.4283359949327465 -1.0772814259455123
Ni 0.8371483409165184 2.0599134839980304 0.8463571337180715 0.2946872459410989 0.6879958385015377 -1.4018734298658437
Ni 8.63356907813215 4.556332311376592 4.048972698998992 0.8932966261580034 -0.6156015438995269 -0.42611818289129194
Ni 0.9315291577988327 7.292494407071364 5.824833279523561 -1.4417404412641106 -0.33510550185714544 1.0769600380503517
Ni 2.8408269334099576 4.214381869416779 1.4795277350934362 -2.334123297358593 -0.9160766001669965 -0.25184212575111464
Ni 6.269417262606061 6.3254687602386435 9.394405087759292 1.8345800646079309 0.6689390789804027 -1.0249651330402991
Ni 5.725296022757725 8.19451297734399 4.205375089154443 0.1470043659084178 0.18335359396141326 0.31132999670410255
Ni 7.9026560595098925 1.9300203522147006 3.2358917782501395 0.3175502665822015 1.2585480554709099 -0.07226085434794007
Ni 5.936645823580267 3.3412315426516495 3.7366976197701844 0.4684238856380384 0.6867257135398626 2.03521712824014
Ni 9.16388457624504 9.278836227593178 4.699082563801071 -0.03841896609783061 0.8778718069625009 0.567692378923074
Ni 3.3016668748326032 2.21037093371366 3.0969834878042297 -3.5867264480999776 0.8994184227850252 0.9922578726152652
P 0.8895813005770393 4.865746632388742 6.134206639467852 -0.8283932406163991 0.3806973315543315 -0.4038794260977495
Ni 7.48179039658489 4.810523665446959 10.730882809886186 0.9863394502483014 -1.197652505537118 -0.3673491923821996
P 0.10841836102451198 3.6301653297339405 1.9263785409086274 -1.6191054217422567 1.3821049889896648 1.2970729510189856
Ni 3.1329538219185857 1.4462980687922395 7.7594412713385505 0.3008244691870884 -1.0004797463044253 -0.05984936805746466
P 1.674041606092274 5.625062427838272 0.08234012479827806 -0.7694098201036556 1.204278495494068 -0.5480820608913141
P 7.407306418415434 7.471596676287983 5.506237162777311 0.16842191235224543 -0.06591485752525422 -0.655171335772349
P 7.8735923199967015 6.730834382712184 1.8186034548361851 1.169687644893076 -0.5850959191115019 1.9099334418382654
Ni 1.3518734980419842 9.297966908150388 10.014321990881957 0.7169030084541911 -0.8174624526365083 0.5498370959092079
Ni 1.6174222391098179 0.731681038644627 12.944233661286638 0.4998869892433262 -1.1784412227159897 -1.432326089928746
Ni 5.843012546186392 7.289859865661296 7.118882782814669 0.9364698191113678 -2.3490202690750834 1.2909192727127639
Ni 5.569643964890794 0.9526241077465878 0.041535453743114924 -0.36986450260488557 -1.0831335138509153 0.019297414777031282
Ni 2.2212163073628806 0.29986759940075447 1.7963401835210677 -0.8671405365879259 -1.019115616238058 -0.6776209230251169
Ni 4.88445839293375 4.570901418467606 9.762938331826701 1.3382455686025534 -0.47172106833207145 1.3731786330343125
Ni 9.14111394624848 2.3537532898898834 5.6807201406593855 -1.3000950256747608 0.6411421113727925 0.11053326756557738
Ni 7.266772718322183 3.6107739878358056 5.829807256468435 0.5367375824127724 -0.9437311286594715 0.25735842758365357
Ni 0.8560183601328023 0.9980257277356438 7.470915233068135 -0.41947908030821945 -1.1571450323413748 0.4902911180247749
Ni 2.715346425755152 8.679557186138288 6.372714559214748 -0.23055673400977714 1.2850365886797417 1.7387082557092701
Ni 9.077540507063475 8.49728043416254 11.948153584274332 0.2809809520985999 0.8635070536003968 -0.04299270151144209
Ni 8.377031771993455 4.679736837637598 13.131198593665601 -0.8112637800249641 0.3410663474262707 0.6961146109539302
Ni 5.589007378788115 5.029935349170982 5.789231595019943 -2.5462881591247437 -0.006754030894381916 2.052538650237723
Ni 6.602458672306385 0.32341555875329037 2.2817083571248014 1.3885869971695828 -0.37577598299331416 0.5434998408372704
Ni 1.7677865954894023 3.636123303240809 4.4554107567037695 -0.8515000018371917 -0.5367476097151015 -0.053082738757592444
Ni 3.3426186333587173 2.0213635335418725 0.4809145884073495 0.18244625165579545 0.33602107169287937 -1.0198013294511725
Ni 2.023532608271717 6.009863732379514 4.3954875072250825 0.2234921138535119 -0.9524862491442821 -0.0014048507673266126
Ni 3.423702929053751 7.082094158276479 3.057279179981116 1.9597873892459152 0.590504234611267 -0.30617981996173077
Ni 1.7343847065165228 1.3971540966941818 5.431325886195408 2.903333912698406 -0.1966199720530162 -1.065673409392939
Ni 1.4819341978301945 6.456637270725788 2.1236293559871826 -0.9416534201948364 -0.45661789414204584 -0.9916143254939954
Ni 9.093347755523885 7.230987639946556 3.664715990473613 -0.7807537843615651 -1.1634902578331123 -0.2375629901242812
Ni 5.375507121902937 4.911986092402202 12.086571272839286 0.5750693881134354 1.1933086267461255 -0.08749901145393318
Ni 4.4564617804677145 7.311857820968687 10.206164083136308 -0.2720155153751961 0.05806219425005485 0.7485756569671237
Ni 1.0310831713651574 5.614850088874156 8.33894635728416 0.9064082238392971 1.8679103033289444 -0.516056399914337
Ni 7.177328641050324 8.055803906637218 0.4484892485295801 -1.3928192900833753 0.1797746183609033 -0.786670149846
P 4.0069233700409095 3.596307283414441 7.9255048879087315 0.3429059717381707 -0.6656853479297955 -0.02341117983508871
Ni 0.7378764001584094 1.984284457795223 9.587664060588246 0.5710672089325779 3.1839379410735615 0.18260694560337584
P 0.5334434342039965 4.3348632649259775 10.378822431631905 0.17392612999992627 -0.4960974402939069 -0.12255291773427278
Ni 2.7697408620061372 4.343167190501175 9.554118807877856 -3.2903615573461393 -0.2943859126505962 0.6742386368164452
P 6.696036093698632 8.454494736916345 9.495640366974586 -0.11202605006101997 -0.4780076726717316 -0.2827537277283066
P 6.470405775126816 2.885269692037752 10.290681661064676 -0.19156878278235395 -0.5815614235956822 -0.18668805765128493
P 5.087439102845863 3.6586705092308627 0.08114666823018354 -0.13180837489426978 -1.2421637005756154 1.7197070320164187
Ni 3.687473587403128 9.24028627713702 11.3783227578105 -0.10898546346248326 1.3709235184515485 -0.5478208368101275
