# total energy = -381171.65647961205 ev
CRYSTAL
PRIMVEC
9.18890771334418 0.00000000000000 0.00000000000000
0.00000000000000 9.18890771334418 0.00000000000000
0.00000000000000 0.00000000000000 13.44889526749990
PRIMCOORD
 96 1
Ni 2.482282334150694 5.113342272691105 11.393379939035027 0.3823865463312963 -2.024911118328442 0.06154269659948756
Ni 3.968762742063744 3.0021080310150445 12.713751543766472 -0.41331666025124947 1.178004135178571 1.7686932321071345
Ni 2.23893249182762 2.4186215816825345 0.8540060539098927 -0.34729253084164063 -0.04648477382510059 0.4121864033015482
Ni 2.536625534222387 0.8450477878040601 12.5363201685307 1.186557424065221 -1.3109813335699616 1.4572809601018708
Ni 0.7818170762157379 5.929289708735435 5.29275937087843 0.6853121210217875 0.6798855506895775 0.5266681139919123
Ni 3.9373918112141055 0.4021755172705181 7.746455932099968 -0.3229714375977728 0.11163215705671097 0.5417759161676282
Ni 3.885713394372171 3.665593110686439 2.5266978383553838 -0.2428869734403559 1.2686100676926024 -0.4775235339464614
Ni 5.416162725576235 9.203977497431696 5.6150079312900365 -0.38862507104184035 -1.3063978279643371 -1.1850690124451526
Ni 4.578988912770726 5.6785519846305474 12.572215717526316 0.4502114763950698 -0.2396203868739422 -0.2953809295740139
Ni 2.9935439690490626 0.1759005032148134 2.705608627729055 0.7843810967015071 -0.04505344069521273 -0.9238433885966089
Ni 5.126702944470652 5.389377059663318 7.604650870864528 -0.13102367420944533 -1.1977502074572468 -0.8477487623248754
Ni 6.397271588419452 3.2295978186672114 4.215690745040845 0.6217999594007549 -0.7222339337488013 0.5071842942356878
Ni 8.334982497299796 7.035946617331027 7.940953865586188 -2.6797099012527203 -0.24589285014621523 -1.5122442037116277
Ni 4.611646290696799 9.10619833071494 10.544283518503272 0.30693598140146494 -0.36430346357734034 -1.616677014806422
Ni 3.957230662914273 2.458740352651932 4.387769581547878 0.6393613653232859 0.504553284370744 1.3751632675645091
Ni 5.257249756005747 1.0570551848913308 3.209296764910297 1.8246787463338188 -1.019248028050864 1.5439855006789667
Ni 8.659112027115304 3.452346129951946 0.3514509090466827 0.3004891973348567 -0.5802293350478201 0.4251740738104677
Ni 1.7824826912930745 3.186171040929839 4.995901600192577 -0.42042113250651464 1.9237808892443187 -1.2122052065403122
Ni 5.387291177617955 7.695802078465336 8.20721533034057 -0.28892257554317985 0.2649544947633566 -1.062378540691751
Ni 1.5611862274231736 6.95174865617835 12.238266002063764 -1.8071091128811718 0.44577169545616135 0.8692323861199481
Ni 7.223124666952332 5.10385931995624 13.355479127812274 -1.6506847392104345 0.5591344620507339 -0.799858623511816
Ni 2.134270833251937 6.997095915622687 9.987821646683587 1.099647195235222 0.8461415657387558 -0.21966374124635718
Ni 8.792645233649266 4.814601694819812 11.634249695172887 2.573721572745348 1.4556020297375514 0.9080167059769974
Ni 4.0971869159227206 7.520542042116434 3.5954008826330655 -0.33947637723133145 -0.09262219161311146 -0.2208917001161873
P 5.062196812495122 3.905938180195268 5.94796248804989 -0.13656825817675836 0.4810767985153586 -0.34441083841847137
Ni 0.7584625484338279 8.657311001208296 0.4175724509939083 0.46458677128013537 -1.237933978764984 -0.1760820000006645
P 8.552934198770966 4.656938416695004 8.50955979780742 -1.1609466654756524 0.9993381765008144 1.0461240265061016
Ni 5.292277872115536 2.1375053287584023 11.337795317534574 0.6894973627477287 -1.0270109598257344 -3.902691115362615
P 6.199866284540487 5.133217880022027 11.126459629599356 -0.1947476947309678 -0.0002236859750318728 1.8202849881414973
P 6.170948792043765 7.130638311064337 3.159253054746203 -0.0762828310231396 2.108239029123821 -1.9999277089102265
P 4.048550027525786 1.8659822954614003 9.35885745541756 0.19316955161057053 0.21293567849390424 0.191358980764393
Ni 0.41394558912913026 3.2227704602544165 9.716543957221877 -0.618020951974297 2.971953056528701 1.552132041045501
Ni 3.04504779664491 5.303460772772833 4.176689345246409 -0.6577676357446156 0.6149531116822506 -1.5759828795211697
Ni 5.459727336928941 5.291257903362077 3.8456442435042932 -1.404766949363555 -0.39088712760313976 0.8977754878649636
Ni 7.972470900068079 5.026029271831917 6.403812252912355 -0.53887622602233 0.18944016647512535 0.6548599751795173
Ni 2.159145206365578 0.22520358741918803 10.46021420205824 -0.2861534974384749 -0.8811545914788308 -1.1509119069474696
Ni 0.12703113545335123 8.87747722943247 11.542554504236902 -0.06885851353461045 -0.49502246206217326 -0.10048539641127212
Ni 2.7358778085468036 4.561088920592901 9.043978398972389 -0.6789874643553403 0.19658089128496467 -0.6778857466507293
Ni 0.4054532006431209 1.0541239233385966 1.9117338668440453 -0.9996965882814977 2.7935272388862082 -0.6219418842952579
Ni 6.757109213513722 5.849778090504057 9.237266153315991 1.2856194577664053 -0.30632483018002726 -0.07563131348206974
Ni 6.7026189909190075 7.032785633086072 6.036832089871563 -0.8581635299002962 1.1215897609445844 1.8166358214246843
Ni 7.046743583865392 8.479762926844877 9.392022979938824 1.1481613407855258 -1.8940931323718992 2.3715138221919094
Ni 4.865636888123529 0.3970334045278533 12.721807459137263 -0.9116956974904815 -0.6398547600199368 2.065896559601868
Ni 4.465119968690844 1.7287367702211545 1.2932413547801986 0.4429424535374823 0.40325747624303454 -1.3428203324574295
Ni 1.6742006030879957 8.626298437758521 7.03916549169442 -0.3141584672918331 0.17420612313419032 1.3676541036716576
Ni 7.307285872474251 4.633543457719262 2.2318579517979957 0.41603971560936737 0.894183399638331 0.8035913510813709
Ni 6.327794257384268 7.261644567983873 13.150033529705592 0.36243684268224674 1.5249709072496769 -1.0122795671528309
Ni 0.9086203267584064 8.472035055478578 2.965669417575021 -0.04115333430985816 -3.3637341567010197 1.4452813645378335
Ni 0.31610853229393543 1.3897947212112651 4.470802389205612 -0.3663968557712593 -0.552106608669675 -1.6639410899997087
Ni 5.49187013602444 1.9250394051774593 6.743612545900381 0.3658988330889182 0.1913021593845286 -0.5848017849098509
Ni 0.3119468760016679 5.6098832774719805 2.891969783456824 1.5272311640387635 1.8034162374106166 -0.2429340246282074
Ni 4.78357075355466 3.9642050438500887 9.820773737136186 0.8509233033981152 -0.26990463967978034 0.0258886948413038
Ni 7.3733265520338165 3.3995834220027303 10.959289507579692 -1.6483208669639482 -1.3660319946872024 -0.8824519701340158
Ni 0.6639996585019686 5.5904671155255 0.48846671159470795 -0.5125463298785495 0.5125229328397818 0.5756800251142409
Ni 0.4732995005635383 1.667428378121334 12.735243479959859 -1.0489879783174578 0.5271725644321567 -0.3570321267269077
Ni 3.025374345283142 4.773187287866291 0.5599922501537298 -0.8297993769353064 0.7958325330715584 0.7866747778316904
P 5.574680572116103 3.7799306890584514 1.1779876423116107 0.20024368484853255 0.04765462576348567 -0.41365373187569404
Ni 7.974152470175133 2.3769590742214155 6.114432415303665 -0.05839052412375105 0.30794591072321803 -0.7821324098766466
P 1.3647365699438476 3.8053012631872893 12.778320160314287 0.42405692948688906 -0.2813059395381865 -0.6917691895010409
Ni 0.04399189556023546 8.836393623155747 8.79310284125217 2.037984663682948 0.17575624123012956 1.2593828926673794
P 2.2981917575128334 7.825200276539328 5.254133797408467 0.05065690292491921 -1.1616274935927606 -1.7329893509476217
P 3.3780262445647535 7.74725077261505 11.895009760893972 2.3780002012472012 1.023639215140024 -1.779990916508141
P 7.492745596357747 0.5088872211515771 4.930122804502144 -1.6254298212983878 1.5153670656113258 0.29745426716327483
Ni 8.683986400228946 1.7112962234277704 8.2838875760961 -0.6741190805194455 1.2179341386042895 -1.1704674604818939
Ni 1.1544851731159107 1.758297486256095 6.54224222835369 -0.6656393251832085 -0.8074410638447643 1.970732318293193
Ni 4.280983447514539 6.893279636554376 5.9198003237651875 -0.5867619939600154 0.7888645863941575 0.13347213574993785
Ni 3.3523708142975623 2.8368363373238914 6.937693302977528 -0.6715371787248822 -0.06251714469761491 0.8940167921534796
Ni 8.073328350860589 7.182555639506182 1.4975208805011702 -0.15617189134029877 -0.5597579545673458 0.04269831019947485
Ni 8.869087756712577 8.26286794975792 5.324915034444694 1.3762958385070556 -1.1830987760926592 0.5508148864414449
Ni 6.370972934614042 1.25948682127608 9.066828455722183 -1.8723935359112787 2.543126216456994 0.45483791942348756
Ni 1.82658944819942 1.8947251987120355 8.872935152361887 1.6831042931917206 -1.6203562634302222 -2.574638942353295
Ni 5.105788990570893 6.218005188318222 1.4030561527877732 -0.16920018527916666 -1.2580754867098654 1.0498732091358887
Ni 5.302881871588437 8.721376065614763 1.3776240129774202 1.5675476042696228 -0.46230054634911993 1.6083116735608625
Ni 6.534370091136677 2.4941635917923404 13.07923850930783 0.7086993895974762 -0.22829827699290356 1.5134166267531741
Ni 7.3566394956709145 2.3476924032325175 2.066691930545264 -0.49368034621198204 -1.653716841168539 0.08863286794806026
Ni 0.6396821331942699 3.4506278042141365 2.425764119629056 -0.629641824042677 -0.4168195311981853 0.8480614084692879
Ni 7.657576222479837 6.268847414560475 4.253266945252745 1.465207156927483 0.8078907497876731 -0.6273499426847067
Ni 4.710932438274522 6.506013122008971 10.391449930259709 -1.09611552793288 0.9357807634641431 -0.8520301633090488
Ni 1.1483561716874664 6.401461730325554 8.02320745387191 1.962276474216356 -0.8439054773193855 -0.728987450422551
Ni 6.709749583285533 3.5097492362840175 7.781020008371471 0.2844691677575165 0.8774917979152629 1.447945284523242
Ni 7.619607655909624 -0.09704497299241832 2.8637947547013574 -0.39661683099806533 -0.0007936995458889556 0.4250550317341002
Ni 9.004394422430481 6.8128950720925605 10.392136341664063 -0.8389915849575357 0.020535915169822696 -0.7191522094996841
Ni 7.560780268885785 0.2413641193715193 0.3774610311506624 0.6985286197120614 0.27444340809039836 1.8121199358322015
Ni 7.212833090340851 0.20317134345369944 7.181347298145102 0.6892806187512323 -1.035827786786416 -0.9225056436217918
Ni 6.8791654743443456 0.18736090888431225 11.811411835413375 0.11988668375601931 -0.14458392939238324 -2.7475075776229843
Ni 2.7870140798350986 5.094799056975062 6.393792667968463 1.158109196026857 0.47524399388366534 1.2089244789065117
Ni 3.407302104461341 7.803431754224508 0.5491401501732309 -1.3210335755996412 -0.06569219999148686 0.28418454663756215
Ni 0.9621153906504216 4.103499695504942 7.3394525627297424 0.3068267095171103 -1.7853771205207185 -0.48392120994268917
P 2.4595214098054816 6.486201837031871 2.044070677596922 -0.5536091613571305 -0.4745868199156407 0.7791129063240324
Ni 2.560921006151632 2.550620240632463 10.92983630176471 -0.21837099057686266 1.1789536435760342 0.07595810069386918
P 8.512594894017036 7.26353748296777 12.685643594037135 -0.5397665990470834 -0.7432928113016295 0.6744967755738385
Ni 3.0028890881685943 0.7383131116537789 5.530239338969885 -0.00011004321530303628 -0.9014511369443379 -0.7442466905744666
P 3.548756149423067 6.641227898649988 8.387591750490609 -1.1175330743767076 -0.25893759914531533 -0.5943976561284021
P 2.133453020467632 2.0113600040062534 3.0535181317524662 -0.1887271995685008 0.9303189690186235 0.8406885130439843
P 8.57326006257864 4.407919018327926 4.50996643266614 0.6687912405486289 -2.93751287257296 -1.4861876158338923
Ni 8.415716240253786 1.4245379811827013 10.510620874076041 -0.12277763215056918 -0.36822619567051423 0.059177538801420675
