# total energy = -340893.97156842815 ev
CRYSTAL
PRIMVEC
9.03231581704296 0.00000000000000 0.00000000000000
0.00000000000000 9.03231581704296 0.00000000000000
0.00000000000000 0.00000000000000 13.21970719872055
PRIMCOORD
 96 1
Ni 6.678123893311064 1.8561318411644818 11.337828716600383 -1.3541768951208293 0.14912526890616254 0.5321857013760318
Ni 4.551573552822383 0.29734202592113107 5.9571174872101915 -0.8997632077189537 0.06770923042151565 -0.5129247962638909
Ni 2.740431676090041 1.8467201682196337 4.7333028411938365 0.6819642875954771 -0.9821022722385022 0.47050905030184126
Ni 3.440905822173418 4.489946062896567 4.936701558127655 -0.24154022960447438 -0.4919080848029076 -0.0074420581003420225
Ni 4.910066162401107 4.54980321894792 2.691690590953491 0.3908513892691979 -0.15502517933036528 -0.566594774983521
Ni 7.0895458728099525 6.021664221565735 2.5955307516968267 0.4794832287759936 -1.1574589640373678 -0.5089048764712203
Ni 5.371491041537886 4.363475578660707 11.633474473635676 -0.7105086748920731 -0.41430679207866067 -1.0890591353067307
Ni 5.639136619946472 7.868167614208904 12.05577768384153 0.0867976145115344 0.5626267914747085 1.653130886758082
Ni 1.8415085220687917 6.3179603053304225 0.4036370266090954 0.8275692020532069 0.8551874779911078 -0.07426065838678825
Ni 2.8588543670496445 1.8365407484414724 0.3682375749723874 -1.1219731124259322 -2.232706647382303 -0.17822347182369952
Ni 0.2420091567969128 8.873870804270458 4.874965680413607 1.2874256577372087 0.8726077303500841 0.07105654962719375
Ni 8.766485603079188 2.1179064143771447 1.6177744495994333 0.5099173768961347 1.7271380343731673 -1.718489357559234
Ni 6.657512148915532 0.7297713652425998 4.69803255167144 1.0779751095784273 -0.7891651483537119 0.5534651795800983
Ni 1.11298000346459 7.38513743595113 2.3879419435162554 -0.5151896810386676 0.15308579621580734 0.7884740358239583
Ni 7.510171781992911 3.7682821042137524 3.9426057969542256 0.06562920796403536 -0.21472439496321086 -1.378864113454864
Ni 7.5322467615295805 3.784477046238813 12.627622622240086 1.3279220751893581 0.0758745398411274 0.6338180669075536
Ni 7.761676612270551 8.876137915507652 6.815446704843695 -0.14023773660854558 -0.12655175448102074 0.25896665261103785
Ni 7.187320690111281 0.6134965589531356 0.3728034105516781 -1.6145226874675807 -1.0301834440164452 -0.0666378517342078
Ni 1.8295587684161674 6.620678365547882 9.328406736233495 0.4228045451370267 -0.2123744066737955 -0.667613932411076
Ni 9.14124541320846 4.880702104105808 1.4130940470697653 -0.7568612940146836 -1.0371699026366072 0.8871180081511172
Ni 6.347884367198256 1.928923273278237 6.8634733338094795 -0.49438559980912267 0.36177786894200925 0.6167428565928217
Ni 3.3819609300063544 4.2403741481757375 0.6189665293325983 0.6631312140493741 0.8938350151599768 -1.0393481412348489
Ni 5.768831640882246 5.626274602409558 4.708885782199778 0.7354008101480626 -0.28955429558990775 1.1340871220806468
Ni 5.26801683303867 2.9309232139085166 9.372283016141548 0.6782354166806642 -0.764262214464445 -0.37484010144260604
P 0.18285290844279595 5.413852602105389 12.547868177963966 -0.6616042358818864 -0.3318957366705962 -0.7182700640050469
P 4.089091892750339 5.979898793833509 12.580375482118004 -1.1180804622397453 0.7725761336467791 -0.3278413640955644
P 2.440351052052904 8.789472846500148 1.3116087544846147 0.5413375430786289 -0.7114892936377876 -0.38204381827989686
P 6.251220524726311 7.689634862358737 5.779193513437265 -0.9447719112191599 -0.21630022409076297 -0.41057252184720905
P 4.77598143604192 0.9777843022760201 12.457405923442053 0.5681142969518409 0.03822150537504385 -0.8806473128251092
P 3.9812550757747687 6.258988316216301 8.265052984842688 -0.2056334884055362 -0.41021128185304834 0.1430404961646633
P 4.797938995474671 0.9224252394363122 3.7067133243398955 -1.0738464321220347 0.6473024745472336 -0.5514136963677084
P 9.159400367737392 5.7258197535853474 3.4749585555413383 0.7080473578357742 -0.7364657610774672 0.532837733137734
Ni 1.3865236840161566 0.8304022007638516 2.844391823173165 -0.10688358662813206 1.2491146779721518 -0.2682120824687058
Ni 1.789563674558405 6.512082834054684 5.062446747413928 0.01411921301020149 0.5866516936343961 -1.436609033574816
Ni 5.950037958175478 5.561612254413234 9.260880240933131 0.23696186620517257 0.3277439192857517 -0.21073712818068868
Ni 8.695870959045768 2.335196832836086 10.19092694834532 0.5326333304364117 -0.06232611173273138 -0.4553842788452609
Ni 2.356784067325709 5.241064403031542 7.06777076615406 -0.7861667278470202 0.14731212695682372 0.8731826290169479
Ni 0.6821900294401367 9.072509490837737 9.294550907347533 -0.6545285599820276 0.5570891494859309 -0.8815281727681658
Ni 1.5827507422952642 1.1478357096969987 11.39803181034251 -0.48971493380633074 0.6555523732608517 0.6533710493388167
Ni 3.981580239139466 6.951315313550874 1.619797688313105 0.4558329363469053 0.29581133224321315 -0.4936206966186402
Ni 5.53535531271393 7.9402183964364035 7.826278443751779 0.8493413036229759 -0.07791650997182065 0.8829489643750922
Ni 5.1528186787789805 2.8852467934842383 4.65107625211445 0.3053750646722483 -0.11717982634781755 0.13160371508263144
Ni 0.6761112809834352 7.693645210523337 7.052951445807982 0.7866745207213742 -0.9432444188310402 0.5742836589873465
Ni 4.886807949509567 4.544916736161775 7.119089674187404 1.4171524675121012 1.0628387681576212 -0.15709903114025847
Ni 8.239973857108843 7.237296492802111 9.212007283987566 1.1846833469709597 -0.8564964266105185 -1.718985323359046
Ni 4.93304437350638 0.471912300879833 10.197945960864939 -1.1090088389557804 -0.35969167583694184 0.08912523420344651
Ni 7.951427500202772 7.076846436955387 4.655782088586874 -0.2704260594008891 -0.16189773808048247 0.20255922035558663
Ni 7.225418997674975 6.031202346930187 7.010159043782255 0.0659991897089444 0.6810831705421044 -0.3158862486162173
Ni 2.4040501753107297 5.289025999324386 2.650471618320271 -0.9083782030814743 -0.4063093756954809 0.2962918714240575
Ni 2.1208148200280483 5.2924944085478245 11.508654193475655 1.4153105292073562 -0.3514996269444527 -0.7487515204233557
Ni 1.0755139579989175 3.4009468575783997 3.897116345464648 -0.49817052077285173 0.07401383248330479 -0.3759747292676815
Ni 3.5935158280046635 2.4784222626695414 2.402337648256658 0.9143087096332964 0.08938003052672994 2.201019600691667
Ni 1.0661293820011273 3.37044472750666 8.448397251258804 0.28641009353397123 0.10167530295431522 -1.8980184355682348
Ni 3.648233596430663 2.721707685672891 7.198302179522361 -0.3025522505114725 0.3506177385601316 -0.3838003959596874
Ni 4.045068386096605 6.8629882984571395 6.098157999879196 -0.038785862518946106 0.5123771512905368 -0.1888454703139199
Ni 0.5152367062994679 7.129125480146157 11.370270084849915 1.2442689198440764 1.2206157992015108 -0.10168481603601197
P 0.26368129505398485 5.592448580165358 7.894861719987411 -0.19421547637658165 0.4441781257167963 -0.20222960493030975
P 8.652479714490056 1.646157598411229 7.745624380833331 -1.1524100887595508 -0.19953586014823055 2.646995441738835
P 1.7175128923309047 3.3692705264674756 10.498549555980295 1.2656712967792525 -0.6341127153298369 -0.04615464417919148
P 3.860122690109355 6.30978605963456 3.863723874373377 0.07911104450055408 0.19724654989342158 -0.5914627418697942
P 7.091686531627543 3.8685046790659956 10.384212181405484 -0.5553145740840114 0.589120724000179 -0.9495122541176229
P 6.3898214089285155 7.7407216398789505 9.917331783594344 -1.77994180843776 -0.2649200419809954 0.7817518866087763
P 2.2673731743496504 8.585423802836933 5.759191450350541 0.3841590648506868 0.29537450181611064 0.688076314030486
P 6.882814231387986 3.865514982573918 1.6256009511413823 -0.4340353808558396 0.05664268819470889 0.2674816320605845
Ni 5.272740734142466 2.719919287167056 0.459679835746236 0.9606039931554101 0.45126537158088087 -0.08512151236069213
Ni 1.602359899649646 1.2909888810049654 7.059746456898586 0.22149719491067013 -0.6516851769959615 -0.5634757697385651
Ni 7.060037297463676 0.623755463109334 9.051203161365947 0.30812125995881773 0.931387519492454 -0.6402337406259103
Ni 2.7411452290292377 1.6918069218884495 9.288482997669654 0.5625488870489215 -0.2142042607936827 0.20656654174276684
Ni 6.536488151038351 1.7176393447505092 2.4872350930844056 -0.5620639769927029 0.9398767879103878 0.01198314050380517
Ni 4.142662557084212 6.958369552101668 10.462538616571644 -0.4933648718540922 -0.20527996172085938 -0.4417168086604973
Ni 8.128126691968673 7.058601159269597 0.309652168969628 -0.39223798520407926 0.2196136047347121 0.30562420456857686
Ni 7.530223522815908 3.8976068002064 7.996917854923919 0.7334879093960659 -0.8729013503311032 0.897674700621041
Ni 3.0298993291960867 8.295098079740713 12.364233070982758 0.49192659674566896 -0.3573270322595072 0.5936818610083002
Ni 0.08408814934227894 4.923054632357626 10.010186698541487 -0.7409628776168723 -0.08692565544896642 0.4896439713590794
Ni 8.523299535548384 2.2350826457720756 5.746077431205987 0.46374216389165296 0.9717381553953587 -1.1721888140483747
Ni 3.619510832549072 2.6846842236758337 11.611833948483504 0.18252595585379533 0.7593786611198986 -1.4296595988401766
Ni 1.2089935192071408 3.3239283017235803 12.706319382349369 -1.4505256436559084 0.022188877392213396 0.22329131069661545
Ni 3.2636556591506696 8.389259970767627 8.208565785773795 -1.2263794411581654 0.3301381305495411 -0.6749027527630054
Ni 5.636128858823022 7.7440274674200404 3.465030234139249 -0.8596673681393323 0.9005949595916296 0.4395308567527721
Ni 3.062099534616801 8.478083763224095 3.715451186534566 1.152923023840227 -0.7085757195354183 -0.10816913820877501
Ni 3.6503290936698227 4.56215039449073 9.607884648190787 -1.1420503427917814 -0.18628568000654372 -0.023645921553714117
Ni 7.371272831373067 6.225668103650519 11.24062474165041 -0.8218497830709266 -1.5728988412792073 0.8728015915284452
Ni 0.6030542987885107 -0.18573692684134688 0.0915361968569833 0.48453698914981713 0.40180737406006933 0.35408024318743536
Ni 4.613101687275653 0.47068300271496366 1.355932134019125 0.5298457403889455 -1.6126133862600098 0.5608869259654662
Ni 6.032412677232116 5.57414910858545 0.2291706232807828 0.14341664855715947 1.0724264118460562 1.7739236272681387
Ni 7.840646148313555 8.758049420228431 11.179562674686542 0.98886787309711 0.5082351040977053 0.9847456233986204
Ni -0.0529031762046749 4.9561219400842 5.554299691633821 0.20101218758344092 -0.6001003629401342 1.201325326403015
Ni 8.002956861191603 8.558182338727852 2.520244593990588 -0.11238806138612904 -0.030355729473721914 0.045539636303011895
P 8.47233017813209 1.4512221612752243 3.5917816233929445 -0.49677595441817024 0.38029341124769345 1.1524571399474024
P 1.754843453061287 3.3232237811000696 1.732284341403846 -0.651092023496653 -0.5312289938897173 0.08951449922206518
P 4.630696638232049 1.123854911550576 8.022062015330704 1.098424892792347 -0.775899027372425 1.4251354857175778
P 8.621083385165399 1.6139031990963986 12.422188924582201 0.647543386913446 0.31342570289086663 -0.3519505984389422
P 6.255998619724224 7.647715885259849 1.3557731652630507 -0.14403268487460355 0.4386312277566381 -0.8330423093526363
P 1.9341891133231954 3.357790453230525 6.1354244311682065 -1.6709985110671222 -0.4181778449982927 -1.3501243223180102
P 6.731649396066506 3.9244779393723537 5.951207643056819 -0.05345529160566278 0.5363372616505602 -0.16395950570551762
P 2.492142350196628 8.594149019789644 10.245881363442294 0.2898291465178492 -0.2854006784328504 0.5241499755557488
