# total energy = -340870.89417990495 ev
CRYSTAL
PRIMVEC
9.23049440109436 0.00000000000000 0.00000000000000

0.00000000000000 9.23049440109436 0.00000000000000

0.00000000000000 0.00000000000000 13.50976158867413

PRIMCOORD
 96 1
Ni 5.339351642698585 1.3810296109652076 8.059329041853426 -0.7123053617811798 0.12793295109926353 -0.7953954455341399
Ni 2.2563758310690236 0.40970840501113576 3.2969358966023594 1.0063518888144862 -1.0525217025023292 1.1680313402365754
Ni 8.119641090551736 8.094220309695423 2.722081951818326 1.1420796533678201 0.2066519023677215 -0.7524737064699493
Ni 3.92908905679803 3.1362634542887826 9.192595575262716 0.03376629781716766 0.16255542626913938 -2.3664492631848084
Ni 6.7198551154979205 5.7800062023570975 5.826868498046791 0.008226501674850348 -1.0201687400929205 0.11167843691361412
Ni 7.7820634589333295 0.30454169309816526 7.2314644835959685 0.6933059378605415 -0.4024604342630359 -0.5890785579083339
Ni 3.2467524691217786 5.64960701166823 8.98501837698641 -0.5324937195347539 0.2417312625693579 -1.110291819433262
Ni 1.645427885056798 3.544897429782244 8.59973293641526 0.16052811142646545 -2.5227237415412427 -1.4425783637843737
Ni 7.815985524890828 5.530524406792668 1.0528910826524165 1.6446423896710967 -1.023754657671966 0.19791889337009785
Ni 4.067297245527725 8.345151292839533 -0.0027100730789446645 -1.5162769790201047 1.1972933224254863 0.41046659239696404
Ni 8.526318201287921 5.353105078964346 12.21462058799961 -1.4638326451774595 -0.06395207737192858 -0.2026641213645671
Ni 6.087575497532557 9.195058271098759 3.664333562583295 -0.1171281471742757 0.40363362863553065 0.7058868598493456
Ni 3.508233907065731 9.017906627600443 7.19774364241068 1.2376809822139136 -2.34826873562104 0.38383330608015187
Ni 6.05786253690203 5.082614678741613 8.183457034824869 -0.5601397633867966 0.4662767573880486 -1.611468474022289
Ni 1.8432004524596195 2.058870947996207 13.355317669190068 0.4713940240099559 -0.4745240849985054 -0.2594842156774047
Ni 2.4362689313263552 7.136621156327044 3.543988226109642 0.3860907346557609 -0.5085827172451113 0.4842001746356887
Ni 4.996798774739744 2.967594634903374 11.099916578302025 0.22075234632484564 -0.7347953153535797 2.1425033496233294
Ni 7.33141227412326 7.643587585873631 0.25548623200125986 0.21093818844790124 1.0759933032617082 -1.0201363441930884
Ni 5.00292782284744 7.74983980389724 8.860863615581964 0.041427671017167364 -1.64683245534388 -0.04121658344762579
Ni 3.2967355948795625 4.784386643633904 12.111919341070923 -0.33944192444897026 0.3003033065762957 -0.010417338678582059
Ni 9.028946298589604 0.7750707470346222 1.2433780210320395 0.7098908388024161 -0.6987831589250287 -0.8681144704654211
Ni 1.1837924122223955 2.4117435084014374 4.491576908585257 -0.3018125441319705 2.000386650824516 -0.6912251440721128
Ni 0.5889332174928693 5.421659958927976 8.721253314792692 -1.2724890910320343 2.8001357453416613 -0.9701965219398516
Ni 1.5467908246971158 2.2501360170316715 2.152145091261656 0.2024196094539288 2.0467804075977076 -0.1854528996926032
P 9.145675127459953 1.5651779690202008 12.514294118489342 -1.271850686117087 -0.693828643133231 -1.1237962816776002
P 9.407165795898042 6.022638971271061 6.678483117721565 -2.0416821671391934 0.11024736089404237 0.282586606022823
P 2.604577761440378 4.017600265088222 0.7682734111513291 -0.217038130698052 -0.4227999171513363 0.18553980297945466
P 3.5698197639551 2.49239956618011 3.7165753902566716 -2.4025498655621074 2.430936387124601 -0.11694328485697925
P 4.167005043207427 6.27798213061318 6.970037505567431 1.0843481029843067 2.0969156336912014 2.8938532269014807
P 4.979445445760126 6.588837481701801 12.789447764350642 -0.1711565376745891 -1.1524473697553894 -1.0110066139776783
P 6.585154514540701 9.131257095616249 9.008660441622313 0.3050709031682681 -0.9348960468663448 1.0971090021944008
P 7.888989503029022 7.292967266038095 11.639104816785874 -0.4355345911091854 0.5189452914263579 -1.211139227169643
Ni 3.194350953899814 6.13964471496555 1.1580107190452829 0.5215894139174242 0.05133747393171159 0.07890278514448991
Ni 7.7336033647083315 1.3146069751474765 5.078953864766444 0.46134898106912803 -0.25092295637095496 -0.44144041507065906
Ni 5.541425620369758 4.521603706016481 13.260641413865041 0.37258447263920996 0.8726095301222973 -0.8633049648919197
Ni 7.528511015454002 1.8824392830406609 8.901257180979682 1.0145495941339302 2.1943380749064336 -0.39192868149377663
Ni 5.551071486744068 8.513820112224941 11.650399249413246 1.1034524279139253 -1.937429333265689 -1.520040559827595
Ni 1.0937212504228655 5.5027129279545886 0.1749206330651399 -0.3957573112112474 -0.12258659918568564 0.3282835938393056
Ni 7.3898782239939536 3.112153403600079 11.778458509838106 0.03238150165449907 -0.12077242879508232 1.2562739147247526
Ni 3.697495958873229 1.1888138010335192 5.321251566743194 1.2342619292300356 0.8309013517502335 0.5320620313139741
Ni 4.582146517068245 3.9827274582345 2.169843640722039 -0.0874614733477784 0.43695435427484747 0.037826069708838075
Ni 3.9876196201276897 0.5464997128906333 9.873960191906226 0.25241342487355234 -0.05827893824655124 -0.3151090041305606
Ni 2.269307753356495 9.265016186171382 11.3563461668042 -0.8088770249603424 -0.7299680691682655 2.301312164365843
Ni 1.5445201231391446 3.9955855365688655 6.302519553180478 -1.3946470873207337 0.45376088430922495 0.09982873666387969
Ni 0.7353556229560549 8.205032391823252 7.175709529853634 0.055549198020214005 -0.8236392708711816 1.9464454207213702
Ni 2.127545824383633 6.405344488730613 6.0246641416849585 2.092486137164938 0.002583958677092324 -0.0775850947743309
Ni 0.5677243111117687 1.4261667273004917 10.19191286993763 -1.1733458104709533 -0.0002753651485737193 -0.6569006597586299
Ni 1.3364186327957948 8.150304792078488 1.384966416715105 0.6054094338578735 -0.9305819928720231 0.015013442689696722
Ni 2.332564329684859 1.3778081685110124 8.138023619627752 -1.3182570412957684 -0.38068884691389926 1.0677367196798708
Ni 6.347672361355795 1.1528794873539157 12.900119542967573 0.36522160451623553 0.49549143127879175 2.5676553119466097
Ni 7.327369317690775 7.971002443445994 5.244476008700175 0.3455210407635146 1.4689535113437928 1.8745769167158428
Ni 4.326221836595425 8.037821990511663 2.4715838788492928 -0.01391121076445346 0.9958538174966397 -0.3314617344569711
Ni 0.8723896928313845 6.611526036293238 10.797528359486279 0.3267000514022696 0.34596249917630745 0.45722236049526416
Ni -0.10066592297123543 5.066193629669941 4.627323324528323 -0.17597169967504533 -0.32048878038523515 1.3522879056282324
Ni 5.774006381167335 6.426473089812712 1.3875740313091167 -1.9420565476250553 -0.6470029410289438 -0.32885515007205945
Ni 3.34805714228737 7.226230793419669 10.804323849270745 0.2965260989220506 -0.2262370235885007 0.6729929373348021
P 6.717252116150978 3.5495034463571535 1.1719699953303235 0.44551381380908434 -0.5848346950303154 1.1875640109528647
P 6.526762408623113 3.64855587895305 9.82664929420142 0.5093442780014841 0.2623396828483288 -1.0088134629811014
P 2.810593160108518 0.6499920131669533 1.2609279595367995 0.9232111543292487 -0.4579700372945661 -0.8088292024415424
P 7.694539913515914 3.463106021224585 4.986736613079806 -0.6349840621911967 0.6460233507244938 0.44128100667465936
P 2.765834494032896 8.53761632611295 5.252473308821421 0.1516909727508097 -2.959046889989994 -0.6204442167038089
P 1.914921391912617 4.4936999222370195 10.331778855414527 0.565775107295703 1.301880656820274 2.433016409582081
P 5.777984724140855 0.5013404433694177 6.070665232271567 0.48051809779841115 -0.3144675138918197 -0.9008119606984422
P 3.194083269569809 2.8057656116742944 6.785588233403536 1.950875688578582 0.7835064074060377 0.5012758991710529
Ni 5.692888798681757 2.612109844657063 4.26130284827279 0.6214196932432008 0.2997412634252386 1.057831544751017
Ni 7.686121702861971 7.142980966788191 7.808520824281351 0.138029158993001 -0.46383909448083344 -0.7088996785337404
Ni 5.106346279170655 5.223019725076174 10.218189317600546 -2.0717162516074388 0.2727948167433818 2.5916709581349173
Ni 4.164208203483583 4.767984055550509 5.703645093500879 1.6270164490592174 -1.73404941678102 -0.18209375341238315
Ni 5.967348311383871 3.367708864307374 6.647950489211575 -0.870587871706578 -0.9998760512821553 -0.789241510117602
Ni 4.167595794832264 2.6388875081516763 -0.11434551528389207 0.07225339814877234 -0.05747803961181069 0.9898276659072179
Ni 2.572483333322222 4.564608578205864 4.239984099011446 -1.0934660061251749 -0.4776459184569386 -3.0121288574166383
Ni 1.1580670250595249 0.46515690634808565 5.553174193308726 -1.9889652963614521 0.9700584537000908 1.1231650758515044
Ni 0.028041318142118517 8.544899185987907 12.798810254554912 -0.0815888166170853 1.1384669963158973 -1.1133684014760565
Ni 4.80238610720319 1.5157394424165644 2.4200168002974114 0.013462296152492944 -1.2438313180860254 -2.8795589217659954
Ni 2.494310278466696 2.255711235491081 10.947405738905353 1.8997948107423668 1.7512783790647968 0.3033495496017872
Ni 7.096708499673921 4.612487151300163 3.178603730900224 -0.43054870785881977 -1.2217691960796635 0.0895137278911168
Ni 4.711816498720202 7.365269726621793 5.062729425219914 -0.5324649231793475 0.09648193167883384 0.4392323516757467
Ni 8.756074430879242 3.085864956294784 0.542595213870219 -0.36246435348607253 0.6276685023663899 0.012913365627558404
Ni 0.31769514724495046 4.314951403252812 2.544995844828389 0.3123561239757717 -0.338437651554172 -1.2324364459855226
Ni 7.50632090754602 1.7181549483708478 2.5819852039879767 -0.9989869638089827 1.2575119008969116 0.20396972754986806
Ni 7.454897824702694 0.7763159406938511 10.908821350358703 0.6646749043874102 -1.1181529673488935 0.5624257312074958
Ni 8.095161820097509 3.8668016823541658 7.294109078162978 1.3916939182296806 1.023678810128708 -0.10266697744362319
Ni 0.3283886747039334 7.363035947040373 4.838196732261342 -0.31173983054801147 1.188380593316889 -0.9757033106906938
Ni 6.481551448334724 6.832891746713031 3.5590523925430126 -1.2241212412516078 -1.5996357430534194 -0.024959755269131207
Ni 0.7177355326958457 3.5655737366515767 11.900667483078243 0.5336388888827905 0.3326400710357884 0.4185719951129178
Ni 8.818758716571045 8.452529631147991 9.570558464834114 -1.4738136676495714 -0.6984352886673069 0.2900723728769069
Ni 8.690565613981182 3.857377347839171 9.990482257707882 -0.267624585396352 0.07701328143126092 -0.9361800557850908
Ni 6.989883991013749 6.2253590835319 9.924351305504915 2.604144922232212 1.239183277791053 1.0754425729645607
P 1.8088168617952158 7.437193736945828 12.78120677918415 1.7156009802678451 -0.9378127062925073 -0.22164837577655377
P 0.6187781741895715 6.42003943539846 2.703816650017864 -1.3505470116777258 -0.12198161861183507 -0.15155778960705513
P 0.09701064729254985 0.5103429443023016 3.590286538607498 -1.0677320916941806 0.6727401978940478 -0.40103115801567707
P 1.6308529348127463 8.682848920881735 9.40396927577802 1.4074416679822408 -0.11903024929299498 -1.0092153264052102
P 4.308923890580636 5.90359328837205 3.2841553544187527 0.4522827571018017 0.14383650970339742 -0.03231439586198951
P 6.0795357371382766 -0.26878275880718555 1.37699588502686 0.11185404325952993 0.559772609855365 0.8490302001404604
P 0.22447546389491624 2.174685957946884 7.523437012826291 -0.2722906234134536 -0.9368716825354768 0.10214864304630795
P 4.420788249040208 1.03638142083702 12.02494408700531 -1.5318429517791619 -0.34508575299830896 -0.9062714411511166
