# total energy = -381167.9005834552 ev
CRYSTAL
PRIMVEC
9.23419808351284 0.00000000000000 0.00000000000000

0.00000000000000 9.23419808351284 0.00000000000000

0.00000000000000 0.00000000000000 13.51518230226619

PRIMCOORD
 96 1
Ni 3.4752164870299276 5.207829029508379 7.583436313214807 -0.02412491807266168 1.1272461878994133 0.33223383673630524
Ni 7.534015809744731 8.930715937056425 7.395696760158925 1.6705256851957617 0.6268956287561074 -0.3612412797122488
Ni 6.755683741416512 8.628018931553875 11.158106957922087 -0.7571613417536056 -1.4326305085430424 0.4035187003242212
Ni 2.583128335395244 1.7031185145475438 12.625179983624092 -1.1599357077126347 -0.6664211976545555 0.2685846353167762
Ni 1.0845380690135327 9.199375689286176 3.523259248180877 0.004199382793328252 -0.9146437243752118 0.8011896836184137
Ni 5.9634449711271325 4.411176312646998 7.830696735348413 0.9679704608228104 1.0026554137995054 1.3063983421849694
Ni 5.201088065078334 6.321436353351747 9.118247720660696 0.15997146759204708 -0.4270844034593032 -0.6213682711799751
Ni 0.4839587687670956 3.121472835816025 12.91759470982136 -0.548179762811443 -0.11392558107657799 0.9274966690784802
Ni 4.689947511521815 8.421274475904191 8.387454226280852 -0.4061993324801778 -1.5705663364912887 2.739500905268424
Ni 2.3445074287695142 4.4499599436143775 12.51558575328834 0.22981214253426874 0.7092766022571849 -0.22304037102807392
Ni 6.959500956347942 6.168139434854254 1.755783915141891 0.2062659797832125 0.5724805443403366 1.0390030991906043
Ni 8.731940594150753 1.8618082045890734 6.673823500901577 -0.6858615657673544 0.5165773054148136 0.9618707756829756
Ni 6.494402113268413 1.9801629184245277 7.215647447072003 0.15016528013490268 -0.6215950424788005 0.9485540039694116
Ni 0.5733134842565841 8.68905697933825 9.27322618658656 2.1796640178340265 0.8746227038975839 0.3280645358499641
Ni 2.7850617739654018 8.266223059815315 12.19289670944189 -0.8882629203888379 0.449934054363967 0.17928688009120736
Ni 3.221506901118317 0.31185363608999234 5.603300173964042 -0.016721169409422816 0.08787927761148737 -0.9862137233037144
Ni 8.798260603104973 7.16471253515463 6.069776759362699 -2.8667702546417595 1.6803994926660477 -1.3008414169224825
Ni 5.242863576148912 7.559419088028365 0.9362534731086803 0.39869453946270045 0.4489536927285688 -0.18910463751257756
Ni 3.69485188287734 2.6030187975628 10.927024850420587 0.9126925141861121 0.9776699474987615 0.8614524850642132
Ni 7.826564431810817 0.5240758179039254 9.524676164284429 -0.10246154630103645 1.9790992022006497 -0.1642184157938591
Ni 3.8794619662820686 6.247304213016957 12.704109289741634 0.12942547648439 1.3363300967473952 -1.307788794774593
Ni 1.615679895111801 5.382096811321807 1.3186896238801642 1.8297713303653778 -0.6294469344230514 -1.800279491553848
Ni 2.8240300888897694 3.280956666872601 0.9134560854581404 -0.20586900145510997 -0.8983578427309948 1.0103838927920148
Ni 5.69718611033822 1.3476573025336573 4.747775752133749 -1.1347538091303684 -0.6731119794111697 -0.41155853990956215
P 4.451151155136947 7.387145892950403 10.862571072851726 -0.8481763367805973 2.1319487140359348 -0.07533949327326381
Ni 0.2634775203966805 3.403466769740275 8.371898296583792 -1.8026058256941795 1.414102624942184 0.5707314228597139
P 4.527462566164192 4.211200524020907 12.57264663205899 -0.14939626317936205 -1.5520286826984173 -0.4751740598776784
Ni 0.617767836123266 6.694313262509558 11.121859037684144 -0.47538437611627166 -0.5953029415514909 0.6258731010288641
P 7.151553803219269 2.907424129667486 9.097609288467341 -0.00443643850479881 -0.6271686799118361 -0.45176802224891227
P 7.477197790377519 7.6830649972315115 0.18273923492044483 -0.279791302665873 0.3761379943184232 0.47450017373910536
P 3.3297594025065544 5.1213415324511224 3.0881244537027883 0.39142551660511293 -1.1774264082982302 -0.16208542861125633
Ni 5.466709766215639 4.139081438817279 10.416394024585353 -0.1228820189389174 -2.302709816044318 -0.5883259960130256
Ni 4.86204525684064 3.3209315093625507 6.371124648559456 -3.0268733627156643 -1.1167481165815671 -1.1729976831029154
Ni 5.482232452800441 -0.059119181471276136 6.580096392730409 -0.8290619845486495 1.4147741970879117 -1.8441193715569337
Ni 7.5225746386093535 8.373228944493887 2.4923072292872743 -0.08797260865624204 0.05957528846047159 0.2781599377100371
Ni 3.1694537278413835 1.1922734553222047 2.5912119521925874 -1.8755202544657181 -2.810776255774643 -0.3263953756776572
Ni 6.3071418150809135 4.889757084586616 13.554240940027892 0.10815139759696213 -0.8427883329958066 -1.314523542395265
Ni 1.1567402619978049 6.006596377677267 6.759753252408732 2.359457148137691 -1.3451422957223866 0.7151027220206587
Ni 8.07448417567087 7.448894973969182 9.279199789175323 -1.8431575218642966 -2.0281360530236427 -0.010005705062460186
Ni 5.154464600136834 2.416875837315075 0.5551729025814847 -0.8494148371733887 0.6860628831448828 -0.133112438417674
Ni 2.653751480547273 5.024197771075684 5.183599417771401 0.35923787612897484 -0.060508598908018366 -0.5502893529552781
Ni 9.120755728796587 6.418155341626115 3.829242704698021 -1.50976951691889 0.9422198342212676 1.3788368597613543
Ni 7.326828112598277 4.830473534393621 3.545302201867123 0.10487735483138066 -0.5357981013176385 0.8256395891306619
Ni 7.608545020587046 4.930793859829244 9.742905191799382 0.20821744708262852 0.4157733493218581 1.2491090215451972
Ni 7.850702624989086 3.6456243741423155 1.4228781547948908 0.208880277477608 -0.8983449872151884 1.0709202596141751
Ni 2.6301858076356646 7.975373530153513 7.521239373600333 0.5527396142679836 -0.6760366092571325 0.9516958920325029
Ni 2.9766806135378068 0.48439000580666147 10.17810739592177 -0.4088046313135088 -0.14320530387730177 -0.8735158439866505
Ni 3.8647426549101627 0.3497729461386707 0.43042073647598245 0.4797434244159157 -0.40387094145731733 0.5640781792092543
Ni 4.439137463734909 2.9179880520071717 2.895641293211682 1.087608004682501 2.687021861533101 0.8411898781604352
Ni 4.298251307146977 7.059581192639481 5.729842851032538 -1.0757001975013216 0.6891885732580583 -0.3644839550192626
Ni 1.5277241605964929 3.7492782450015634 10.457074359790996 -0.419938022222509 -0.281001006703258 -0.7150515570677491
Ni 6.433382533879735 1.9064832537843552 10.95320380132357 -0.7214770009781188 -0.038589687347739994 0.47334471997842353
Ni 2.443932037013747 7.429253835143558 9.911696170868343 0.6482897781611674 -0.8945706077744205 -1.0162323811529919
Ni 5.284842239572177 5.109752614150155 4.8779807120693075 -1.3870070542769724 -1.0634931139121684 -0.542205290395563
Ni 6.489535691001791 7.898803561586487 4.779725153272805 0.5064862397273987 -0.1054748792060635 -0.437049227981499
Ni 0.4280660160243915 7.253656328839821 1.7824088778009972 -2.914262129575136 0.8496575493118141 0.3510347714928922
P 8.387800508700202 5.096252216894366 11.706093807737187 0.15665731561714957 -0.9162025842218995 0.4028049620866482
Ni 1.4666399418228693 -0.05579025314657602 1.3221875380255081 -0.03218506937297683 2.681469050035672 -1.8437496469223407
P 0.962960620128646 2.177636239433437 1.4631134016641927 -0.3310061349767912 -0.18459646522957887 0.3075571599252316
Ni 3.3479969432590724 5.244756586708035 10.361306493895116 -0.2965590090425151 0.07975022074644975 -0.29538967132476224
P 1.1447912099807123 1.47151559828734 10.956892863364393 0.3198424050504879 -0.18714674245525834 -0.4935798160783758
P 3.330442733147408 2.5067153481916558 5.10619837139793 -0.2871755109450861 -0.2713490854357907 0.5983733529466985
P 1.23408590318418 5.500100625638984 8.841713044504997 0.5743965304161269 -0.3141890634194524 0.9200715802590025
Ni 5.0297382897853105 6.674625952694688 3.1692828951811705 -0.7075159108123363 0.4593386355073186 -0.3539791988331968
Ni 8.356764369728449 9.48425992713728 4.750519232314798 -0.6662576754934978 -0.6583947278056532 1.2323791103850261
Ni 5.377950656487436 0.7072721456179144 2.3505742967565544 1.6991921998925188 -0.6132191597102793 -0.806810886459933
Ni 5.23239199578772 1.2429414989217316 9.149062238884065 1.69707952442489 0.6608596444063779 1.4428794399645604
Ni 3.63431248177683 1.0699572706093678 7.795002866981434 -2.0988627301152434 0.9363852298173616 -1.8488304038793577
Ni 7.141691679916135 2.555121013318086 12.985467910853847 0.9861245060240178 -0.14096201636907982 -0.04828917402369103
Ni 4.705636413667905 0.49555045732741754 11.669143165042907 0.11543867528699474 -0.6530211221985657 0.4393483084283208
Ni 0.0226256315705415 4.029065205639812 5.429900406748457 0.09833004063116614 0.3611266085112555 0.005633544136693524
Ni 0.4801118019430455 4.478678298925938 2.929604672901687 -1.5915683926642523 -0.7242378515527076 0.271831424388848
Ni 8.815500850489759 2.0294920033358954 3.353373093246979 -0.40386991301605285 0.9732872450500335 -0.7643568310607805
Ni 5.954700185763773 6.061124315977834 11.29105632145848 2.325101039255325 0.7278767338568753 1.8398919637391475
Ni 2.0623842160753734 3.366326825990084 6.985024279203619 0.6315248999980027 -0.5567219959544992 -1.1454416278615178
Ni 1.5059591562655132 1.5709679091251214 8.618564036375897 -0.11428245019536447 -0.3461334775365329 0.12179444230169346
Ni 8.674947125024403 0.5303781579361248 11.998778172511658 -0.05851547973738955 0.04049667456246574 0.3542352807080609
Ni 1.0894229596758527 1.6426714554255273 5.236930604030688 1.6159974722408943 0.2912396537121307 -0.3012358456928941
Ni 2.121686234664067 3.03214120582116 3.4473042771906184 -0.8043680813463953 0.8435735479012633 0.018978597985031834
Ni 2.893028015220308 7.493413041801023 1.2214507502668783 0.9157783522002874 -0.9012940425411832 -0.7762651524625921
Ni 4.216990366072467 5.348835230668353 1.1250669633744448 0.44560020287530355 -1.1237762270729421 2.0788124963325876
Ni 6.3041129981863175 0.21804803723710453 13.499679758615068 0.15142589201488113 0.8527708981298151 -0.5503474598867232
Ni 8.314656427535294 0.8898987233245969 1.0667317653005808 0.7668088921456987 0.7493073929268256 0.002314507065789562
Ni 8.568938533713565 2.6788038593126307 10.882600047987024 0.11668771720274743 1.3506172027940286 -0.6918303817562794
Ni 2.055449333490492 6.81374837749339 3.2684849592572336 1.2012589919414538 0.4562885358270852 2.2985163467882606
Ni 6.2285587913827225 7.14842341014833 7.098430386411592 0.817104040855825 -2.4457068605655556 0.8168312468104126
Ni 6.942002151423375 3.128195331850371 5.248621098507998 1.7184227659873568 1.2028952419932961 -0.3305155684936179
Ni 0.7318231074400509 -0.18694633546062062 6.953452556756601 -0.6551538522708523 0.6487386927731279 -1.0347340395016051
P 4.492049417411835 8.710277165996116 3.9194026422399753 0.5477940973372502 0.06072045780850833 0.3417093803269083
Ni 3.7497214864983333 3.2326248753289666 8.813074103294943 0.0018599360268742161 0.22745444093536954 -1.1444088157216292
P 1.099543640518769 7.323208307041322 13.335010925466067 0.988326141661027 -0.2606972621488994 -1.2521714625206048
Ni 8.5898909286338 5.59756758393915 0.2837447378364913 1.2399777486678902 0.3570611801926303 -1.3752522277338897
P 7.002449210545391 5.518504381952791 5.879266023532219 1.9188256021215728 -0.1259313472882025 -0.32308070948212747
P 2.1345125354768504 7.658003384268304 5.473743454717511 -1.6265906743757084 -0.9850081330313875 -0.9315150462092537
P 6.5298060278229215 2.5399584604494105 2.980557129794975 1.6771768719636924 0.3373842705889932 -0.03149935615986189
Ni 8.228676811359753 5.385411888349733 7.667419495815314 0.5208401944562255 0.5003675284241705 -1.2101056436988062
