# total energy = -381172.13643713 ev
CRYSTAL
PRIMVEC
9.25937514498320 0.00000000000000 0.00000000000000
0.00000000000000 9.25937514498320 0.00000000000000
0.00000000000000 0.00000000000000 13.55203147666124
PRIMCOORD
 96 1
Ni 0.5238195130346881 1.3615540625134563 1.9232360860348203 -2.0939282689281034 0.41753121255322934 0.22742487324901475
Ni 0.8248769812946204 0.5046183470088583 4.941788646170844 -1.6258995618459546 -0.433880343335214 -1.0013901739338364
Ni 8.364502741603602 3.783343604904235 2.4383360455918965 0.799100662299869 0.25043187566714936 -0.14487189294644726
Ni 1.0949396175369694 7.340471418142827 0.6595082467838869 -0.09554425035591287 -0.7173691494573323 1.866621923534824
Ni 0.7869607664326973 9.24579153940773 7.356096613527206 -1.1379651169788143 -0.5304118973050607 -0.8277252680150972
Ni 9.126586345109358 0.3324828612169963 -0.1733206857973143 -1.226468915548178 -0.01103877431266486 0.012562924266675138
Ni 8.4266516668895 2.633986640241934 9.631401916806626 -0.24125869380831352 -1.844272095084714 -1.2285975318554068
Ni 4.4476945048353995 5.270649239871178 12.010488147438458 1.2879036258148917 -0.511217583764797 -0.42295418334101353
Ni 2.7051078999441076 3.7279725421495153 7.4861417581879435 -0.3077088550117475 -0.17913364234279472 0.8631524984744553
Ni 1.401387893946701 2.38154829845566 13.50016788616632 0.32072943564113154 -1.3912578591335265 -1.3168714738021512
Ni 7.266090858425659 4.085921462546161 13.100003623075475 0.3780357255617683 1.7006957810212389 -1.0825069360105097
Ni 0.317528970523205 4.335267173068208 0.014928890381176268 -0.7951704740075273 0.8769186990206123 1.3609517519508174
Ni 5.646468754100032 6.118076503144533 10.12449234188745 3.2416381239985075 0.5257710560989397 0.19248101018397817
Ni 1.0758097486989677 1.9333760276439662 8.47961436619564 1.0381512927132701 1.0071779842602073 0.40874780993364446
Ni 0.2580578564996244 4.508491561365079 8.262483873321791 -0.8817035220037653 -2.2145664861381666 -0.5479792167648626
Ni 7.008374672865107 4.526482527072842 8.705269039733704 -0.8396541582421991 -0.45120649331848744 -0.6335087631972509
Ni 3.651008616795464 5.535254400463421 6.285120258600473 0.516997937892 0.6404872513976131 -0.15297035368386558
Ni 5.444873640672649 0.8449948254496671 11.035432436390481 -0.4443709584538928 0.5866349814638477 2.2260184367288502
Ni 8.118684852972784 6.879076759770307 8.924608819492716 -0.1679197759048463 -1.083217074703657 1.6401671275085623
Ni 0.15853346385428974 2.9968708075362827 6.106816177155233 -0.6591573170032905 -0.30736252741592224 0.3425077078584876
Ni 4.951432285277707 1.879588318021531 5.413155651464239 0.1186209296697183 -0.6889610306282844 -0.933842923011482
Ni 4.184033800497501 7.1128389420956655 4.583350830771949 2.4455446239560783 0.10995476935428806 0.832441956764476
Ni 7.508121662664055 0.6864122869076517 5.628415750579484 -0.05962953873717473 1.037063201855414 0.5970242951179717
Ni 6.446645426531025 0.9146262517074873 7.809453208425249 0.10738598018584732 1.2569118054190676 -0.5522876143322295
P 8.263251475512822 2.55048559610781 0.8502541504738611 1.4252306165345454 -1.0202325034513202 -1.0469755758731194
Ni 6.253031894390359 4.618465158745983 3.2463211489963104 -0.10034912794372394 -0.16021263706857566 -0.4896380578218084
P 3.5927393696524126 4.938682125844053 0.8422873841872123 0.7670127806263887 -0.38226313337955453 0.01362119032786041
Ni 0.6583239727159389 8.093147496605306 3.0001217741137376 -0.46062521552922603 0.1594886144183576 -0.30300167934406524
P 7.6837627478470445 1.0047440452470495 11.084273787865163 -0.054744699841047656 1.0056641187188422 -0.35560747846523916
P 2.8796841569971976 3.9389288837449628 5.103573076602589 0.04675319699513883 -1.4262541727030533 -0.4672805160622146
P 5.823554301789666 5.428928996849299 6.513499040276067 0.17304089918149554 0.10099576038878735 0.31906798877830855
Ni 2.13161924730593 0.3024380410787833 0.7399435118414073 1.0330628224467693 -1.09519970098683 0.14524675978736276
Ni 8.048054340147868 5.94680584298165 2.101188311228441 -0.6577120999163318 1.458223012300166 0.0774287717021247
Ni 2.943638660416403 1.2949698965821541 10.55494494668013 0.06576573354189964 0.2021470725188325 0.9698275686362071
Ni 4.234497394479645 5.767303598405899 8.625027295614574 -1.8869531788930085 -1.7862924332461365 -2.2935633736583596
Ni 7.0822830044551015 3.75999146104681 5.308276562231772 -0.12304939775471713 -0.49269149993615147 0.42021518714329564
Ni 0.7491445528212342 0.8278251663081827 11.132505872462042 -1.5083302133692025 0.12780079639677344 -0.27177897388435773
Ni 5.6696542292066905 6.97884652585427 2.568828418067191 0.06109532464942382 0.3851733650478141 -0.22192451225607587
Ni 1.0716708080549278 5.498383569043806 2.399048517286165 0.7053903798289013 0.635804501209963 0.32347357404517196
Ni 6.740436137257529 6.565609877078288 4.80805734430565 -0.4751442350810075 -0.4509036173660879 0.3733881994874279
Ni 8.267899681784206 7.05491229182919 13.460447019108596 -0.7643311200291676 -0.9604764664386105 -1.1549827345827335
Ni 2.453502901911668 3.781380617395205 10.251813378410658 1.8854737661340044 0.12620208445108588 -1.6511467664485178
Ni 3.7256947358890375 9.09901192623251 12.481285701166735 1.4453291870566334 0.6617939832951892 0.40626900937584864
Ni 9.024057285262701 7.37948116519728 5.397177673890736 0.010767522929149198 0.6882210671384664 -0.9728946375973051
Ni 1.7302438579595125 5.847600898775285 8.99741065576512 1.5641997708433124 1.8265098860052866 0.7978621619070776
Ni 2.5886712587834726 7.92518243333263 6.933341327207437 0.4307325417348517 -1.3130996654645448 1.5904743882691252
Ni 0.5190629720753069 5.996195349458852 11.918455515140089 -0.9321102565910914 0.7159005353316058 -0.5045638258937052
Ni 5.87973093017309 6.076844506079857 0.27361453250868867 0.27499310994628123 0.17442595245448025 -0.011653525078528317
Ni 3.7856399299147987 2.43060446743133 12.414975612736692 0.5845647291983804 0.6702847943750199 0.221118985635645
Ni 7.419740927882484 8.056276665185692 7.117702891805541 -0.5906281617836409 0.11499413155040841 -0.8000352582989962
Ni 4.25546061957608 2.641338584025754 2.93747099070053 0.29904835112327205 0.9655366545703371 1.2380013416678097
Ni 0.8226176937842272 8.129555359272791 9.759305368020009 1.2185404047297208 -1.017002426549797 0.17113339774613753
Ni 3.096612795495118 7.371934774537564 2.6075594579328625 -1.270502913839941 -0.24062234577589525 -1.2419341010633127
Ni 7.9460160271784686 8.180278215756127 11.408167652792649 0.8150049922349513 -0.13649189641286816 -0.4975660544196334
Ni 4.337674610579283 1.4576756348306372 1.0626456952009102 0.09073988698873404 -1.0647223583335792 -1.052389290689523
Ni 1.2893309371812136 5.1949260707728335 5.891637560540364 -0.7781348586814792 0.19858917996424508 0.526821351740325
P 6.300013963356488 2.336149582621816 3.5910439780821135 -0.6312233095971838 0.6670637163345609 0.6627301219562135
Ni 4.672002865242268 1.9993212966973295 9.20105672076444 0.2647228383685247 1.6709506885483223 -0.3071226434909743
P 2.4183357954998908 0.16798080421024963 8.928362570134984 0.04286826011843585 -0.5923189192225025 -1.5807923850946712
Ni 8.442022229460209 4.687734543439637 10.47630322256836 0.4855273780875445 1.1078850097639825 0.5992886656721162
P 4.251312419556998 8.513921276665961 1.1948362370590166 0.3607280875212562 0.0268554296299473 -1.083341001876031
P 4.826986284705227 4.174968872330799 10.147436147305498 -1.1958064534673147 -1.5745150367263916 -0.9250690334735938
P 2.4116875642193074 6.481321786065544 11.164096082294863 1.1801929152997739 0.40087432072283863 -0.8407360784524682
Ni 5.5610880568322605 7.594474594311298 11.73454117835654 -1.1284340375599275 -0.28728966792544713 -0.6407075949385352
Ni 8.036535677594879 5.585930960071543 6.755402991076379 -0.7832217862860834 -0.5257540868180752 -0.689741874658367
Ni 6.190253331601563 8.724859099511322 -0.14960742631322793 0.5137570623571991 1.0160781149633147 2.8002648147203577
Ni 3.075306973522107 9.280579011442759 5.1260965063937025 1.3501446340329846 0.045237017460928536 -0.5086397957352917
Ni 8.854740353233806 5.1725369019198375 4.251692053933744 -0.6344068495314881 0.36068772120162396 0.6300231186414956
Ni 3.2154290960417002 6.7806958999427325 13.356732759256488 0.7630118869971118 0.9899765327802563 0.5946619655333824
Ni 6.705231993345582 1.8600047398064419 13.31659151657183 -1.3517258624771753 -1.3549613386953374 -1.8903048689740605
Ni 3.856566742741078 4.9990717698718585 3.0563215509347694 -0.6331873753020901 0.5629926594545593 0.1932150601365253
Ni 2.0159974311490436 7.228294089501785 4.833318771296858 -1.463811047910905 -0.5279099568188134 -1.0041556524941158
Ni 4.962228716577373 7.562316784788365 7.0780088769354395 0.7402041450739768 -0.4966216882284931 0.26707848308489485
Ni 2.38054828595106 4.6015760586682894 12.465389206093606 -0.9333806386630829 -1.044665182572388 1.0556273380108467
Ni 0.6999244929073107 3.1054184611606264 11.357672576935359 -0.45896865376240953 0.6118333351063463 0.7767477485259655
Ni 6.167540084622077 8.703812540039504 9.589553245364112 0.06314217987612351 -1.949383677414088 -1.1766049408381993
Ni 6.5331928050541626 3.1081684955482767 10.904506725163195 -0.7379950532377999 -0.19875887277288992 0.8162838589473749
Ni 3.9921517714898 7.86432056117765 9.666284760404594 -1.5669032858174046 0.7175200732128997 0.4604897183926263
Ni 4.584788811716064 0.01505944756927686 3.2902161423232377 0.8752878482854087 0.5338224656485064 -0.08399202674193922
Ni 1.630640760626316 8.32721523830707 12.288358288716724 -0.6243486939645376 -0.707351103099698 -1.634397829124953
Ni 8.399327251138804 1.9905063716567788 3.7681424888968063 -0.0828525138208573 -1.4650796302106834 1.073829977061802
Ni 7.456417312426203 8.58113508010016 3.803391077808958 0.31094844499496777 -0.49418222554906505 -0.7384316265545863
Ni 6.800038734406714 0.8331881963328539 2.039011607817414 0.14459652779787355 0.36521106299327427 -0.6222427033651284
Ni 1.1395420271171508 3.2145031585374406 3.8575176805579527 0.7813713633409058 0.4252704901790159 0.3020642551314604
Ni 8.250927247331129 0.04717744177952689 8.971431627208112 0.8585329974245729 1.298303223881661 1.016994713240313
Ni 4.206747047476987 0.6117872796893596 7.372129221413459 -1.6371034009815744 -0.21878879484057157 -0.15879030279975234
Ni 2.4070300985728825 1.2159226118435185 2.9659704211441342 1.0913803272407399 -0.5764516131729427 1.213084523821472
Ni 5.4098824623866815 3.3757922124044066 7.192063080897614 -0.18608744795280854 -0.03193798635917726 0.3400764727091756
P 0.3514330981791717 6.886539816054638 7.377183914249212 1.7380269133715291 0.49328208233229887 1.0144860878858464
Ni 5.438040221891213 3.650110457416332 0.7956766161602921 -1.4562841434062404 0.38609844796524473 1.0423648165739854
P 7.611456288139418 7.983035008598764 1.6031107867496717 -0.7200955472495598 1.537513776911694 1.2643636337114226
Ni 2.1158690503584756 3.58834116650718 1.6849506990011538 1.0281309323627907 -0.5328888980906435 0.216026401604086
P 7.29606345543854 5.9940101369488 11.660845812392523 -0.48744696370776047 0.4774631130221713 1.2103079895175994
P 7.687901688491084 2.668829668527219 7.373510720169814 -0.3290628952074914 0.33442544507098537 0.22135629845743168
P 5.504929947198921 8.821749199957038 5.407247244249559 0.45703775528828383 0.5240977821615748 -0.4416990680486845
Ni 2.232463100894835 1.8863291430525402 6.026059611783735 1.0208750221313256 1.3084410836466112 0.5737936067248053
