# total energy = -340858.50394878746 ev
CRYSTAL
PRIMVEC
9.39001761963310 0.00000000000000 0.00000000000000

0.00000000000000 9.39001761963310 0.00000000000000

0.00000000000000 0.00000000000000 13.74323994386024

PRIMCOORD
 96 1
Ni 8.048897882831938 5.332741339032336 1.0166149702438485 0.5801838265218653 -0.7022778023418487 0.10606211916810121
Ni 4.140603461386933 1.9188689139132125 8.15796012237169 1.4570595881196842 -0.5593236952434045 0.2566009805923387
Ni 7.727299163795109 3.350161154464072 10.926713911778837 0.7169963394989458 1.3509043950171444 -0.30636493938934334
Ni 8.032963022654837 7.570805127430026 3.1203479812487633 -0.30445229574766275 -1.6790617476912308 -0.5007817331434538
Ni 6.852703517504442 8.356270724928098 1.176152311372278 0.8524381973807448 -0.19129161786156734 -0.3193245848738049
Ni 4.241564932585623 -0.1487134676304079 5.223104430404287 1.5709455742075782 1.6262186357482704 -0.1862291157369954
Ni 0.0765164379052057 6.804682966564142 8.136341484430773 1.416504035294825 2.1248663532678567 -0.7813212268292608
Ni 7.480200845845561 8.383633236746643 6.524685782311418 -0.9063223489937102 -0.4025902749726808 -0.22762721906780797
Ni 2.7967041163388826 1.1648786560224689 13.339408555888735 1.536028193505103 -1.0757225660988248 1.0194017800199087
Ni 5.023246352917302 4.51072979232432 7.31648870281098 0.25996886862330715 0.11064819587688685 1.8133093281546124
Ni 0.9124421129635027 3.763969848126191 13.420782449992888 -2.2848835864961745 -0.4971068553950278 -0.20259161625541885
Ni 5.2647482202684115 2.22618541590268 12.729222664331646 -1.2458779162024092 -2.2118205479619135 -0.9797584545966739
Ni 1.7875870752944536 3.341860378744239 6.321203157960345 1.2898003286169724 0.45365726885182517 1.157730729641516
Ni 0.5489751826375464 5.5760648698332735 10.897495932446448 -0.24652508441357543 -0.5789530394385577 1.5488937366138615
Ni 7.3174530576372545 0.9812474682656239 11.302371902191965 -2.479300637360601 -0.9890779322253869 1.8200957549488266
Ni 2.1653287106535433 4.5280168150621165 4.22256892661139 -2.071019996871362 0.5634945387916425 -2.250302248976879
Ni 6.308645887179652 3.7968067403120007 5.470703236301649 0.8720688271274788 -0.28054900676750394 -0.5160540859214918
Ni 6.586224202851573 2.23045787399377 7.447956463781835 -1.4050626262271027 1.017802553853589 0.2503346879676528
Ni 3.5101107173731587 9.063479914225848 11.603142622785171 0.4936438365470917 -1.3502935009060228 0.7479416229275506
Ni 8.920056782614166 3.61861237285129 6.065263199266684 -1.9867112102199525 1.2803728646554853 1.4249046006536945
Ni 8.554231079821218 2.776947518924258 1.99819860114609 0.029086890063627326 -0.03654848854799512 -0.8070492277229844
Ni 3.354292762288423 1.9727582259676477 10.780046529023261 -0.3609900829333912 1.1523093015156283 -0.08785048125608097
Ni 5.912330796646547 2.5350231007729307 1.5666746999352872 0.3299584104385672 0.38605268232897383 -0.9164522383388604
Ni 8.35100292495205 0.9264961525787446 7.506021516744199 1.6345068438989914 -1.3618480385128415 0.796311529590506
P 6.196510294819648 6.760390252683541 4.782152951339737 1.50241899009109 -1.0252757223021827 0.9825406453275015
P 5.235761235373475 0.8815649174889255 10.792085470822354 -0.4964751353482998 -0.3946558506169526 -0.395628498942867
P 7.419062440062946 4.417890686507593 7.5707112272522 -1.5007822258186154 -0.3505706873722801 0.2269330212142608
P 1.3988872891830506 5.049716813046498 8.276330686539351 0.22371425716664697 -0.4882666313955784 0.6190517072316565
P 1.1217878644180426 7.744041565501515 10.040426754347035 -0.3016711334580998 0.7761502241512827 -1.0504946447699715
P 2.5398965200021086 8.217279681709812 5.729337191097141 -1.8134558810348058 -1.136043217365753 -0.02540404189540141
P 8.229458534773865 4.920669798660001 12.40103403081498 1.0377507148407419 1.3167069231998292 -0.13381460669102116
P 5.218605672884634 5.379062296753983 9.9873365328059 0.4654899998206951 0.12811189987928903 -1.885022794639515
Ni 5.663063384589214 1.3951406720877866 3.640845117955191 -1.497404567595634 0.07230224910883677 -0.7120582787673801
Ni 8.658047116425823 3.047755631774913 8.70261777483279 0.5294737017615074 0.6313953163986739 -1.163687461445583
Ni 7.407503328172544 1.0624147819785594 0.24244180813114932 -0.16401272754095625 0.3175281550950144 -0.025701004310529928
Ni 7.072223353226446 3.3189393453368727 13.165913892328224 1.6441389676721168 0.39069480908667553 1.9278342333780865
Ni 1.5286009948321124 8.7321155766951 7.601523631604077 -1.1218484139226097 -1.4461550253920386 1.6842270939422543
Ni 7.40852684011085 1.2380175045312674 5.277033180533408 0.20536995033150438 0.6439970643230845 0.16867079513825792
Ni 4.57913607187068 7.60060904387205 8.091814020105605 -0.7584330093771777 2.603589049728742 -2.6551126715293303
Ni 2.8166579041269424 2.975659075239985 1.0077874145264107 -1.9157721600072295 -0.7403080176416927 -0.12987284843445376
Ni 8.542446607504033 4.9940246175778 3.6870918945363544 0.1595960865304993 -0.516943944725613 0.0823164388117292
Ni 7.891521184795287 5.944454047480877 6.166523273030862 -0.4744410383663959 0.4159512696606191 -0.9113789375810111
Ni 7.043161248189249 6.7873583837552145 12.902868507178457 0.6855792586402452 0.14705347397879837 0.5673532504161004
Ni 3.2667684065366562 5.571304130817487 2.1018906895159657 -1.250268589070937 0.6374518070053989 -0.8343803114377695
Ni 2.051634375341625 6.962594895614401 11.768804133511422 2.4561542811511248 -0.3667429262567684 0.29458388759401527
Ni 9.805995570386235 8.394525657374478 1.1569703830459495 -2.009509439061391 1.3745449172542197 0.3857186960283228
Ni 1.0203568923302209 8.926648575097563 12.15299577208539 -0.4976305891089817 1.0899729053702518 -0.7369367871766146
Ni 6.35418747342534 6.446444398139547 8.249434858604603 2.232202968273007 -1.795710384125927 0.27627994707850484
Ni 3.9754330485907112 3.4452256944952797 2.861191002462779 1.0758668049861728 -0.9471548096290399 1.4412107940128858
Ni 5.60383115241647 4.987930496036881 12.228804202649787 -0.29948518155037457 -0.6934884861849927 0.23931339715648461
Ni 5.517264578478529 3.2102498895030886 10.336991685975406 -0.6134580151939629 -0.43660468424491267 -0.4167015175630824
Ni 4.07872324419949 7.942875192048415 13.707219308440928 -1.9377175539300693 -2.299198203346634 -0.9321408527187106
Ni -0.009719607406786164 2.5489954472334637 4.210777881281759 0.5211201875904896 -0.32152416362828495 -2.7034761504343825
Ni 4.032590086833496 6.81487113585828 4.903134879452743 0.02330036528883729 -0.14545116248868498 -0.29774248782765494
Ni 2.6454590999142815 5.055538624071719 13.306891863309312 2.0886613641022094 1.3774710897620792 0.2677695956146485
Ni 2.968935822507632 6.586618583598443 9.112592524234266 -1.5807106240141422 -1.0548896885138734 1.4438831986387262
P 5.15973026138763 0.3174558431911364 7.254369040170081 0.7517512264816278 -1.1865599951683823 -0.36463667854704296
P 6.205073991037393 6.200482272341694 1.5369336966124063 0.1981621197291555 0.6679052383992498 0.0022386595225316287
P 0.7402301258320976 5.528926980564539 5.378018126776555 -1.320797805439751 -0.2080557246937836 0.02296843587071528
P 7.827819304158018 9.129641979522162 9.462412941716746 -0.2418613603893189 0.4191538357583168 -0.45952864003093763
P 0.4625682390019109 1.5849129314744625 5.958876175793198 0.34334511615811836 -1.594744476399389 0.9258380504291345
P 1.5140840273401877 1.8764542035891347 11.939412305605556 -1.3784985025853291 1.077498427052325 -1.3886489607557695
P 4.435609650063389 2.3476640759563874 5.185915264976234 0.011714460223450794 -1.200297656469449 0.24904605106321626
P 1.288789330681874 3.8575977154366585 2.3568277943104428 -1.1116506474540018 -0.23279667908388937 -0.19345442984084102
Ni 8.199588888207364 7.351266511672456 10.672588104520777 0.40558869547937243 0.8821658063521646 0.2633035894234949
Ni 3.1924276357516828 9.441850680776373 9.408526446667647 -0.5637547344315645 -0.6853532586723681 -1.816735580227342
Ni -0.3547482988147972 1.58852808832077 10.379293716086092 4.2923978495044075 -1.0399901456942218 -1.2441367651415862
Ni 3.3804345717952273 4.52042029067598 10.957869990781557 -0.346407557133526 0.3279742901290029 0.2746514103361464
Ni 3.0984241677299105 3.64926139089375 8.816040738630791 -0.87495437620539 2.3904731369032315 -0.3586205542599501
Ni 5.163589558696286 5.436162994890072 3.4180538000377227 1.489249028368035 -0.5805206410359938 -0.1932294583142285
Ni 5.657542054133035 7.743581454630166 10.105638549843746 0.0712241855533096 0.6983239599004232 1.5538870760633947
Ni 0.9389811202225113 6.88320229526238 3.1350396030714447 -0.03866630622194631 -0.8074495484851966 0.2963252957651542
Ni 5.844994979127406 8.853763257068895 12.47256812528473 0.416718743954263 0.2937284815722554 0.18773938173393473
Ni 4.828065443287839 7.743619014701297 2.137445052848064 -0.2711518818233201 -0.32486351241416306 1.1782424764416224
Ni 6.234445966661418 8.702198980039684 4.209993814796911 1.0606762132886633 0.15171565534115805 -0.3205998520418027
Ni 0.9875387801799769 0.8736500714999583 2.3842870233121474 -0.3535313126625008 1.024078873780604 0.39067501159233364
Ni 0.37396027519803016 1.3849994528825609 -0.10275684259872704 -0.7478233521821315 -0.3741759854960459 0.9254585556025288
Ni 2.688944272265578 0.9015750453836809 6.632487881464745 -0.16569062946401142 2.3826932358474964 -0.5678448453405381
Ni 2.540281510731196 1.8332789018246647 4.10474861748579 -0.3751337214236249 0.35307879850611446 1.0254531284203112
Ni 0.49945692386091917 6.493112786519149 13.412384957089893 -1.7228394069978135 -0.7711216605884396 -0.9864888313419721
Ni 2.875261005108251 8.300306218943707 3.2977592212264035 -0.9174228297822459 0.778142571990963 0.1938174696072146
Ni 9.096420096607266 9.108702239866929 4.4064404988234696 0.7687480181499405 1.8156140650283894 -0.06518415000681678
Ni 1.2590699243998935 3.4896968187137505 10.357359573547678 -0.38116630077095 -1.0882183845729905 0.3538187619959326
Ni 0.2570611268169047 7.537752264835216 5.909786101827457 1.2681912349876288 -0.18024821556321216 -0.25256074908469406
Ni 3.9342014805072423 4.327755905812258 5.3326662188900755 1.5256854168181984 0.5667377283192885 1.0112966344142713
Ni 8.45557955299705 5.43719589684616 9.302840857522522 -2.722821901950846 -2.807617398430687 0.5140211146518632
Ni 2.6497972881298506 6.077679619780637 6.686993178685721 -0.702558566807061 -0.23365671309133954 0.3039157065179024
Ni 4.939186913727321 0.3872781374191149 0.7864111722887829 -0.4548188932600941 1.8238328533937558 1.344633474406768
P 3.1828498176134143 0.8995252045017358 2.3238998189521416 1.0610292257527083 -0.33691710114458745 -1.6897395391200511
P 1.6709254943632281 1.9247940151340435 8.749248603141263 0.6467841401499184 -0.9578518843315695 -0.2537591402681694
P 4.615879211454057 3.7204095556326338 0.2879458343057081 0.20725636872093986 1.7467794627531787 -0.0487134060453032
P 6.802391802225183 3.157938100436133 3.4526316015204292 1.5108401242752496 1.5398398539417093 -0.1340938284943368
P 1.8949994887098016 7.074007456605143 1.0865856267527922 3.639422235831797 -1.769146260484153 0.7089996944467144
P 7.957251309273601 0.5151401315614449 2.705274452191326 -0.2124826501168857 -0.10460841744071017 -0.4442220915808543
P 4.110761984873777 6.454876634108336 11.650268305030787 0.3747683676644062 2.2002801514224815 1.0406992559461046
P 8.525197144837367 8.742914097145109 13.161804820546552 -1.505326136435556 -0.5696222489559352 -0.44284372317608894
