# total energy = -340869.2849717257 ev
CRYSTAL
PRIMVEC
9.33204825161374 0.00000000000000 0.00000000000000
0.00000000000000 9.33204825161374 0.00000000000000
0.00000000000000 0.00000000000000 13.65839591412617
PRIMCOORD
 96 1
Ni 5.0403511131421075 8.686232956698278 8.172132298403747 -0.1072466263945056 -0.38593801112798054 2.0044363954138573
Ni 3.531004332590336 8.861003551772866 1.68474915527643 0.6894035174823416 -0.4303964985516716 -0.8441245353087269
Ni 6.721043627149907 7.7062652634380555 9.420400104683642 2.7961523352138813 -0.049543872366398546 -0.48901636507740937
Ni 8.100665608356747 0.5359637803652676 8.288761434780492 0.2952904267427366 -0.601715529946054 1.4528969721015623
Ni 5.32115243767192 7.873943502027343 0.17917345532427686 0.170594494523532 0.5507462379870387 -0.10738546596521505
Ni 3.4889354601749023 1.6736841459545626 8.216999852016471 0.36891885086216464 0.050992174777150893 -1.4343840008990394
Ni 6.077244299244865 0.7052928582469888 10.215605379068213 0.04429162282852372 -0.28122649245050274 -0.28012708873873693
Ni 2.081457315667247 5.310663215712082 11.43336112118451 -0.1226696458177952 -1.3131647143745255 -0.3912997896605261
Ni 6.380899809343753 4.713785425186099 0.7497908627586373 -0.07658802096838424 0.02407632422291337 1.0625960560191958
Ni 1.4504335614837516 1.0778142166133335 8.821329282876022 -2.0429967721855586 -1.0408717769682267 0.49318103797806034
Ni 8.651107128000033 4.106157115356085 3.253689461195929 -0.506176936017096 -1.4981851545154006 1.09156493244772
Ni 5.527278714049935 2.7362684602205163 11.901734744244875 -0.052130402146652155 -0.5250609174057926 0.47812517208620237
Ni 2.845864032014405 7.81541289692761 8.90366220962234 0.23506387785151128 0.08185415446333 1.663661868196393
Ni 5.10292249502886 2.0198378026772055 4.385819930029047 -0.01389861235896316 -1.0103525253334469 2.570169850838348
Ni 7.640390336556834 4.20710187864751 12.579108914469401 0.4880120921826112 -0.2660127608245419 -1.8293517263294559
Ni 1.8480534629648495 3.5037920806020035 7.955742635627662 1.2577247882386664 -0.7641218322318389 -1.5462069338103177
Ni 8.035789210612272 4.2257659746614555 5.71170891201654 -0.862429761375818 0.9917163982894985 -0.21297527348258805
Ni 7.295981772811494 1.9896579594226553 6.06275722791884 0.04253607358999771 -0.1602010671043499 0.9169101518118854
Ni 4.578704030285168 0.21747497995929546 6.281618950211971 -0.5040917713532932 1.9844509534308665 -2.5019140038847425
Ni 3.1231471744455885 2.2350908220060406 3.212317692766616 -0.7971589651924658 1.1212323776051658 -0.33540349271353853
Ni 3.9656351364670885 3.781625813865598 9.344691998817472 -0.2537280299199179 0.995088400085525 0.18542873132288712
Ni 4.1647623768398745 -0.053839384566628325 12.03034249744337 0.6275312054575773 1.8020473820875482 -0.15474184376199157
Ni 0.9980252061537158 4.120836426871054 4.888626943825541 0.6295487501082383 -1.4073524507025441 0.5956325569767678
Ni 0.5599611418151982 6.189443512432699 0.06340473377377547 -2.371469856327851 1.4981105925237233 -1.7864657255992071
P 1.065663890108255 2.954171781183332 2.741990872058392 0.1900348626363308 -0.1771484935919659 -0.008301320776843767
P 9.299479159428492 2.9844636090139653 6.818831358600573 0.9554371042424901 -1.0221400048866784 0.33205797328007325
P 7.126530445100882 6.348237641319349 5.13527017303543 1.1641312338512209 0.1347134643562067 -0.3380404161157533
P 7.489696425340237 1.654954725604568 4.004149431796666 -0.9579632130984534 -1.102539943401985 -1.3084081735261466
P 2.5342389529175615 9.213801626676474 7.217041978720512 -0.3601652730392507 -0.06984915958265389 -0.3390305479431645
P 0.08513347435321099 9.077712370590788 10.183126119184745 -0.5585305099181478 1.235136618525505 -0.9588823824786132
P 6.762813874029116 9.236049229125097 6.704087295921236 -0.31561679700491446 -0.7710072464977625 -0.13859968678449036
P 5.964289190168466 7.524943570662574 2.217098633448597 -1.2553634870953414 0.5507482948695676 0.938761700469338
Ni 6.861761579047049 5.492964773528296 3.0709950241586212 -1.214486032154689 0.775359095708555 0.3002068902077475
Ni 0.3073584667480556 0.5272392486835487 6.4451649579437715 0.768514819093212 -1.185069526665785 1.54851861266263
Ni 5.63451327769806 4.819153579232831 5.300782443282299 -1.1247535033845468 -1.5968931473112755 -0.7606829817536189
Ni 2.4191188087035447 1.3082224819054926 5.511818310116784 0.6815292569405875 0.07259098399384918 -0.13733701802198287
Ni 7.767390177883728 2.929264545052721 8.54798426470378 2.486678932102543 -0.41906127604451054 0.7586906339139385
Ni 8.55104890926927 1.5149740054999756 1.8354290684210168 -0.14477367680568615 0.5715724307037705 0.8628995019233848
Ni 4.126351667243175 3.3563457220918327 1.2307935463868385 -0.08789290445824219 0.19729771484633116 -0.6306101014932172
Ni 2.3295218157885986 5.027407562556436 2.8496332462044216 0.35200844826007116 -0.9741452221749546 0.2090070328634594
Ni 4.336621372936286 5.841498102492717 1.1492967711419446 -0.3038524573801348 -0.0036962179046646014 -0.06527568127935855
Ni 3.234637151984893 3.7059802327210765 5.515424213466678 0.48886698398373873 -0.44559094690392287 -1.0890483366734534
Ni 1.9532443080994473 8.60909424787264 13.418089892849881 0.00929993724468721 0.4967389305326477 0.819125699271544
Ni 1.9564078723738112 7.457659504532299 3.2343627897734883 0.10647786654928115 -0.9251358821557875 -0.09778908052603158
Ni 5.846621396848546 0.5429796140569096 2.0993085902997852 -0.6675272862345406 -0.39242336174200804 -0.1330378764259967
Ni 3.4083065653946574 7.667163982288839 5.552437915476734 0.02982094001617445 0.3005161939180502 -0.35027758161189354
Ni 6.2946156934712825 2.8817550886492227 2.716859666775614 1.8387462801704786 1.4089552764132895 -2.7175082030474167
Ni 1.885400319088755 4.519034915328584 0.25260080865754114 2.2067102233185416 -1.8646275188126147 -0.1469089779811341
Ni 6.80611457678147 8.351977661184527 11.779587567881606 0.08763836524527487 -1.3538218257742556 0.6797809067909131
Ni 7.3866612832952505 9.346326040423495 0.2997883094047993 -0.5089616978510847 0.1746208420741057 -0.3835885370591975
Ni 2.9504482940285497 7.348437214658689 11.808379735597521 0.9778568666985871 -0.3944159666920046 -0.8019854400468317
Ni 1.3498527480645983 3.164600131692562 10.132685466502256 -0.10239238362599785 0.12180344116275799 0.7720148618266705
Ni 5.780811794303372 1.6692607551992573 7.966997085524072 1.3768699658429706 -0.38886186964299485 1.2493226802179
Ni 8.46427019485243 7.689000974625156 6.946277271822199 -2.0161511127476244 -0.5469564319273033 -0.6269221111186687
Ni 3.095524312344949 2.403263659139698 12.517509931984977 -0.37470151898221277 0.2656852022817941 -0.8063318899409855
Ni 1.736358180369392 2.0057557422346837 0.8927279756718387 -0.3138414502720466 -0.29075680053844116 -0.4327032923079774
P 3.980267787742022 4.365560053805909 12.751054698612279 -0.44642732676228913 1.0305583108573606 -0.0026487504767567288
P 2.3293538389244732 5.660894977413773 8.905519287175727 -0.14578334901712314 -0.7528300613681035 0.1156685319096137
P 8.03773960864573 6.3628143003062405 12.424865092190954 -0.674300086182 0.6525768355722954 -0.017098350243183458
P 4.399304739399122 1.4225214058948956 0.254568004377411 0.10071859546800074 -2.024711857833442 0.6422312306719132
P 0.412186295215182 8.395418344656985 4.43389770815617 -1.118535547499293 0.997837937806204 0.18651810773232394
P 0.05440583988065158 0.6422418090926776 13.411055395062224 1.2003449647676165 0.9680465654763845 -0.7952931156283206
P 7.2836821335383055 5.7911796996391205 8.533233096419158 -0.955563345407709 0.711256351691375 -1.1866970349668788
P 6.959981384320439 2.6471007415138907 0.4285612398530173 0.35650402213757953 -0.5597841798195907 0.16138840254423176
Ni 7.900297205599035 1.2275749230292334 11.68605525032212 0.8658362159542056 0.37986120880628127 -0.03919492503190669
Ni 0.44901055665069683 7.669366345618484 11.73851722460292 -0.4153190353932589 -0.4406307746851702 -0.36737721740665763
Ni 5.970485670045096 8.202907526321143 4.740268844225088 -1.8859437637918877 -0.40341791308029873 0.7465712249425852
Ni 0.2592041658272751 1.5748017652726785 4.53559836733616 -0.7573176648258119 1.4434677083678622 -2.127704851157916
Ni 6.0914476763114775 4.1342465798570736 7.90568459691346 -1.9073721088689926 1.4808728884891982 -1.1164632383512965
Ni 8.617819712759161 5.289199505296044 9.981159136603436 0.3582870821799313 -0.9521314369080248 3.425736823656061
Ni 3.873098548429946 5.3850023101356275 7.039263664573277 -1.5212492354237155 -0.5913552697576525 0.34130803112343155
Ni 4.236955100221817 6.590768236972565 3.5093334507085436 0.9896929401015665 -0.4268257504812778 -0.16278785399491963
Ni 9.280684414742447 6.158199815705354 4.914495380900869 0.14703830447014676 1.685408258734549 -0.332011436312854
Ni 7.598340128237415 8.739210993233863 3.478970699313057 2.966114595470053 0.704544229778522 -1.8677125854958416
Ni 0.22142803549504914 5.033212096416773 7.943517652738528 -0.7310116799414315 0.9918259272841694 -1.3695896301314736
Ni 7.652344690053766 6.943659632356243 1.123200632095246 -0.6266012374441402 0.0721891205697402 -1.9263509639643406
Ni 1.5904142815883437 0.8354534642338437 11.452796977568632 -0.5232410905882343 -0.3274150751914232 0.04670151782159698
Ni 8.940092658631961 3.7329218553172074 1.0076166850952826 0.16153752652758632 0.615357803319837 -0.810759843805352
Ni 0.5052324130735053 3.010201397417197 12.406357774583524 0.24665286824069133 -0.7595864062553306 0.24407225199770868
Ni 0.15725434096549912 8.661484365383787 1.4195304845086612 -0.2976830953446292 -1.7480925251376476 0.7984260048303475
Ni 0.041110471085117395 7.22663532407168 9.047731299958787 0.23246217856260612 1.1325565443687335 0.8629966896228816
Ni 9.280003175237939 6.034484855276916 2.2588660807134056 1.373177861703364 0.1125929783080835 1.410183492393436
Ni 1.420421695093327 7.326656214610415 7.146373178778108 0.4149847919822917 -0.9419974337978164 -1.4863668217242336
Ni 5.435227392509155 5.896379876821725 12.385870196389016 0.17521039602898855 0.7819349491538597 -0.18084651126884338
Ni 1.6553839998128885 0.41063810845082527 2.8136292717887197 -1.4096525595906304 0.9094583235195305 0.6556243641493678
Ni 4.832162454154551 6.367545648645776 8.879595791017158 -0.015945467585662863 -1.3133539475671963 0.8700093734952886
Ni 5.658869922996259 6.760191568539157 6.619091002673728 0.8353203067535355 1.135476546229006 1.2618763485131945
Ni 6.099911843853802 4.641256748075907 10.529735179850128 0.6073197635067089 -0.14770036353417787 -1.1885554283318565
P 2.401546562306415 5.778086836285337 5.324452249847186 -0.3791531269956631 0.3096328115073377 -0.5646569345308599
P 4.83055734189735 2.842439170395846 6.567721811214545 -0.11228753125252275 0.4259569747230793 -0.669255581779557
P 8.495131277611488 3.196889017796688 10.633238790705066 -0.10141639286597373 -0.5770277973913869 0.6101562045142395
P 4.923373891374703 7.779923118357092 10.484443951257887 -1.4341685424541237 0.67127698308496 1.613935447505543
P 4.240687919424605 1.7781284272486022 10.149935757243146 0.06744157858242579 0.4306363824766197 1.8980266630983504
P 4.5609264788318855 3.979110613789157 3.30030584060516 -0.4894393115474409 1.565902355356716 0.6715346076217208
P 3.552887985166687 0.10542227992517061 3.7648682552594774 1.1127814186243352 -0.2890860977042376 1.6230289251663792
P 2.3460395407609407 6.6181111376329955 1.0332107599592062 0.38885467055414324 1.2989495992164082 1.2250527519269419
