# total energy = -381166.32714695303 ev
CRYSTAL
PRIMVEC
9.28522523676566 0.00000000000000 0.00000000000000
0.00000000000000 9.28522523676566 0.00000000000000
0.00000000000000 0.00000000000000 13.58986569895510
PRIMCOORD
 96 1
Ni 3.8676306260640723 1.9942714152808287 2.198704221794678 -0.33725314432776754 0.2732974674114132 0.2133200584165165
Ni 8.426843406588993 8.74749009357372 7.262098239124679 -0.9736780527305491 0.8577819781911615 0.8633733562360099
Ni 7.085146914076925 5.677497465909326 8.865470952428556 3.9607905906085077 -0.3539719997443452 0.4093594753757144
Ni 0.05752197103843828 5.199698339888994 1.503678177251802 0.6262284274857538 2.366984052642356 0.5564887968977706
Ni 5.626614430995583 8.825597409211387 3.292851963883777 0.9590988693647933 0.6118523612697397 -0.2880697406245813
Ni 4.517169280143638 2.6178021531572204 10.857283640036911 0.6794811161623072 -1.1663441823421397 1.2443733066324245
Ni 5.118796171421212 5.67673607743069 9.360496028516767 -4.154140119440368 0.5038542014211903 0.2717517201908481
Ni 3.2730512208265585 9.25807535030216 3.459518044812196 1.505960427585445 -0.01740739684317002 0.26055919390913834
Ni 2.3015288073119766 7.466788246380702 11.688629792021873 -0.04456673086678131 0.6916776582284991 -0.7746425292575045
Ni 8.769087527736014 3.6642191943386373 8.594312659510118 -0.24146232517868735 -0.276140336176847 0.13650552325962298
Ni 0.39579851539373634 6.83656286102752 3.897573620770247 0.24633019479394994 0.0727673616707134 0.4008673787443031
Ni 6.0003168956257715 4.326181479935464 7.314215280487335 -0.7360525847994485 -0.10995168403049452 1.452504878869466
Ni 0.47688174575582876 3.341353338495445 5.979812332487083 -1.6272504194468942 0.4819052079539249 -0.2435534033797612
Ni 0.8008302588747404 8.688547483056851 9.64976979609154 0.6508619097637178 1.4164443857014832 -0.27193452562561554
Ni 5.6902367950884605 9.403890529186363 7.699107370185874 0.6339797892963984 0.0469920524788223 -1.37006605554726
Ni 3.6986580951589065 5.39712080126418 11.386431919283519 1.1592268545710682 0.5305502226551378 0.3178775680146332
Ni 0.7250405354842402 5.097096599780077 10.023789815428673 1.4184588450283506 -0.38373329016717783 -0.5197083948446275
Ni 7.163597783052514 6.358290188514378 2.339957569464807 1.1885780540396755 2.6289324135895367 0.031288525700636435
Ni 7.805578263697812 1.8545009180989704 13.417261123809308 1.2696886454687617 -0.2402775608419669 0.8121328128934788
Ni 3.039694937349879 1.0775968279041088 0.27154084420282554 0.498369009936903 0.9818749867190445 -2.7601216668425694
Ni 2.7185189925202455 4.0736604913379875 1.0024524276753797 0.4315632651662632 -0.1654052370131087 -0.1322698879117206
Ni 4.95755823323195 4.915161894287396 1.158035663626965 -0.6015710339483897 1.7653780516909725 -1.3248971723201055
Ni 3.103744421808821 6.426685158436756 0.4157125382002156 0.8162206098096072 -0.7841170444068433 -1.2197143704331639
Ni 2.394538909635146 2.1708206900709603 6.367681265432583 0.40512975356508296 -0.4311958545245155 0.13122833402108366
P 5.098767940342937 0.7084877642541799 1.0551228684688487 0.7045966802830124 -1.2398162833893616 0.016909374160828942
Ni 9.134006169185838 6.972025013647339 11.158707124981142 -0.38895237247427206 -0.14566070739632977 0.6590048505858264
P 4.1764386507285405 8.081655869006267 9.975437004422592 -1.4690406717409605 -0.5599680136956227 -0.03782221305409615
Ni 5.155677086508327 2.1016736168952943 4.163214632786176 0.3164444351125324 -0.3967212177864135 1.4642620194053944
P 8.610161610658709 1.2879628934161116 2.6486105308659433 0.6450411893168827 -0.22641751503042296 -0.8024135287231859
P 3.607310048173248 4.039314442771211 9.657719806035544 -0.47308760966229485 2.0915931930370237 -0.8038618311339382
P 3.4697122937231075 5.78300548155255 6.544824794645064 -2.019735230554457 -0.8878726269289549 -0.4012404458130057
Ni 1.5765848381713683 1.4859796092136477 1.8822238154241466 -1.469590116486527 0.1818592688040739 0.5200938032085042
Ni 5.6297249814875725 1.3265430047421343 12.58610439042147 -0.3875295239848165 -0.11450150818470602 0.40528504819602457
Ni 7.857120549611349 2.1050348684717135 4.5493704416547445 0.5806533099591161 -0.059764521653142236 -1.030399159571677
Ni 7.016027696577307 0.11906444465309023 5.608347607166056 -0.9215970157645935 0.5315213283191556 -1.1030803892864873
Ni 7.587245474836176 2.0977552517979223 7.282237892907144 -0.5596849352375651 0.4576905583809343 -2.208249285670887
Ni 6.659577180645975 7.152325519478556 7.187775581339356 0.8472664233718182 0.5025768773706635 0.3959506581689761
Ni 6.132956339739427 4.64385689480844 3.003020154265517 1.0243010170937392 -1.4850871836808617 2.5403026309652703
Ni -0.09189401823619306 6.881800478928937 8.625161892210379 -0.07884133577893519 -1.5070801430121852 -0.893365531722726
Ni 0.26368461503484775 9.519677289291177 0.3005358174008451 0.5584891151572511 -0.9550560667539876 1.2459301095965831
Ni 1.3191055392374065 8.119084612388987 6.944530532865754 1.0978345675065158 -0.648373081903593 2.5602736747705586
Ni 6.802411802193077 8.484198243571145 11.94152404667839 -0.42602870850127916 -0.5116631559426479 -0.09253708809847289
Ni 3.812819940827607 3.9620892235417204 5.418578957046235 1.44657797186207 -0.10562374607910195 1.27936704909879
Ni 8.198584711829037 5.1306255485161225 6.679242359413094 0.20658376813394744 0.0838542156124943 0.3294326198420843
Ni 4.419432998117713 7.308484439401793 7.493819394417361 -1.1162603783118712 1.3384959940504626 1.6600746650657667
Ni 6.650069109888371 5.915319942778982 11.23906332219839 -0.2817903353737728 1.1457596733225686 1.9164151929078672
Ni 4.7344992646675585 6.567504886083077 3.3909977243476024 -0.23252182815594793 0.1428252948300637 -0.2649385539237566
Ni 7.937335611403291 0.8605481857082701 9.132471321435613 0.36844062567416547 -0.5299881795040808 0.924425229242008
Ni 8.889934735656155 0.19054025234634125 11.732131072782984 0.743581803296958 -0.07715186389165422 -1.1113950797997698
Ni 5.9702141950435905 2.7241086981804776 1.2270341731970433 0.17192529751981359 0.2108911372600497 0.006598736263440248
Ni 2.7804885865009616 -0.1416266137291679 5.975300641489895 1.903804189012076 2.9970007435259483 -1.2242361695629174
Ni 2.5035938813617737 6.6637091059263796 9.140747242789374 0.29240050678945123 0.23249508868307053 0.3006064396390113
Ni 7.158017362617631 9.04683647360733 1.219020095198129 0.3869952487479012 0.7636729176198783 -0.3667969194231554
Ni 0.24178448252616966 1.038645307564117 5.738389045226997 0.40934970518370145 -0.8547262220839731 0.4452446193080977
Ni 1.1343295547878631 3.4263874322436316 3.006662748170017 -0.08091647314040903 1.2400898487657224 0.727667703169863
Ni 4.226068180220139 2.715705569239431 7.99896815170383 -0.9032920468078185 0.6128982860357509 -0.4980841317066325
P 9.11603925813509 7.0345517211490085 6.234514420519091 -1.0268955172937926 -2.2186607108121983 -1.458488864367043
Ni 1.6079596146263937 4.710654805970753 7.617283178840913 0.7349282413870182 0.3797395956267524 -0.03531410192026176
P 5.505990068483823 6.79519718209673 13.226608520236242 1.3838775075090552 -2.4223090504669056 -4.656621094663116
Ni 3.360880167404862 0.4949600795107665 8.402084353195288 -0.27895569413845506 -1.5109316555477914 -0.2639131979830358
P 4.350295210167396 3.761008383378941 13.040020059798529 -0.5599703276884679 -0.41439292403456374 -0.7367167007460087
P 7.291928882604128 4.072815535831208 10.448255535565602 -0.030921629279520937 -0.9318732008796209 -1.6708079923228707
P 7.7226333456532 8.112993504559897 9.84570847845592 0.025902578798374747 -0.6088603685209514 0.47379929101733886
Ni 5.571618041252133 0.42328278242743733 9.873336666482533 -0.2680650153678803 -0.776164879439302 2.7712208620795247
Ni 8.885357119558988 4.233189948062993 11.79809609923147 -0.5206663878825226 0.2794136076114801 1.818898392206616
Ni 7.447762819640142 1.9143441954747147 11.091681725797775 -0.8985774149409685 0.3736039150426598 0.25137778452018644
Ni 1.1461217909813768 9.482257831133808 3.7608458919353294 -1.7486329710221498 -0.7130684651994493 0.4626067647356291
Ni 0.3934382111099638 2.445960487619145 10.582918230282852 0.4688216352970893 -0.9184273597873601 0.17659750618450232
Ni 6.5690926596177945 3.7609898129282424 5.286702758456286 -0.4901767039340978 0.010481873367930335 -0.8420542830432595
Ni 6.06835902698488 2.5375035243371378 9.262010428805162 2.2887168441993357 1.6472561731448598 -1.1319772748264958
Ni 2.6369668582780172 8.42221007913973 1.253386571260674 -1.1799797708477036 -0.1403513793682744 1.1237237765684518
Ni 2.7266714203768636 7.194164744902157 4.863323409685218 0.2344496413062801 -0.21386230407323167 0.04426282647311732
Ni 5.158016963296331 7.715390869880806 1.2527468192341125 -1.3383347858822499 1.602462413868937 3.2762575138445897
Ni 7.41743727364958 7.055592041790349 4.960667855201404 -0.17439638476812547 -0.20397872641093256 -0.9658055919610076
Ni 2.2498658134688982 2.4939093913225343 9.136208624638675 -1.7680483994342842 0.2694223007267231 -0.6879847827579442
Ni 8.007448348015275 3.541152817560032 2.325266485917266 0.3643772542380692 -1.7610084618683672 -0.3125823810539649
Ni 5.4602046222868035 6.038516312712477 5.59460825921681 -0.8014290533227294 -1.7795880246427676 -0.5903867351967961
Ni 4.820656870683002 8.28151105942295 5.366746972101801 0.67187270768743 0.6697348354088207 -0.19750083199607277
Ni 2.5114491820072167 3.343721070959497 11.644327196313126 -1.4428177334886896 -0.7686652286281471 0.8567964743494405
Ni 4.026667965845569 4.1594931144662075 3.0652488060334764 -1.9221860339533738 0.05735616932196573 0.7977086670483488
Ni 2.6408852233753897 0.7461217111171168 10.71210264204406 0.4080307292619618 -0.6718513675311913 0.9529487906029975
Ni 8.141239160072233 6.974058477998819 -0.057624108517279726 0.8952421799201484 1.2907724627222545 -0.36788141073658576
Ni 1.7586773924949861 5.076817667617373 5.015502682023778 -0.5048466472414466 -0.20799787487265464 0.12083542082253383
Ni 1.6365952496033984 5.3407316277183465 12.361097381578812 -1.6983308803334878 0.7926415369380866 1.4251159453335522
Ni 0.700441187966543 3.4516246747428205 0.31319900773211584 -0.9036553436845083 -2.261850358825795 -1.1487899755084603
Ni 7.130486669457183 5.052332528371472 0.36752871829549116 0.4244474800570884 -0.30959141674644103 0.5735488377038509
Ni 4.255186646915303 8.717405963442237 12.417373275375384 0.15847817087597224 -1.3028458489470207 -0.1628099654821067
Ni 2.4235923797528662 6.060290166156405 2.8201281420393305 -0.32151593609816886 -0.25457392285998093 -1.0586573830864219
P 0.4605118934651481 1.203857322202847 7.907861520577251 1.0467200082188877 0.6281117605513956 0.6456554258621138
Ni 8.16076598898165 8.48224834624781 3.3146629582291025 -0.23524899727912388 1.413050786638902 -0.06838903009735964
P 1.4316517556953419 1.4561368949412437 12.394746109721863 -0.8321030853678186 0.18308131413663306 -0.09543909223661627
Ni 6.501180521413575 3.5537714388096266 12.483745923216702 -1.1715684068555563 0.16594311179444968 -1.112113446023033
P 0.9422460979884809 7.036956594514457 0.5439108590293368 0.7391211964224431 0.2598251439565912 -0.1695799372160886
P 2.8062365163943577 2.5491471969250634 4.095197571535511 -0.37536537781845675 -0.9545816982207301 0.4148739774360403
P 5.357120050459725 1.9037404681259016 6.517550373704255 1.780483282763527 0.06893847484292642 -2.306842607265769
Ni 8.505609973226454 4.836265334495045 4.357740103852405 0.23780930180713236 -0.27590070936221517 -0.9016498832187051
