# total energy = -381165.8253129791 ev
CRYSTAL
PRIMVEC
9.24691661756459 0.00000000000000 0.00000000000000
0.00000000000000 9.24691661756459 0.00000000000000
0.00000000000000 0.00000000000000 13.53379716246292
PRIMCOORD
 96 1
Ni 3.4283128320251426 5.223185583244935 4.397157596568964 1.0645554937384119 1.6694046842174408 2.3168709380360486
Ni 3.225028616972383 7.529875169579822 5.20836000182235 0.005946190281105889 0.42829205061415915 -0.285019898054664
Ni 6.118573766822708 4.214531917944942 11.510183614141171 -1.6367856126308393 1.1151074956543505 -0.663516879523567
Ni 7.880601470195548 6.304048420458454 1.9795882330007426 -0.6481123720430386 -1.3624036539059956 0.0774799366550343
Ni 0.9631033540122418 0.8827633683116008 2.5359631852498774 -1.7824401493795818 -1.1886654715471592 0.8186945252713964
Ni 7.674598661655455 0.8577957687362754 11.68164271625056 1.6040482702988181 -0.10981027335662379 -0.5211165880460638
Ni 1.6410040586034382 4.517146511368187 11.561259882803173 0.873101125046735 0.9566252110133202 -0.09382392523069649
Ni 1.5679719111104116 5.238683415506053 0.3112798789912005 0.4531646454861228 -1.5492374931065254 0.8557945154474874
Ni 7.857456437886729 1.9513768150738655 2.0027452863011717 0.29597536862490315 -1.8433606390140382 -1.105187151216845
Ni 9.20002550938078 0.9807094832635361 0.21362966537121975 -1.1600352094049764 0.979348877863081 -0.6031697458940773
Ni 6.012095521902196 1.9412052067879288 7.1656992287351 1.1050269714898968 1.3057509384089576 0.44482604371344037
Ni 3.952807189831164 5.404147741568375 9.554265638313467 -0.39809624375706926 1.3204748748826938 1.3596556588472133
Ni 2.7406288896462 6.230100828219694 2.1543910201612166 1.5074493534261457 -0.9281224755879371 -0.28203021929872074
Ni 3.6591621055327908 3.2084488954663057 12.63968708217804 -0.6736673376940076 -2.0673718585958136 2.1594780298044554
Ni 2.2190658044098526 8.226010793752716 2.8437625248239624 -0.5921978202636059 0.8863129957513187 -0.08604736660907117
Ni 7.608483207796866 0.6640146098975679 9.315758993149833 -2.4472739479423593 2.1827246590372216 -1.6748106857243608
Ni 8.558511421703367 5.145825878772072 13.087330315925499 1.7500499059743344 1.3988112460007522 0.9403215887572902
Ni 8.900924744274496 7.448086192044266 6.26497095080721 -0.6009226017311134 1.5839741252567623 -1.2776436386497805
Ni 3.698184093684294 0.635648768463077 3.234429032411913 -0.0573631113005012 2.3792667266644507 0.22050500620072994
Ni 1.2620191807860548 1.146654648990284 8.017515941182568 -1.5957706036710582 0.23790109018999026 0.6740715151109616
Ni 2.15798067319449 7.256656524102935 10.060456649354775 0.2518099869615986 -0.5357099124792065 0.6649716096922225
Ni 5.5309784499773835 5.9214572451578755 2.886136520251513 -0.41728515798069427 0.4480512355189574 1.3419273883295146
Ni 2.7374294564944415 0.10196112614989328 9.342231066059814 1.0980654525703992 -0.6884329260389562 0.8717150433324858
Ni 1.6442034917551964 3.1018689344629347 6.736122620686791 0.5553515979695339 0.3424603995603199 0.2460034075821505
P 2.1271329593382307 3.008595286480894 8.841169319669604 0.7865215400832777 0.19853287280501292 1.183406280030749
Ni 6.370533750981987 4.153308082980226 0.05171800467567706 1.3278004620098294 1.9339899685668367 1.2992709871115686
P 1.1477365382352427 9.00722729777916 4.6647069574639355 0.8111570792437707 0.22121103112881904 0.39211431514202144
Ni 1.3846610359645823 7.425967567480664 7.620123226442627 0.32729320490157826 0.5314465092171622 0.9186603017337726
P 8.054591453384809 1.0200736073301118 3.8818047405370133 0.4523200380976403 -0.47321385082751405 0.2554203300206762
P 8.50459265087128 3.1991372504263618 0.21030724822836783 0.1304947982891688 -1.4493977006990524 1.1429327453967348
P 3.1011291811330484 0.3797301792972437 11.546047780265722 0.5556809562844947 0.5113553948942419 0.8552525269010883
Ni 5.202527971507859 0.6343523507524512 10.611701412261148 -0.5201434254995171 -0.44384131120266784 -0.3779110270584459
Ni 0.6324289920947468 7.182015413117404 1.4191270682956485 0.9426921458719958 0.26281148027842477 -0.5745896202635394
Ni 2.692322997204623 0.471113757521425 6.45254927797482 -0.13620778951354606 -0.609605217106776 -1.2529101404588423
Ni 0.07454031959433227 6.370653960898093 10.807779505189153 0.5843713822406517 0.499874647948152 0.6742568916488904
Ni 9.23250068056279 8.603830560075528 9.575675949063701 2.9850582264520913 -1.493767227953363 -0.4702228865199902
Ni 4.824273600103738 7.49457968882762 11.434204474320211 0.5693188587829033 0.593765678971358 -1.8123132827899304
Ni 7.920178273344465 3.6599018588626775 5.626635953064983 -0.5591766281425788 0.041072344560277654 0.28714620036904737
Ni 7.953735333771433 5.825446509855255 4.316658563902398 -0.06159668976587457 -1.2875007339495181 -0.07856494218909695
Ni 1.4232021844516596 2.2438198002111736 12.009553174789266 0.8658400726089476 -0.41944745573933573 1.6700672575021045
Ni 8.144721149714833 2.880229589912371 7.955369263938819 0.7174570811854484 -0.23517314973586595 -0.0764268128001716
Ni 5.595725360175684 4.540679914175196 5.536839145733408 -0.11085388412978973 -0.1718113976497686 -0.5447211148388812
Ni 5.944898178798647 6.610075126115799 0.7341737403956483 -0.13161631348812172 0.7306167584958578 -0.34608256969393947
Ni 4.167206198665466 3.331525355726142 10.338927543473856 -0.5326297308919858 -2.2287965136946193 -0.9526783105504303
Ni 8.017270897892045 8.551631715735423 1.6771354606184106 0.3052079429667647 1.594102471940016 -1.4699904372487393
Ni 6.381611557097035 2.224595460550753 4.476546999240702 -0.6542411106485958 -0.07000445421359557 0.03636619733385995
Ni 5.21586202527906 8.679451844223156 4.483422081750333 0.9104546259945288 -0.4889387177619386 0.6519348311129224
Ni 1.9006019958937936 5.284575862708875 8.617225643496445 0.049510448025301836 -0.014217943371594868 -0.544202780441566
Ni 8.612522661701693 8.125089945722975 13.01815968081448 0.29152247505987217 -1.3036958556521419 -0.8211491574594761
Ni 7.206991334917691 6.025864180754705 6.533291504548587 -2.159595786329242 -0.321122300204176 0.2064127897737219
Ni 5.813055641579659 6.253948626191904 8.664620714650598 1.5402198629889474 -1.676222478470223 -0.8486054538982158
Ni 8.2405931812681 6.471297401429127 8.551004774788346 0.23098867934087317 2.716923791298856 1.301260763848088
Ni 4.342860626846972 4.4002007568297845 1.2429169004250658 -0.7582628023479006 1.13241796190834 -1.2557702356154568
Ni 3.87900754825838 6.635300714664923 13.176612994692803 -0.32217799516219997 -1.3770514857261573 1.9309840918609777
Ni 0.268541555048681 4.059747780582854 9.626509023818501 -0.6987088540436677 0.8062565566183598 -0.1683218964392714
Ni 5.986028463940327 9.235468940798958 2.393750231037545 0.10702988239800923 0.6011511728021518 -0.5735827762655799
P 2.1300272442414108 5.5767691810973465 6.34203197987313 -0.05900296089676935 0.11417549230385499 -0.22001855348261465
Ni 7.333785055660206 5.44653560737086 10.24756153439126 0.13689890204329971 -1.048747837282194 -0.8017450419012514
P 4.682046775516471 0.9192600235332047 5.964547876623754 0.14041231451319688 0.3444188088382713 -0.5909338659495177
Ni 0.2669917718225691 1.8692549485398608 10.214390070387495 -0.4912095160739862 -1.1663938046331528 -1.5287954232020897
P 8.648752081032875 0.2071984348595206 7.438351038222961 -0.6764312735923899 -0.9860517438045535 0.543174853397684
P 3.57679057224995 2.3161214412909374 1.7694899650880678 0.08045804544675177 0.19924403993942463 -0.4823219837763693
P 4.130727112585447 4.945278751039893 11.784350993263637 -0.6239969670520737 3.1461959464380977 -0.29048040694860294
Ni 0.8200970143536063 4.302867712449992 4.975538360998892 1.0568948918693604 1.7605415495342776 0.28658287166640967
Ni 7.004770515276643 4.0176465691956995 2.4524727750555826 0.3012790402260037 1.1123723561113747 0.5355715871291292
Ni 5.842571799442123 2.365573951393838 1.1118122671526385 -1.3739211676272918 -1.3316494034422743 1.4812364424762037
Ni 5.993296540406461 2.0894332802638993 12.386414960549876 -0.7508186873650295 -0.1271917020578648 -0.2763768776676853
Ni 4.880430124758734 3.411372480770746 3.1770454419209697 -0.4686426865170638 -0.13750439683778254 1.5717477583938997
Ni 1.1162507871319565 6.828006457100308 4.3240477749763 -0.969159338924589 -1.314967571911219 0.170970389805712
Ni 3.674909604542746 2.9295341493492937 5.297534491665159 0.6424094081209905 -0.8897536460017514 -0.018063028149297923
Ni 4.39528139718604 0.710743903054824 0.3865997136569005 -0.537534367282455 -0.7115643698500971 -0.24380639993083172
Ni 4.042724207078845 1.7838596735211094 8.375606486197313 -0.8364981291117206 0.6400067122167687 -0.3142065469209492
Ni 6.494035569406508 2.745807162955404 9.88489561503117 0.4798609238303865 -1.2455943235237195 -0.48335222481309653
Ni -0.07110139130202325 5.147508817597564 7.232921538513531 2.290836975866132 -2.026265318363491 -1.8849366626836117
Ni 3.8870616126375177 4.373958007452067 7.298127095776361 0.35186729469651656 -0.28703975669817017 0.14395272356628755
Ni 0.02716836573173731 3.2330641875182726 3.2244275673918503 -0.4957588260075655 0.03494026352061079 -0.49155352967696636
Ni 9.224964443514573 1.554018313925431 5.8076230780633065 0.32346740339758484 0.30108337927542983 0.0175205253822666
Ni 3.676620284118108 6.9855369286996 7.429188268540656 1.0793583630791992 -0.19527245688618627 0.5336340037867842
Ni 1.7850062911824331 7.216173523124906 12.810889120005292 -1.166942220937455 0.5217513934165853 -0.9259892312950181
Ni 7.203375790517872 0.3697962167685328 5.802967255543335 -0.7756833118171931 -1.2375336580027718 -0.01067933409071709
Ni 6.503023572364626 9.167457869032535 13.433187190247247 -0.02932343155446563 -0.5370674549483654 -0.03247097604451182
Ni 6.154202136573358 8.309695389196104 7.728191016330731 0.8000396291743705 1.0583370236325258 -1.0411736244793617
Ni 7.138823065568667 6.51812378721093 12.225565770574383 -1.9357591446521176 0.7272954074321087 0.6269935877865523
Ni 1.7112528841927674 2.0012361895082034 4.3590334840216105 1.2084735074120219 0.0282880483114158 0.6749757720927859
Ni 1.4805515613510962 2.6387278684543594 1.2713779851007794 -0.2656738894278844 1.365727833183222 -1.793401533487092
Ni 8.379666807286727 3.4359600320728423 11.614718157187406 -0.13519220376483812 -1.1491995522420533 -0.6794962856709588
Ni 2.5091693196413947 4.001825094852756 2.9652143018330355 -1.5989821686298202 -1.7318331258559914 -1.3531319987960826
Ni 2.112985176904155 0.44458527842003936 0.48120214355774965 0.6061110879105884 -1.0953321127996363 -0.5400692178891666
P 4.684931813503027 7.9283617945563325 9.187702143596537 -1.3792549211353795 1.2360038516218068 1.6447377775983805
Ni 8.034359199812418 8.05578430562925 3.7853621742280716 -0.006726262980240029 0.5934622887983263 1.566163836548219
P 0.4911333320114734 5.276660502079092 2.7012240791464803 0.5298683660967649 0.5220951499092492 0.15160869744964856
Ni 1.0337867846828792 9.103256526915027 11.666322424788612 -0.08895194185037583 0.30014132707713476 -0.5212122330836637
P 6.279414634573239 4.031073092133137 8.216530854830221 -0.6084700750610682 0.5260178820024232 -1.0030806742623821
P 5.4936024129848775 6.779913243741074 5.449234782333282 -0.7440710842285508 -0.6565972695855983 -0.01953472759881797
P 4.164875975676324 8.143593025886755 1.951708779380652 0.7276026542598825 -1.0829715343517543 -1.1561726411257767
Ni 7.236794147195487 8.03630105230337 10.567946852181699 -1.138156407054014 -0.8466812402923096 -0.28326126349234443
