# total energy = -340855.15118057496 ev
CRYSTAL
PRIMVEC
9.34785312682061 0.00000000000000 0.00000000000000

0.00000000000000 9.34785312682061 0.00000000000000

0.00000000000000 0.00000000000000 13.68152794657372

PRIMCOORD
 96 1
Ni 1.751395031629903 4.710233532156631 7.256887805029942 0.2685427263352472 0.5676661536708288 -0.8189891736936797
Ni 5.973773466562327 7.55108343284117 1.5375984174078583 -1.2928661120264897 -0.7021844712970938 -0.9639086320486109
Ni 9.158222397860026 7.080746212031499 8.320407056095183 -0.9317505592588275 -0.04663081248466163 -1.782036229072944
Ni 8.032918512770308 1.7406263050399648 6.191971984735067 3.9864651125564765 -3.8435074059136065 -0.3552020154967044
Ni 3.151217314086562 8.733885961381159 10.746799331290651 -0.26363063374561047 0.12906475071086163 1.3601174289749802
Ni 8.87720724269794 2.953080223114053 3.4154979429107075 0.2375539912632167 -1.0642523606756962 0.7077359972429424
Ni 2.6676341856571484 3.465950174812804 10.833840929180887 -0.3202049305962292 1.5060730419039094 1.7534579032146187
Ni 8.606960814125792 0.28420277301553143 8.975109176136952 -0.34842870132861287 -1.2441869016532314 -1.2604421871698293
Ni 1.9428764513072423 5.989973295711947 11.596722946972116 -0.7159000211109736 1.0209030471557838 -1.701404634162805
Ni 6.22696006351413 3.0237686870664073 0.47565614913404275 -0.5067875730179013 1.6445485444057095 -3.1490732679858926
Ni 1.5021812721787282 8.905484497849471 4.590877341428933 0.08281317594248963 -1.5539801499978334 -1.8208532019401413
Ni 3.0368182897743536 0.10425006037236824 8.438478851828561 1.1497821642184003 1.7340139355573942 0.6842865079707506
Ni 1.1225275727657493 3.302708618875225 9.031710425704727 -1.9392586731649442 -0.26892839180944006 -0.9854881579915995
Ni 6.324785344559011 5.25573683847819 6.17807172740934 -0.628994163156349 1.8648028680482143 0.6099525731438655
Ni 3.728559407530803 7.3580409217224085 9.197202009845602 0.7141084764281895 -0.9283965551849301 0.279039512101513
Ni 7.235200786202983 2.1921930371407865 9.142517070131072 -0.7903776806045743 0.9159511303327258 -0.6931640129660385
Ni 7.242613633586507 7.052646566085879 3.2954425327828987 2.793828315066395 -0.7008971199442381 1.887850236785981
Ni 0.6873186485292794 6.330852101118794 0.5527899576903582 -1.1548747482499595 -0.5193070456411508 -1.061424661418914
Ni 5.582079732559209 0.6673394824349433 11.942304657194413 0.020778627308248088 -1.342331565746469 2.0754631202443803
Ni 4.948435520841358 7.468345586445734 5.770813818256702 -0.20323670603858546 -0.7415084657076971 0.6497429656679261
Ni 8.977042312125493 3.8011735291893447 0.9576576208455596 -1.022443137949394 0.7656470106271136 -1.8967938191325138
Ni 4.393126316782955 8.691895405962754 13.510795859007157 -1.7836197715099797 -1.2738936846890447 -0.23608846246128373
Ni 5.602944140327214 5.835163503128643 10.880631607085345 -0.09458368621485647 1.2945378433019576 -0.19470295753596145
Ni 7.965193318200774 6.669038724878157 10.690855235784746 -0.9746956953617858 -0.5130343252585616 -0.1947258403540969
P 2.7206178161361154 7.181992807253392 5.330145747901722 -0.47122767363542073 -2.0561371662222587 0.4801622571208891
P 7.643673916238166 8.716237215025426 2.233071198059015 1.1276822469955674 2.9093320392633704 -0.8744681805975907
P 5.231030463150754 9.055050144931947 7.574298825624254 -0.2670882532769077 -0.3780619508140134 -0.02386369399147503
P 2.2224052978514464 0.760160857799622 0.8099166746574902 -1.0392578955138874 -1.0065786601133115 -0.9231131952988038
P 0.5405152919913583 1.5951082782816588 7.711278523504739 -0.6578270282276413 0.03195315586782884 -0.5965830938154951
P 3.9319219482982564 4.969935582609464 9.881879889918581 -2.6492348725923147 2.387325078192553 0.7542493103131332
P 6.8854976076182695 2.1550727131055045 4.193018698410134 1.2631652425279474 -0.3241770278700997 -1.1435706360910498
P 0.6826232219961839 1.4772038091159547 4.48521482047693 0.06306530389160107 0.3894398536336519 0.2758153487372605
Ni 5.563851419321032 0.46164652192888617 1.358948795464901 2.225213424329051 1.2592666788044893 0.9066211111810515
Ni 4.060127751406766 5.931951172496889 7.581372345945961 -0.19837834950501965 -1.7238729904686505 -1.470645297223919
Ni 1.9503079943966528 7.837324037798201 7.431655263645815 -0.21075229768934026 -1.5944464855429958 -1.0294360243274594
Ni -0.07927914080665469 6.9546436758350865 5.134978469809093 -1.3706311840221106 1.499414141826495 0.8879448749277868
Ni 2.9622972061155104 6.506834780617212 13.630618507596694 0.6311700877617452 0.12978980180234423 0.20305081528002453
Ni 7.800960889851274 9.335130514799767 4.704858516714604 0.33143113832935184 0.015245356194844711 -2.8993965253172127
Ni 5.472466808953639 8.818203594923903 3.864087383849294 0.3145896412919808 -0.037607525940128776 -1.5178404668524825
Ni 9.38926393119068 1.7215566850369493 13.350844747305393 0.31784722899733 -0.17114702459289236 0.3394511804203509
Ni 1.865943621589194 8.430987482480317 12.809056277743244 -0.7987152539359921 0.6570839794140296 0.12843020245065623
Ni 3.9623772531854256 1.8666821019716637 0.3608364714394149 0.015039410831625712 1.4894819703144477 0.09297597540810439
Ni 7.272012631091157 2.278380241272063 11.611416837012676 -1.4150860719013756 0.49807333307335505 1.8749494695639128
Ni 5.499884061634447 5.733187775377222 13.420511490931116 0.9966521450282191 0.260438609170874 -1.5865832807448355
Ni 5.27992908189378 3.985017753012535 8.791736084102071 3.9944249908335014 1.0608700744670245 -0.17680962219530838
Ni 4.854461555208851 3.7744106262145243 11.858259046172298 -0.17521373846309823 -0.48641518000913647 0.7792463465781031
Ni 4.870465079446675 5.453715015950674 1.8282082088302856 -0.17899171744829173 -0.8616843985693611 2.652994082524431
Ni 5.096823338453059 1.834946141231351 8.244393120321398 0.18781445794624427 -2.6208306104180092 -0.9870770997452742
Ni 5.550783120907201 1.0908944384078059 5.563251287162114 0.9095904782220207 0.7043850784928385 1.6616368673465642
Ni 2.13621809372017 0.780217611073382 6.339390429996616 -0.3017932608582609 1.3878884284406612 1.7409597707476083
Ni 0.36615913890496243 8.062093161804334 10.384128811103889 2.5853411592621476 0.2582693694336971 0.7967619868643633
Ni 1.8239904575825596 4.261471155938605 13.017166593020272 0.7284256643818099 -0.5068569928032561 1.1133689156966888
Ni 5.91290024819976 9.233014569254207 9.714609409362717 -0.2207099231226844 -0.49008234444807847 -0.3526226848053024
Ni 7.159894482896956 5.471952677041793 8.50166005508267 0.7493865829041932 0.17254570471263186 -0.207428632632746
Ni 1.628218373404542 6.04678019804446 9.088255588154844 1.39687546243062 -0.43313960851444755 1.5857916380814754
Ni 3.4892824157576703 0.612934978308693 2.696204963391078 -0.4127222212003601 -1.2104643125898056 -1.3050922217790364
P 3.3283965187616396 3.4425992381620527 3.1728286153046854 -0.5043663651709185 0.7657017751244491 -0.95966425494996
P 7.620818415793375 4.82209928832138 13.54624478693629 -2.114981232943661 0.6848156410013432 -1.3599983868986127
P 7.163353188485739 0.9777854178016837 13.427051248849796 0.9556214523391542 0.19594428614223028 0.5532450931494923
P 8.820204035453632 5.067929125007314 6.705084045825034 -0.12871559490155898 0.8467581162768321 -0.10292228798753889
P 9.037616399193896 7.318312546716126 12.47243635413707 1.7282778044045655 0.832164020512741 0.14058509264563532
P 5.278667121746522 7.851252338682756 11.69918382829126 -0.7187269490368073 -0.5110872288345198 -0.6025771066154009
P 1.6656939158516444 1.5808808461029382 10.568884450588987 1.7672660127423048 -1.6630278341568197 -0.6969975277795157
P 3.5812372451545644 4.545748711777678 0.4403436998578703 0.6995832862288209 -2.0993219291398493 -0.6604004453817723
Ni 7.344654796308527 8.086004969631645 6.476547737083011 -2.5608693993730283 -1.8418596289884794 1.6713749205699346
Ni 3.9510009161542143 5.150666971402751 4.349069885864223 -1.9435431594729111 3.0073592039421366 0.4530255488050972
Ni 8.180913720558419 0.18739079922963356 11.4005432964058 -0.23473760486034412 -1.6145098319517746 1.1034655405400482
Ni 7.173906914457995 4.635852666291927 2.264689375852251 -0.5604498384280477 0.37870086994959296 0.29788672671500305
Ni 0.16404079736417637 3.422538745747115 11.798976832380571 -0.3346159638152366 3.011332329657272 1.3655609685880545
Ni 0.7400844740346824 7.597261826377886 2.5321221006886594 -1.0826797141429483 0.35999789422345096 0.9286459521915748
Ni 7.759774249785938 2.0576213461783293 1.6980823567273546 -1.1517781116025068 -3.447211191479753 0.525789825152017
Ni 9.108015079705028 2.014088395024386 10.359159761108762 -1.0499585697608433 -1.4378717023373235 -1.6254156802310005
Ni 3.226402095304334 3.132072911260005 8.672378023803784 0.07339496795238327 -0.4558236803755247 -2.1349754166774004
Ni 5.291623245925042 2.6451245557712353 2.415063612214266 -0.934546633946726 -0.6797081445714487 0.4870965223468772
Ni 7.048094161702806 7.872256964244902 13.145252743611117 -0.38328926065122376 0.6960210227988594 -0.7088726819505469
Ni 2.2294629268231505 5.779805518002242 2.3602964113938403 0.7089734691944694 -0.6419782341208429 0.38872688672702727
Ni 9.194707067895207 8.886947705464188 0.5688290037693652 -0.4581623558110304 -0.7835624574549538 0.06046797547807006
Ni 0.6175612307300128 1.367198275686794 2.1475074957190143 1.1176330902896816 -2.004793007422328 0.40510275698188947
Ni 7.352105035103823 4.336777459244632 10.777500484710213 0.5531507336634732 0.11209624117732309 -0.26384583508021014
Ni 5.225833056914637 3.4359809582786527 4.514603535343341 1.1590988136336362 -0.6035091315113671 2.2747783797413725
Ni 9.295187139175804 9.032802254928427 6.545981719170462 1.8109696242778426 0.5506256532487742 0.7883650210499197
Ni 6.831186582021446 3.188197420327704 6.612200039845639 -3.3152027847595362 2.66470468609314 2.097650197864381
Ni 3.218344246067766 1.3423049433005045 11.880614436484658 0.6058094975097696 0.507576387467784 1.3280609147600677
Ni 1.5220454596818696 3.457826890605637 1.5994120297764571 4.486835726304441 -0.2975342284715908 1.7401444739351644
Ni 8.266315705042512 4.744082107661984 4.537369296399882 -2.015227058271458 1.5971746831074365 2.7061112740643845
Ni 0.5925847024525336 3.2469019368075758 5.886490694066172 -0.2850461233069091 -1.1219489440562163 -0.06854483894893357
Ni 1.3324149148871758 5.319358325605898 4.8854954921931695 1.8878193835480452 -0.45599800116985983 -0.8114452999081507
Ni 3.276132672959257 1.8716271161783282 4.564458439442402 -0.6818393319818387 1.0269986185305604 1.0689793338377203
P 0.015434239993617208 4.828315610528245 10.035524005239939 -0.5791751827516929 1.304853623405669 0.8083674323137756
P 4.537382383394003 3.433522472954735 6.769702014076429 -0.15482437617346884 0.36797834132576623 -0.5407554453229138
P 6.102493401582683 5.678951532603939 4.157022921083853 -1.8767770096909548 -1.5847783663256128 0.11324860961421142
P 0.03686512764994741 4.959222943137182 2.8309813723329795 2.3202874199167653 2.1185818058107255 -1.5248737195501803
P 7.155500992013908 7.690366441686726 8.800409956847561 0.27875411965061025 0.29398404922648724 -0.34680273568941566
P 5.318040278340984 2.0940499290958545 10.538744168345985 0.025195782539337252 1.290853709582151 -2.3934319624212392
P 3.7834780435688997 7.399096691846548 1.757543114510287 -0.4790715951598717 1.267064320472037 0.6110612328270121
P 3.803632014513263 9.263161394994269 5.265117408906144 -0.3823922027582511 -0.5462331806080335 -1.1894460584669257
