# total energy = -381172.04167675105 ev
CRYSTAL
PRIMVEC
9.16284779638266 0.00000000000000 0.00000000000000

0.00000000000000 9.16284779638266 0.00000000000000

0.00000000000000 0.00000000000000 13.41075394484965

PRIMCOORD
 96 1
Ni 8.09233399057628 4.508991601929231 9.828258418714135 -1.704635482395277 1.258440583358768 0.33281747715391713
Ni 0.7174958828882801 6.858831415968303 -0.06795259577737504 2.3015924146104236 0.8403444994410043 1.3267218842336699
Ni 8.30987832370912 1.4987670192291414 12.948297900063473 0.2132688934636069 -0.4540444769879149 0.17583260299401976
Ni 3.50413873202165 8.608678791380834 3.828998338916252 -1.8349690725162333 -0.21944776858080917 -1.105466887240793
Ni 6.842796432269268 1.183858265075769 5.9731633728989015 0.9930806256268769 -1.1160212657178714 -0.313878217047253
Ni 1.377524216768788 1.592374672640188 7.540250418103322 -0.6035595251333283 0.4491408690387103 -0.3957439414748088
Ni 0.47603101921561486 7.541161205177428 6.892685389838487 -0.7222347050797497 -1.908494909619526 0.8231273642317694
Ni 2.4975082696354334 1.0565954715924069 2.3285765093693698 -0.6277278948494157 -0.9315690393756407 -1.4278757674668765
Ni 2.306444566725572 4.028336093414815 5.173681076499853 0.39464196665988166 0.18863412563406223 -0.2614639651115949
Ni 7.42063310484766 6.957744358271773 8.402320462876443 0.04742065537580865 1.2004550079829197 1.1388752874979096
Ni 4.864702517460775 7.970953745398508 11.97749325640003 0.43862428577810264 0.3897928660976965 -0.25110627602635466
Ni 9.240182263687934 4.902911592903615 1.9560251958147101 -2.3855700431746594 0.5392215251768906 -0.2441110756554441
Ni 6.613679422329643 2.5249051846412116 10.207555420839785 -0.2764766364703432 -0.16247032275450085 1.5943143308405059
Ni 5.869106407824782 1.4424155050868217 8.060332744536923 -1.0333477006770397 -0.642310677759597 0.8162252377952975
Ni 2.3225436903594017 7.7888238191209656 8.35563758576225 0.38397497386433865 -0.7926129976929962 0.5911835200664787
Ni 0.24807494209579858 3.202571084305874 5.800352062862455 1.0987174843321013 1.3544532887106673 2.4179276335697586
Ni 0.6480735663192908 6.115156360550588 8.99822718765647 -0.33547368382984155 1.0100429645128284 1.0198823192007533
Ni 3.414608545894072 0.9507920677222662 8.898558310407187 -0.47453436941115046 -0.31509563439412186 -1.1755495029904917
Ni 7.103158753302442 3.5275039939830997 5.665399807481819 -0.3830786873023145 1.909872249583027 0.48588424720633094
Ni 6.158285885277077 0.9295892378482292 0.2620317919074378 0.7359800796903001 -0.26365480211532655 -0.8497735060643882
Ni 5.395249732398756 2.8547035665151155 12.581191150688223 1.3059139463493832 0.3086845886614555 0.11702530304782426
Ni 7.144950502246038 7.724638070085689 5.895689661943432 0.4652424025862633 0.27404951508608927 -0.38912489349639434
Ni 1.1736416897475273 4.5829724352926595 10.806493215681321 0.1931016744871126 -0.7962228265314416 1.2074700058481722
Ni 2.1772300866548413 5.411183924771682 1.949655184004671 2.296950287852722 -0.027288917622940098 -0.9301934991843528
P 1.8393775615401085 8.899168556072533 -0.03246946756336972 0.13347753506657656 -0.06671755593220767 0.3181516476116263
Ni 3.704447748389983 1.0033501628637858 0.004531028250955619 -1.2076718374463329 0.13922729306616022 -1.2412573867112622
P 5.77704727569667 8.721748333578594 3.3457689864469446 1.784493432364185 -1.9228172397794692 2.6453553350322507
Ni 2.724279590531087 6.132996425271742 4.133355157510877 0.06486276211165604 0.1662120491851202 0.40289212248381584
P 3.98181631499196 4.276905829293327 2.936754119960681 -0.04781326282853701 0.29058402240600273 0.038464988844417625
P 7.608728045061243 3.76793712099033 11.834320093948094 -2.217595759882794 -0.001894388809235447 0.126068387086699
P 3.021522374072038 1.8650335354585628 6.320407817037355 1.4958999580256496 -0.4665359245867062 -1.3180968615688204
Ni -0.07915326096234603 5.765273016237666 4.922350574570758 -0.3845948668365248 -1.4669099985512029 0.5526681376000997
Ni 0.5181333887005815 8.93725851449361 11.489569776988429 0.3650161733736488 -0.26778630778519685 1.223675411963441
Ni 1.8294358716467074 3.202076290523161 2.666822120655925 0.005284388327390898 0.7133150339926168 2.5192671504512094
Ni 6.025589523031698 7.858571416787849 1.1217139985365754 0.7512763437277384 -1.2593353272588956 -0.08235269136630333
Ni 6.1149547778983715 5.207878657163587 1.8000588652252942 0.9517100330998899 -0.058550703850699166 -0.3839814016222419
Ni 7.517383615063717 8.216628021363364 12.3281572753479 -0.09872496207673966 0.1174392506567913 1.2737196210050254
Ni 5.919795282009385 8.57330103591685 9.591867023883845 -2.890372981662364 -0.06869653403544942 0.08867709092243437
Ni 5.272055243351035 4.648450145871687 10.95132943501404 0.40549587865525 0.33154478108908064 0.6252141272886265
Ni 6.302664878503178 3.351815549728655 3.315406973884019 0.4115472270556525 0.17808977445931265 0.7932272342382274
Ni 3.5202836698946203 6.009151374028232 6.907718874269918 -0.700895063061709 0.6310466748100035 -0.5203061763296266
Ni 2.9984228346976005 3.7652524065767206 7.43925384420376 -0.02465045155882851 -0.8928615955031138 0.46679740577820894
Ni 0.7862538929897381 0.06771161287949813 9.12888756511446 0.31040697066920087 0.3516058135050138 0.22690628174138341
Ni 4.127102430153037 4.610470141624546 0.46363002096517336 0.36118008745701025 0.05688745721566332 0.18613835579540203
Ni 1.633790744822836 7.601416092494483 2.1956758156174274 0.44471908582193087 1.1324238754456109 -0.0627400593416984
Ni 2.239088472341801 3.1058022483941605 0.5470311781805891 0.674123965615452 0.10308118216290635 0.2709497931148431
Ni 8.770421381241032 8.87498780065439 1.2353342278887993 0.05124157178379562 -0.27779972615714094 -1.243252305654104
Ni 6.681915150104904 5.789985216829834 4.021402566463352 0.8867117738516341 -1.0963201877445183 0.9183754235035022
Ni 2.8928118506318485 9.122265574989152 11.194586551721867 -1.3779670555618913 -1.6104274343522844 0.18359244944509673
Ni 1.790741165268981 1.705490029077088 4.529414673453103 -0.5049906290184787 -0.7859407278791432 1.047710397156615
Ni 0.4360012859093463 0.19637723836533005 3.3501937256630954 -0.5997494073586187 1.3524480853551806 -0.4939084030623881
Ni 8.225800032039214 5.289281397267711 7.2404530325879195 0.28501167052454784 -1.612181440928914 -1.052301358961407
Ni 7.8605414290708735 0.24418256433845592 9.978245074810987 1.2650442047182149 0.633239054475632 0.4045216876674388
Ni 7.103387824498142 1.2056658429064553 2.4948427972022627 -0.6912140883285193 -1.2054249503936851 0.08988396674634198
Ni 4.708063633840782 4.7633614204828785 5.326938869271305 -0.843876938074295 -2.2008979875121386 -2.266638524243058
Ni 8.099581803208245 2.1455541217133782 8.399637581032398 0.9373545357091664 -0.7782716413696597 -1.1839901775586772
P 2.1791084704595853 5.0134063748617015 12.87810590427693 -0.3310932953739588 1.0033390701300915 -0.2520411291357982
Ni 3.167000909037503 5.1881968600290005 9.514219218819642 -0.1301844661376016 -0.529482700622572 -1.1713750598978279
P 7.527444421978882 -0.19803846267654995 7.701165602804651 0.14942608797603296 1.4389790764688895 -0.45513205362513875
Ni 8.315806686253847 5.907388786050248 12.212502893777856 -1.510182950307225 -4.250348999963474 1.166442912703533
P 6.374061788779106 0.658251657686655 11.502216339560661 -1.6922216821119564 0.8390044404733422 0.275082584336294
P 8.679287696743552 7.10612751599872 10.736770357703572 1.6985838768845585 2.3939675232097355 -3.763574122622073
P 7.833776750565228 6.520594051244793 0.9388785329762753 -0.14473048227257654 0.5641360290303833 0.7717932327341676
Ni 7.157925094770515 3.4788584348641445 0.7647899219526025 -1.578088613010263 -0.6345094365476234 -0.579759337389937
Ni 4.2081753077353525 1.6108652995571313 10.909755761848752 2.7477148085377836 -0.3495291334816432 0.44769410928985476
Ni 4.441278156480167 3.2752874446690363 9.326616323534425 0.3794835137518884 -0.5605141160070798 -1.521691722277773
Ni 8.39384666120509 1.9834725064835421 4.394543051133354 -0.715879195175367 -1.5139092501188767 -2.215986506414145
Ni 3.5326535144624467 6.928414082374283 0.3566720982687023 -0.5440680546359146 0.7140066607430026 -0.37797838996127164
Ni 2.667305002736462 8.40554761788147 6.255338769471458 -0.03314486218308485 1.0086615107842694 -1.4141759013822806
Ni 4.744843305022452 0.43165351461495105 1.9314971684638846 -2.205971288269988 0.0011706232693334676 0.42913742933359
Ni 5.339805340191411 5.735557900731399 8.788978896947121 -0.11781463171833904 -0.5053076460382652 1.1230928278526724
Ni 4.725702115909719 7.8609995714622745 7.6712058392613764 0.3298684218279222 0.6807682104048468 -0.4249771273083132
Ni 4.895278940662875 6.952585674944598 4.810463956027596 0.2041705307067645 1.552859149019513 2.5377680374688745
Ni 9.144577109450378 0.31266477272029053 5.982698232348739 -0.2638738601046681 1.2833874831120928 -0.4553068886401062
Ni 4.009946257823979 2.2175924313372675 3.8403840936273483 0.29822251278786704 0.31709878086707965 0.6594959312896319
Ni 6.584770637432241 6.63960111883511 10.75243424606557 -0.6394423550728664 -0.5320052099341096 -0.8494207507106597
Ni 3.364194557144309 3.4533307408152822 11.745701611179404 -1.107522741328557 2.047605474602164 -0.5876644511696266
Ni 5.9962867356776925 5.774985634935366 12.925472329839096 -0.1703057596385196 0.6337753865950763 0.07174329128157321
Ni 0.5380259313352116 3.813916291391332 8.411439329034886 2.3795441486955533 -0.6708506941808189 -0.42985373867432425
Ni 0.007069137099317006 3.7185402083494776 13.186498957339799 2.665682476625377 0.9580318615528597 -0.2119856558758091
Ni 5.095743725444285 2.6412458635135745 6.193005748267007 -1.824773362930154 -0.5860978780134551 0.36891730820026786
Ni 2.335289211688177 6.690775623954599 10.846671387122404 -1.6209972394483307 1.1871099541345813 2.5576488355532017
Ni 8.123551813126344 7.423482750522173 3.148831898079323 -0.28692765660033814 0.16110763807901932 -0.5687712138095495
Ni -0.28386594199682535 2.4978198064615857 1.814609467576189 1.2905474911956418 -0.9933305368541538 1.0517400871412983
Ni 1.644108111477186 2.0029710466615676 12.169293652275265 0.5094946875364194 -2.5166317697108913 -0.3416911254944631
Ni 5.9320001953163075 5.917339638791476 6.689190451280351 1.506462306922528 -0.19712056583851859 -0.6069873198679546
Ni 4.653416409394474 6.582223365736052 2.710353894402063 -1.7563290541148269 0.4430512112012047 -1.7610292878039733
Ni -0.0832398910936427 2.405027646507233 10.922576418529717 -0.9053170476576473 -0.37582689083590753 -2.404815007447201
P 3.877790503600455 7.485157879252573 9.721777880389505 2.1936040249538866 0.35502486648889175 0.550103205086401
Ni 4.798528430446818 -0.045809657716183234 5.549705109381332 1.4517798277779836 2.0695842928661 1.0439565865411375
P 1.7936641137261196 2.3292783835129964 9.667423867073694 0.12274317936820797 -0.05579088171737488 0.3292307882439233
Ni 4.887811219683039 2.6144536964644454 1.5712442292639923 -0.2558191081209917 0.9920678680916464 -0.42021415870203116
P 8.445167771889826 4.037957083634235 3.778386432653403 -0.4536842654350186 0.22419582478875583 0.0003748668409154834
P 6.500234203370934 3.739688061136546 8.35248556610941 -0.396862114239652 0.41179173896629084 -1.0635831025228135
P 1.4799190412469052 5.402460893639408 7.130833302597409 -0.7864238381631489 -0.13106301208781299 -1.2139946943405673
Ni 0.9767320899233892 7.6292070099568665 4.567568771808976 1.0626881015123697 0.8699216988774889 0.4513551030812098
