# total energy = -340856.24057132093 ev
CRYSTAL
PRIMVEC
9.43721178762094 0.00000000000000 0.00000000000000

0.00000000000000 9.43721178762094 0.00000000000000

0.00000000000000 0.00000000000000 13.81231337916912

PRIMCOORD
 96 1
Ni 3.449801130002929 3.1033988291658754 3.8480967717608894 0.2023944126429482 -1.4309554348334648 0.155776455674093
Ni 4.875848786440196 4.971494929277431 9.22437448227199 1.6114854433031538 -1.172904609168477 -0.6276502475339448
Ni 0.8598168285136844 3.8780523698461336 3.0165406180711205 0.6998090290863819 -0.42495681559333914 0.3994419591516863
Ni 3.866331352638058 4.770944738706729 0.9276326333906818 -1.4845485375685723 0.002739253308033992 0.8325147189839405
Ni 5.970376625242613 6.786969135707644 11.416774707782253 -0.6201567673703772 0.29308904821604365 -1.566994045758998
Ni 1.7958070567831677 0.15493165185724392 1.5458606115663223 -0.4205466023407854 1.2198820063592797 3.091815057694372
Ni 3.989345410051315 0.5416346224892782 8.06262066433775 1.660978664937275 -0.3896594258436257 -0.5025010298274056
Ni 3.4588136673891707 7.039763731482781 3.8377649121478448 1.6111298597359478 0.06838928720767577 1.353032754214057
Ni 8.10161994260858 7.599069533297439 12.007458295518916 -0.2975236869486295 2.414555374663416 1.338140924703889
Ni 5.295068614473315 7.13532493941271 7.948792789010114 0.07001499573655684 -0.9871112954173192 0.13045391774890439
Ni 5.423726124616385 9.193835664489919 9.83226776967101 -0.7807293588815328 -2.6121096856052435 1.1306426151754723
Ni 7.117479171666759 3.343575872600273 4.8980951261057335 0.8770953338077926 -0.013000783135042125 0.8422108632257818
Ni 7.273778275531612 0.2708017398449665 13.576786421973578 0.5822432801540554 -0.3823847465590834 -0.7736102313382484
Ni 0.7830234039345595 4.017534362064617 11.938590241512527 -1.009650871280732 0.5744921754537267 1.715262365981504
Ni 9.077031292521843 5.876929352783383 2.66396732435777 -0.7674454972884333 -0.23461573457049917 -0.8697008411159344
Ni 5.976246571058574 2.0135518474771508 6.724304161098092 0.34500887701378646 0.07351426713906693 0.5946079723669954
Ni 1.987486268146471 6.818791414311212 9.707363438709622 -0.4590578710421062 -0.4105136435848155 -0.9030650183986769
Ni 0.9986080168194212 7.138335410016073 12.076727431032017 0.35746021540326184 0.7734217694765261 0.7802441917149981
Ni 3.465013915622428 1.637743194288758 5.980980276559033 0.8005533355859954 1.1472154319324888 -1.7970535284173825
Ni 7.767401082363818 3.5031119401546347 12.782978172253681 -0.7397218061209195 0.5937268553136227 -1.3769432422830674
Ni 1.342990754305003 7.585083585227898 3.6287986159844188 -0.9128773765034085 -2.275314197640185 0.979386673079552
Ni 5.73987272402905 8.228814684903623 3.9646727632004346 0.2584439473383484 0.07531712467576061 -0.6698461641757044
Ni 1.9141308198708098 1.1810387604984136 7.508110853622241 -2.4066924269755714 -0.204045575093126 0.7124688839422375
Ni 3.9802007516981543 0.7722668697849907 11.716377874694308 0.48509337587391943 -0.47131920490796253 -2.3604375097730896
P 7.2370297723043615 5.686769532539645 12.81075471810596 0.12241407816356337 -1.0870894131748696 -0.1023170503033722
P 7.062941523965095 6.06309723238379 3.119331674055081 -1.0711529444502714 -0.7687410761714051 0.9742892039519867
P 9.051616880813834 2.552784699532085 10.89081623801788 -0.2369523531234758 0.1337744974817051 0.09652229799846603
P 2.8795198507220943 3.1095424541275962 8.063863545147978 0.2909285502296151 -0.43481648199623824 0.372534593237881
P 2.130601586955219 3.7285858074133635 0.05558140334032343 -1.600877071659688 0.7420057170590898 0.5387098756477947
P 9.31345232561098 1.6492188439868414 1.6642730844460378 0.15220930714812497 0.175957044387026 -0.5575200663757625
P 1.6025046449691491 0.3777546062868674 11.761792569630236 -2.229650634164799 -1.7473749302453325 -4.391485080016572
P 4.214488974892746 7.015746027139341 9.835831260893046 1.6533324612459266 0.5649333281206981 -2.7168397162254827
Ni 3.5055656152545542 5.381626722228925 11.017447578761134 0.5482733509665139 -2.495445879661896 0.2485143469294623
Ni 2.9140317347236504 3.184398419098977 11.95107661660754 0.056566583541134835 -1.428052916474689 0.10062037932723962
Ni 0.13955465875028877 9.229791441915658 -0.05073162013321391 0.2826172021504423 -1.7914768056605532 -0.03197732423754493
Ni 4.184497515402196 0.7995356936358233 2.8322148822380364 0.6247739544274143 0.4470976133564365 0.7870092783529736
Ni 5.45919116702214 5.213389545281773 5.118594638959972 -0.18161964198944203 1.8636885519381126 -1.1787320144835312
Ni 7.9548052367261075 7.973330483730498 5.238278304285685 0.9793838448660745 2.2414756518241847 -0.5376850339277062
Ni 2.9146923395582434 5.302410765349226 7.841098157711083 -0.7731114373249588 -0.46583015676893325 0.7483815386784466
Ni 1.7732615574996797 6.038003685881156 1.9609478844984602 1.5779346039309017 -0.49620028442035835 -1.8533946262112726
Ni 5.846758586266299 8.989010416918203 1.4617014430814783 -0.21854145471645586 -0.44777689881164817 -0.32163009307852997
Ni 3.413364054769129 2.455864533085277 1.33516730562103 -0.8347873170682011 -0.48934803738521526 -0.09837117828174671
Ni 7.270465814146721 3.6888362707946727 10.296983452662591 -1.0622433006654675 -2.3925019944078025 1.4925282133399393
Ni 5.837047695197773 3.70823917850788 3.0756704130944037 -2.3404386980536596 0.4733148951817527 -1.0498567540756565
Ni 5.183001722890466 6.144059073469201 2.1769033798118866 0.8124063782698396 1.6078560740806827 -0.2598179448677396
Ni 1.7501686999246708 2.0956461539932936 10.046980384174207 0.7275342629157922 -2.037248556847872 0.8542163723270901
Ni 7.710928806217986 3.6502852600901727 8.023200486415163 0.4797539659388769 -0.8785413222256998 -0.36800045281295335
Ni 4.781429481152922 2.0404762130928025 9.736949098087495 -1.5434998192917997 1.5200701275139499 0.14080723595877043
Ni 2.8413840773421963 5.890953049700613 13.008229321311033 -1.8939594350075126 -2.2881666281228203 2.0243192503807137
Ni 0.11792645646569336 4.973948604377351 6.591001655246636 0.5326616125711858 -1.0882708350774806 0.8213119082895854
Ni 7.320520786185073 5.638196202773168 9.449486904314078 -0.7157966627638898 1.3595299319026264 -2.364769304379224
Ni 4.367079254471952 3.819720962951516 6.527602465549493 -0.32007611832784877 -0.6443315648443678 0.901741157380931
Ni 9.32044529964575 1.9005601091258721 13.241285044628514 0.8159287896008012 1.3721139392152242 -0.6515730768981294
Ni 9.11127893458956 1.8660576623362388 3.949395804539861 0.3158847059543205 0.08149394291043384 -1.402582025897094
Ni 7.914885830292807 7.978879564341085 2.6997966431437437 0.5428056429837232 1.938931114622196 1.0586769234704478
Ni 7.882884244662707 3.4028887495348585 2.2855785374296924 0.7773285607300999 -0.5861048199919906 0.3021935816204731
P 0.3810406434783746 7.1376842423934015 0.48016156774557184 0.673054643810673 -0.770726224922234 0.1808161722515402
P 8.736140323447684 0.009492891473110453 7.169350807000244 -1.0766299084044426 0.2647927723745117 -0.5211746949775089
P 1.443874549759373 2.5403464542178793 4.864074920845354 1.1782782147755642 0.3656658911425057 1.2527211643764877
P 9.908128797712166 9.292633836109358 3.618964097439704 -1.8483652913174813 2.604041563885128 0.22953780582695954
P 7.712363262430245 9.393536505987575 10.913012560460228 -0.4191579495233749 0.20734044379431388 -1.4320977759680238
P 5.536312062854985 2.48664871837734 1.073606483690836 0.690279749439708 -0.07968774293963049 1.7711244672564463
P 4.810901893987721 3.606222917622778 11.288113422754412 2.5667528547369987 -0.02928126546262054 -0.4572542421744641
P 0.21732105987865083 5.666809829322995 4.670412951257077 1.065135534611598 0.6376780640835921 -0.6157632662883717
Ni -0.2513799577079138 4.18758348370094 0.6133687577566082 2.2813766017841806 0.49616094654199067 -0.026450223771728638
Ni 7.5417856569262485 6.077658850380619 6.12526392220382 -1.0162760899067336 -1.875571419418628 0.8315333289072776
Ni 2.6911531007436817 6.731808632019076 6.109324471266268 0.4183801908170859 1.0333186472113174 -0.5696466744359673
Ni 1.7800091640244573 4.296649341892349 9.935818521214754 0.6206722735542151 2.2622581357871745 -0.6215186807149102
Ni 2.5381570210517976 0.8765508926951333 13.31074669926484 0.9962813919523617 1.9434241173965432 4.657429449497024
Ni 6.733035469569035 1.2585277075962462 8.977644238878424 1.9429775167774281 0.7231808710431029 -0.9614750829064538
Ni 2.4210129094545016 9.241021724103751 9.639613694316086 0.0076518601183029515 -0.44918920577814253 0.5618446618930454
Ni 9.316104182161277 7.3643943844140125 7.508193901087162 0.46228871927457804 0.47892427094873 -0.2910141679648859
Ni 7.503149711314443 7.867020291420538 9.119538382464366 -0.9593084142724383 1.4114888414684208 -0.13012558787520817
Ni 5.710098320412723 1.8662747182104624 12.911805552211364 -0.2957203151913036 1.061326702388469 -0.896372693980166
Ni 0.6321780648398733 3.2073874673428353 8.343893934532218 -0.2784144769230044 0.9702363740388517 -1.3779086915201302
Ni 4.90785980928222 6.942173522989456 13.46298591456052 0.28511785708510895 0.15701881272162635 1.3875169040338555
Ni 6.014910828306146 8.992162445700407 6.800285041730667 1.1091237672670897 0.764929929955431 -0.09195061946738359
Ni 8.950081917736792 2.4808731446806074 6.297572312374454 0.5547638437868639 -1.2613644418737826 -0.09418619366612166
Ni 8.803871193417377 5.828988316215731 11.045251492527987 1.1279622401298315 -2.3181485191968916 -0.5575321505606204
Ni 0.17678162862202434 8.33249189508713 9.944175172372363 -0.37622258361242944 0.41090213727248587 0.8318570307952836
Ni 3.3425660909245374 7.473705610115413 11.554511759516217 0.0849775305836601 4.791336358791535 2.092253709439158
Ni 7.21884426492919 0.8414850443537112 4.555425242584134 -0.17180728388471056 -1.3162968322456041 0.40492432242249615
Ni 9.15217981106283 1.1620605273217308 8.966014762626 -0.34566733653339177 -0.5149698517183777 0.5850252137745667
Ni 2.383537740909197 4.618420519610982 5.359412469083925 -0.9310126526515385 -0.5682006860180602 -0.9302408074825206
Ni 2.5980644423375168 7.957759084057933 0.2465141312405356 0.4430255001695918 -0.6786210821548571 -0.009295566369313023
Ni 7.59958857995319 7.136051604730763 0.588517747600388 0.006324656666447172 -0.18697216455060703 -0.2433058061453294
Ni 5.6836930014528235 4.30460491154324 13.673817947521075 0.9292051671291545 0.34623246500824245 -1.1022563507232952
Ni 2.2558805752299396 9.131578377435432 5.5723150263403385 -0.436193564849423 -0.540989672820907 -1.0638867498061613
P 4.801813858906097 7.5698141763368625 5.742455688932312 -0.8743722784496747 -0.7624511293976353 0.43170390450918555
P 6.156327448968797 4.754297496874969 7.327763846335796 -0.9372702035254762 1.2719473595959514 -0.353653697172978
P 2.060388730249839 8.159875851807817 7.506274372182071 -0.47742634624696484 1.319991507488372 1.4346148859629229
P 5.433427578472988 1.887763249758601 4.639487207786173 -1.7288226211644417 0.5837013527568204 -0.562007926943787
P 3.6033351307744113 5.057307497291144 3.14815763787317 -0.7574089389880375 -0.7935247108739882 -0.028674228006240938
P 5.282809676185641 9.028618395358052 12.916018323613686 0.26762792783046163 -0.36377947275307027 0.13919798249012155
P 9.85348734067935 5.610441362508313 8.64801375107051 -0.3243873441086929 -1.0958028817884675 1.206292440600303
P 3.9156124732987427 8.22252950176306 2.1554252291968634 -0.3895848638519484 0.31730446911998256 -1.2446229607493855
