# total energy = -340884.64840476844 ev
CRYSTAL
PRIMVEC
9.12582343267829 0.00000000000000 0.00000000000000
0.00000000000000 9.12582343267829 0.00000000000000
0.00000000000000 0.00000000000000 13.35656504609584
PRIMCOORD
 96 1
Ni 5.325976558436977 3.3994239771992625 9.369416282141627 0.6912238585205321 -0.5034366542677975 0.6743476515904838
Ni 4.767321026412775 0.7113971762757767 6.431666798948134 -0.6947141310619778 -1.3387443626158428 0.2944247363083316
Ni 2.939756251762553 1.740358406092089 5.136800976781521 -0.5299339292273777 0.17334943156084986 -0.7502373609402627
Ni 3.8139006250826153 2.6538168266859516 2.5508364723541956 -0.3436839875547758 -0.3677752241760247 0.8336442046026933
Ni 5.3036182910691005 3.168376379966652 0.1296396222753386 1.4605429186825942 -0.6727574242852286 1.898817534430762
Ni 4.6856084035507495 4.837033191483473 2.7625647014162777 0.5935347939074745 0.09885274590385555 0.18990913569174392
Ni 5.460728466989656 4.794944893891373 11.762031965865607 -0.06642959237814365 -0.1259945964259701 -0.3043985596915919
Ni 5.772448343214932 8.316554520800226 12.698340535709438 -0.6787270116051021 -1.5002307241905195 -0.21375097530634798
Ni 2.367430236261993 5.453701582959753 11.65173270115465 -0.4553683380056609 0.2498803740390535 1.0457355328184315
Ni 0.8391915570565093 7.64954808736427 11.596744139582457 -0.20555172732500732 1.0441512190504467 0.3597387270247933
Ni 8.074473803058325 -0.4365584028017405 7.220759410618452 -0.8405704994088814 0.977475314989452 -0.8380970981677244
Ni 8.547830263618224 2.9596049176911783 1.6733639112345158 -0.022569143549767582 -1.3433448375023316 0.2059592471760711
Ni 1.3498552963211494 1.5401287145334859 2.8035962286568683 0.8377769958241443 -0.4812740021278292 -0.02592211918240052
Ni 2.0332790860815173 6.439144498654762 0.3845421219159613 0.1210727336443205 0.9984166931278097 1.761616270655695
Ni 7.312878209921128 3.886487424529182 4.049282988437569 0.4207553759174818 -0.5136020248365735 -0.36432274685104993
Ni 8.027932103639479 4.059348771664821 12.924786892775975 -0.44349832604095224 0.57030796216905 -0.622681847785076
Ni 7.281823032838318 0.5857729163032404 9.344239960503058 -2.6277841589177067 1.7021340561296618 -2.725147464760229
Ni 7.084632240477064 1.0143809017454324 0.0420819095157097 -0.7021942414891068 0.1069928585124867 2.1604748465000854
Ni 1.90183985142865 6.9755969023091495 9.660349357791167 1.2339420839967716 0.15949838461037047 -1.3521547224844777
Ni -0.19429973150323737 5.237465197130433 1.9871626500338326 0.78578620457915 -2.160350919327712 -2.1617765960306445
Ni 6.6362714102521085 2.301176758265755 7.397280212943691 -0.15680849648303316 0.12095137757510782 1.3798989824772816
Ni 3.427558890789125 4.257525152954946 0.7367678779530964 -1.0008456142842763 1.4108128984473187 -0.2890580726797796
Ni 5.547095259793568 5.317325277839121 5.047352393410209 -0.030010687429477347 1.7394654455902687 -0.5501474280607751
Ni 6.514970965413817 2.377021476671641 11.640099101464624 0.6457320447363201 0.44346310192764277 -1.4648685426411416
P 0.36710449853370075 5.916399081770394 12.758445033888341 -1.7773784185859582 -1.534445936619648 0.16216281881641104
P 4.154175202774864 6.20966654304961 12.80751641155795 0.10918138152337327 0.12416139987197326 1.7447570330065112
P 1.962617835375612 8.643213369956609 1.8785872533660586 0.33665536284276865 -0.3681765733795014 -0.5960313350770832
P 6.2921548609019515 7.909123008593609 5.925774040165097 0.028723078966305368 1.2348715377895765 -0.48511188781668063
P 4.721810545039878 1.031026403655231 13.100039205646464 -0.1293231465785708 1.64213839230232 0.5091347330938393
P 4.067826661617784 6.67757488703048 8.622077050344062 -0.36806010240629516 -0.7494182074730771 -0.6183541669439996
P 4.901552763030774 1.3889320721861482 4.1055811056698825 -0.3190170809357151 -1.3516610706775107 -1.847691148068592
P 9.330241859966083 5.994041587389127 3.8670859239479145 -1.1918744654027602 0.5789581816448803 2.2882270490471113
Ni 0.5682613737513146 0.26353005309759836 5.120265897335049 -0.4501034900622958 0.14291296944786355 -0.41072833069878295
Ni 1.8764518106868409 6.370792081272969 5.308566312524963 -0.29401747356758395 1.113764865583527 0.5132271579956581
Ni 8.252089704193418 7.372515465941158 9.280100935792182 0.4625062346020228 -0.4464746350604569 0.08760571223512655
Ni 8.89880030635339 2.689644809415047 10.236431562209534 0.6317904949545635 -0.3207078383745767 0.8300536590379575
Ni 3.3404711579353923 4.34702210319036 4.988717152801197 -0.26668407585995363 -0.23295145949419882 -0.30943509367423483
Ni 1.4403195838386023 1.2935489658477628 7.149421936397462 -0.4828140929214395 1.319409666842973 0.8097188041353475
Ni 1.467487160146426 1.1334181423766898 11.47835118208433 -0.1712048744140213 1.3415736045345217 0.6377801368790952
Ni 3.775334895328882 6.88361772810473 1.7434721370414439 2.979349606103088 1.3923292378208343 -0.9469120974906142
Ni 5.715895615509328 8.069691871588624 8.167192168959396 0.5194309728135248 -0.0018596789165580873 0.4486197064279177
Ni 6.773158761484005 0.9218815556063319 5.433383849707573 1.3251478548783306 -0.8090544310784712 -1.9523167919004827
Ni 1.0851060332152456 7.995416794810196 7.2944476969512655 0.24673617198311704 -0.7331377251454987 0.6082029374426107
Ni 4.980518513044748 4.938247698984338 7.503771271543374 0.6930303156016516 -0.259150743597386 -0.074100221549524
Ni 0.5310873320684392 0.2475489111324452 9.389825273627963 1.137806479913763 0.1778923137365259 -0.45359093439026393
Ni 4.946752966407546 0.7678577331648848 10.873606591482693 -0.44374669460633254 -1.4231860753006909 -0.6730003935339699
Ni 7.858730211693439 8.04513428077762 4.230624963273195 -0.03864702294823667 -0.2261246663803525 0.7713376332539877
Ni 7.369284924452085 6.307312853595031 6.70041408529235 0.010891707211839305 -0.0036414534073292127 1.3187031276942514
Ni 2.1376693801309616 6.128802621765221 2.967054327345218 -1.384844242297699 -1.0896142364792525 -0.44309877660968855
Ni 3.64062861589328 4.872322750631056 9.871797424074396 0.08139701232125336 -0.5576663621456396 -1.4587380042633715
Ni 0.8078005496720108 3.6908480221485553 3.9567617403222717 0.6777299377991555 0.09823953779988887 -0.16138557433075432
Ni 0.6962921133585076 0.20569605978446354 0.20419212408559578 0.9238199915578411 0.8236477555116138 0.7416876715980388
Ni 2.6201699157531513 5.400671423092516 7.389706692091201 -0.6292695283049227 -0.09933071398153862 0.2748840951722427
Ni 5.266266295829624 2.868072908834116 5.5092495575073155 -0.5472644500860252 1.518115317780424 0.019605690046069463
Ni 4.142229499924027 7.118872329931868 6.415879124439389 0.35417923065914486 0.8768032564886706 -0.8068054871432945
Ni -0.1248303133353913 7.448232422819228 2.1457192689657387 2.176332125247316 0.4991981907064177 0.5873667174235497
P 0.6293140449830821 6.12828244983054 8.10126448285909 -1.252520104109275 -1.8136553986401214 -0.3283000488995378
P 8.64067639104711 1.928751904680841 8.222769346141888 0.6365807172543554 -0.44572618693020655 -0.9619553649769821
P 1.8419470723529874 3.66931107888807 10.645917297266971 0.6247713833242531 -1.1630025195634164 0.13856420556086457
P 3.8438333258853232 6.452103167904714 4.2129947850168685 -0.4282275159248109 -0.4688483747699667 -0.3616783672496674
P 7.237590166743585 4.0708564349917165 10.501038462470154 -0.4209955169527459 0.8137898888809275 0.6613880061060222
P 6.436224235161815 7.933087420882606 10.477771263090098 -0.7842641115076686 -1.0792130957505863 0.02940262153183323
P 2.5289025557751383 8.802276472088073 6.062598423215427 0.9654698058881438 0.44118381897516273 -0.5632929643037976
P 6.652323733639903 4.247742270253573 1.8537440242821523 0.2945990571026669 -0.2681814863410865 -0.49466482161243835
Ni 2.689453167123322 1.630556498757277 0.6769627067822223 0.42957965907733114 -0.05954649210506519 -0.2841547218408913
Ni 1.4943353326347089 3.5789289237813566 8.49322589921182 -0.9837009841841899 -0.1790264273409691 -0.19234242772358487
Ni 7.993390862011965 0.03550766632721247 11.237546254455912 1.704490472176981 -0.14170506518269146 3.3340471711595487
Ni 2.8813144786099487 1.8888446788850353 9.616646702036874 0.3309580553476752 -0.6868761230747976 0.26534555955418815
Ni 6.266082383403983 2.0644802763389745 2.347416392929548 -0.1605957314396073 0.10453694077282642 0.4765866239544889
Ni 4.118192081047706 7.067338805104767 10.799103369118878 1.2813084890958772 1.0785721197324778 0.16055099424460093
Ni 7.666102331039915 6.429343364306558 11.788223991650318 -1.9328185739665549 -0.0254066129985627 -0.643340404575692
Ni 8.208157990271395 4.571106697156974 8.528086544658876 -0.21751044234878023 -0.6223146942536444 -1.7602430444572525
Ni 3.0700730101353186 8.668802178813559 12.743204908784522 0.4255314571498865 -0.895197442725142 0.7391263386287658
Ni 0.1420069381679697 5.337940512934645 10.524185200981128 0.5947758654034273 -1.0393134313421712 -0.3553668232093428
Ni 8.455978850941621 2.5662636768380302 5.880321051479715 1.1659505464481468 -0.6429187436572411 0.3249658423199823
Ni 3.717504552345113 2.718765311933779 11.814816641082968 -0.6190843602418048 0.5960020245010446 -0.19367168805796967
Ni 1.35741147810915 3.2924236976529966 12.933522130949253 -0.7642629857953934 0.2808827359578388 -0.9042379556608556
Ni 3.387396141937687 8.987147402838458 8.149681538989812 -0.648841022678947 -0.3790119734321085 1.3728629015661067
Ni 5.313118273244595 7.96103981800416 3.6796132209417824 0.45196753985422805 0.611680868688882 0.7273270320009926
Ni 2.8280652989807407 8.719167598243482 3.9235711205602444 0.5686987087004012 -0.5880837980952323 -0.47777164540152556
Ni 3.665167955057451 2.6543735019142947 7.458079186284509 0.48126757436992595 0.7454224560501226 0.14852028833231196
Ni 6.3756378935065765 5.755921477009534 9.579127704228894 -1.136848486875868 1.391688776023358 -0.2780835759461469
Ni 8.249379334639027 0.44512663840651573 2.2032192571418676 -0.8416151386233118 0.539551911933116 -0.6166970909565508
Ni 4.3357882145659286 0.18102713392779265 1.8446483160839635 0.3379586550352244 0.4204350164635856 -0.22650416120695832
Ni 6.2902019346910425 6.0347883889391545 0.5375794428461973 -0.6705383051467226 -0.03639627924084699 -0.2340367221385776
Ni 8.132285894395261 7.973487441142846 0.12035500953244982 -1.6325054971982464 -1.1714843317821824 -0.16090992024591644
Ni -0.12073646895121604 4.840208978032053 5.874751561449261 1.172048946036401 0.713237643787462 0.39647130655913654
Ni 7.023197197244188 6.230199645734395 2.898762140397966 -0.8578799372216065 -0.5439233015279342 0.7568728639789094
P 8.574514171285028 1.76905912073371 3.8002100647947423 -0.8195879836199433 0.5939320293458932 1.1072831145139252
P 1.6468825968475347 3.5264098100253856 1.762665568848839 0.12636534950182754 -0.09182077875773866 0.7604533822413161
P 5.089398712214598 1.3612078206499814 8.744182392807598 -0.09943432943893843 -0.5994444745236902 -0.8671821884591387
P 8.724250681885891 1.8549878740136796 12.45419555671096 0.4659160316145201 1.0216504668447697 0.18323815142947153
P 6.570410342662735 8.044632360489771 1.7749005603019459 -0.0592238186583238 0.029760519091884225 -0.34000139649686606
P 1.9053624192670175 3.357910606482336 6.29548304870157 -1.0823444422907167 0.4313110399461411 -0.6744360975392321
P 6.797278312771065 4.234400316420171 6.314222927085216 1.7050152343321994 -0.6477526747107747 0.7050741341400631
P 2.7404573941923265 8.818812464116887 10.642297083118057 -0.5425901845388075 0.3095559355228153 -1.6269866242625464
