# total energy = -381173.36134124786 ev
CRYSTAL
PRIMVEC
9.14221686639165 0.00000000000000 0.00000000000000

0.00000000000000 9.14221686639165 0.00000000000000

0.00000000000000 0.00000000000000 13.38055849340312

PRIMCOORD
 96 1
Ni 8.424680768731022 6.682055398557453 0.4954148997425762 0.7712214193910976 0.8881001695587285 0.6151045496584503
Ni 6.991199459520867 2.699248651294069 6.493825382718866 -1.8651635938217423 1.037001238269227 2.9897576888102897
Ni 5.1375052974902955 7.010544390261621 1.8767435190171438 1.9324830450040074 -2.2722540706576226 -0.46673081420633167
Ni 3.3284342956419644 1.1074607160409606 4.44049903206149 1.710359272252932 -0.5752653061743254 0.3263223563478767
Ni 1.978668265634589 0.589644642482662 0.08989450353532911 0.934664390471513 0.9615069645856538 0.5378660395902608
Ni 0.35696699702432244 6.9483224627467015 2.684795720760961 0.31680773198922213 -0.40310680959778317 -0.2924290460345415
Ni 6.236628311813124 0.8695793207822256 5.042276310454386 -0.32828873604562814 1.0588486731616218 -3.021019989258681
Ni 8.607168558199918 3.9908701824776296 8.229338108224994 -1.8270032807019374 0.551316765778528 0.911034923978031
Ni 3.8576406571066455 6.20822344422734 13.588759747782825 -0.6700420822365943 0.7583414781046359 -0.3350887896865971
Ni 8.125456012991483 6.935166812776973 9.40693425463966 1.5452430272351516 -0.33520371799790655 -0.1950343727334512
Ni 5.5653427591187405 7.020683108688604 10.405137251970947 0.8515282839719657 0.3518246143840392 -1.3166323612081519
Ni 6.935313088245713 3.174159387206134 2.3017103245715824 -0.09578696249433827 -0.1594618749454802 -0.31634287653766163
Ni 9.182625394436561 8.923964654621749 1.2855629841127205 -1.2168817860803751 1.0212226352787317 -1.4912092374181993
Ni 8.917894222669073 -0.05127869400987104 3.897221884725782 0.5396007628931804 0.5376636937714676 1.1049526666085356
Ni 8.152708961260947 2.5080848980855825 4.741829240329195 0.0953079659753907 -1.789776020919363 -3.512414881870596
Ni 1.4248327721209522 3.05891260227327 12.907007271078475 -0.7184780662507949 0.4189378630927688 0.7927145562678669
Ni 0.2549855686627408 0.03647378813010903 9.631915067777284 0.12731305812707752 -1.0366685375201565 0.017625426391247066
Ni 2.517766505672755 0.5734126365610136 9.019927761666393 -0.8613470698346005 4.186384067075738 0.519309359633996
Ni 5.37269796678927 5.431884678327851 6.150534227799975 0.14964874550980034 -0.14269751100294778 -0.36662491262166536
Ni 1.3944531857071885 1.4316345814173232 11.261987864307827 -0.6549185963315947 -1.1711110076031637 -0.7372136949870851
Ni 4.057334098585985 8.814605457305637 1.3656862863362738 -1.3319453374161383 0.8041497946880021 -1.3552511020216145
Ni 7.673437387937096 1.4803260280738704 8.962217518140399 -2.2314622334522407 0.003578975600509965 -0.33903003372253226
Ni 4.851353911769318 4.230021431649357 1.5874289262846817 1.1735368434358369 1.08097944362239 0.38975532799154167
Ni 4.247272794743781 2.6542872290903707 8.264408566076886 1.0098961545223188 -0.12193636719619645 0.42707977547361287
P 1.128085557133182 0.37322551537467985 5.798545167821182 0.7579563268510752 1.2897946721900173 0.7133831682263908
Ni 5.027707273767966 7.231447774708138 7.731313105587103 0.024882622174292632 1.1109225110387253 -0.09109007123930118
P 3.825231498564126 6.9764804904789885 5.152291004714786 0.2837456593279306 0.09727306012156152 -0.3419014417330563
Ni 6.706702815040002 4.256131602819297 4.333347680101659 0.33045411912806316 1.250344179503879 0.5018250868063034
P 6.651209559087084 8.316802610535893 8.92610393335206 -0.21149251828947446 1.5986391834681049 0.6247891239360659
P 1.7736449117630668 7.6490550957416374 0.8770155999242524 0.9549077141015813 -0.7027943369669509 0.18605068117760215
P 3.4141974314070924 1.6803394471410764 10.898223629095533 1.7860206676419887 0.28371120654556947 -0.3384335377891139
Ni 0.5949827828699616 2.087524641026911 8.572762739509109 2.250657318323453 -0.4454536499951102 0.12788821390425714
Ni 3.3532645564604366 7.87374335794178 9.220823404654434 1.378718074795303 -3.368111202722793 0.6109018244310124
Ni 8.94559513956155 3.0212649535065292 10.771402797698682 -0.6203686262708671 -0.5504796145892131 0.2068020547923406
Ni 1.7275041435926586 8.070474721179151 7.6679301165390665 -1.1769985767321924 0.4032230234606733 -1.4054212951181022
Ni 5.089133828421616 1.137172920628602 2.7703906397370384 1.116721634219006 0.7086572235056311 -0.10670540917905494
Ni 2.6020760289672875 6.520082743579224 2.7953461489256184 1.5737771301191024 0.41405893773391267 -0.8245967496884444
Ni 3.4618192386984847 6.362050384040157 11.130925044317541 -0.20413582081408713 -1.8564609238414223 0.7364606188711446
Ni 6.781367299614545 7.80678576212643 5.10465639831988 1.4231747624467814 -1.3246112656485705 -0.31182930493802424
Ni 6.5039193042835475 5.654598221700016 8.20790235250295 0.7082088231143029 -0.8159434448888204 -0.7810911130963257
Ni 5.118727184190907 8.067192665349316 3.7604588925630673 -2.1272032289311493 1.03513616003603 0.4431733386013658
Ni 7.337186654172956 5.4537345764707625 2.3441932918018313 -0.7995840296941906 1.4592072305903063 0.6597751530929475
Ni 1.3804655940090065 2.0919220473058817 4.25383964906849 -1.144733031830267 0.7429968773277655 1.3660589912703958
Ni 7.905146872636718 5.07164476769049 6.166697667095652 0.3753052140044827 0.38847568994816967 -0.6576974446283125
Ni 0.38681999175062537 3.054414631609541 6.327425152146239 1.06413588970249 0.5699467221748894 0.3264390844313991
Ni 0.1696292615450441 2.203850207541726 2.2354630790012973 -0.7532067279812319 0.2839354067412336 -1.0349273864593336
Ni 4.915294576041923 0.4262375736891099 9.622053358519224 0.9946029758086743 0.6943055827696494 0.2695166602127423
Ni 8.149170923360819 0.5220013804075977 6.400523574983594 1.7333462200664083 0.6115980791670886 0.3666799342293169
Ni 5.25592443165144 0.7009246195476561 12.259240985313989 -0.08891311819264042 1.6279549017130865 0.05417468627019057
Ni 0.10656259319815616 4.628466666278027 1.3437824491142645 0.737245319555969 -0.588026976715368 -0.2492784787889965
Ni 2.4757123084102473 2.0266374771642366 6.9482026997066715 -0.8968344641079329 -2.853731933400563 -0.8599936411304996
Ni 4.648131574606648 5.435047885339336 3.8888448714754262 0.2363203759664317 1.9173623873124848 -1.1359498863209985
Ni 4.455130235822125 5.017550270907391 9.274787167737347 -0.2614446818378852 -0.08094449816486704 -0.7377945071912196
Ni 0.10987756100845732 7.59185224524783 5.862463890773475 -0.5296151124353782 0.11872428801680199 -0.5513278215221213
Ni 7.814053824479407 6.876866896267623 11.616251507825515 -0.33508827546596487 -1.5681911513908928 1.0134697308061902
Ni 4.740888506220866 3.27670763300908 4.114749048509463 -0.746276833630618 -2.6462009708619973 0.5329184657769983
P 8.73014051632557 4.8591796493468635 12.389393240511371 -1.6145802801783933 -0.7727152303278046 -0.5871281190501824
Ni 1.386728012514402 5.731155145151373 12.814614199692745 1.82291805488897 0.8269379962271114 0.04640789784057814
P 8.658502105510566 0.949199801081988 12.674613948562497 0.29835029661498297 -0.22453006819972302 -0.010143259081588984
Ni 6.560034230978607 5.3831109517201385 0.0758959411769917 0.17733566990210747 -0.31092787616967743 0.5376418393945966
P 8.227665996772968 6.3259386276951775 4.19443078166176 -1.061629321230552 -0.4905158324410714 1.4145980765213637
P 5.851302158286998 3.2825037984578693 12.928108421665778 -0.4079196576053942 -1.1903472301249562 1.1464857528553158
P 4.669816912847227 1.8488670715621787 6.098564382200312 -0.9193313596588683 1.0874462822936564 0.3942141350938437
Ni 7.476797446867686 -0.025424504910224882 11.047243591316908 -0.5825178739716806 0.5971099128532426 0.14055423940769987
Ni 0.5269848027832049 6.0336436722871545 7.533749800621277 -0.21141847051842944 -0.010826144081226516 1.2264632591212234
Ni 1.8712563604960661 0.09749991368808571 2.6927841897974782 1.3679304972614956 1.004386023337367 -1.739961925610713
Ni 3.4177720381744052 4.114546091296588 12.754816788072176 1.4497021193133484 0.3008704919336754 -1.0549519092103767
Ni 3.4333960866791067 8.66421599100819 11.61246480162853 -1.7743188058240282 -0.0474345393328796 -0.13591596930474012
Ni 2.5379799470091475 4.584099488166081 1.4176698452611316 -1.2216655806222636 -0.5667693528881723 0.2249018497168449
Ni 6.028569741965265 0.36270099539889744 7.192425136535249 -1.137324655181338 -0.020331512468500467 2.024811102415468
Ni 6.681927407522306 8.417147582090955 0.12305698074185543 0.5391533909431165 -3.054589340573694 -0.6471060422657114
Ni 1.990443440868091 8.022798060586982 4.4911039446934815 0.9852343901095808 -0.6927315534143101 1.5988186464687626
Ni 2.5895969030404777 4.216838355029241 3.6902640377801843 -0.44804712175389927 -0.6314487953444287 0.4319023936732368
Ni 7.431159500621069 7.4101232597730196 7.157822760183321 0.34937255329912087 0.12017644708229626 0.5629921452339272
Ni 5.425375419968959 4.8630010959676735 11.583856976829868 -1.7305380611936518 0.15253969390435018 -0.6084852445697198
Ni 2.700482850561556 3.9266643939179353 10.614609208535498 0.03027422550350915 -1.361014743978269 -0.5170663292360902
Ni 8.143859295402228 2.929486239089504 13.483053780298473 0.21072478688551452 1.096845721230685 -1.408573981814471
Ni 7.381818956571992 8.128308384631897 2.4450026879701405 -2.2300285863295075 -0.7225774331311491 0.47584203247898044
Ni 7.088308086330075 4.7344523855963425 10.124626614013224 2.269133008530137 0.24576275232625416 2.414230644334145
Ni 3.1008845195846124 3.9639463540128284 6.122355172969056 1.319000347219696 -0.13124144664720624 -2.2316784632281053
Ni 6.834785272354726 1.2531876517723468 0.84338686966112 -0.8239426610442133 1.2237497168448022 0.6280518538477377
Ni 1.289738234523544 5.770082704269581 5.264232878275825 0.8772231176349085 -1.2674502430565462 -0.730948945024296
Ni 1.3630588132290467 7.047780639272532 10.515807443175635 -0.12900844355162944 2.509816546561271 -0.9340110731582302
Ni 1.8791826624583692 4.10555014996913 7.990535177513201 0.1128212922688057 -0.7945248700037284 0.980540584178337
Ni 3.1348112861153004 6.063858698798587 6.931289598633706 -0.5967877536271334 0.4257589997796603 0.8205521473054256
Ni 3.7974025906365014 2.371710450136706 0.7921026903211713 0.2940537261221581 -2.106841377445346 0.010782949548116913
Ni 3.8249755164938324 8.818783450381497 6.436316267962386 -0.6642236757826044 0.04826320588176204 -0.2700663620686252
Ni 6.695156195226405 2.3908085410239623 11.033206631648026 -0.773475762642913 0.1462924274430577 0.2474385973667803
P 5.14574243482367 7.51167500394518 12.407136454869432 -0.2991244557768461 -0.006350881918692288 0.600433835020153
Ni 0.0814452667722835 4.3163331004222565 3.7572737442312723 0.10192855661570187 0.4664109689730677 0.10239906849421718
P 2.3414679969748855 5.862062547456122 9.016877003921502 0.47478710885190495 0.48534354421151243 0.618596879082425
Ni 0.6981755549570395 8.12120488218125 12.286750829875425 -0.6943274371465203 1.0436922771361572 0.8131733383428512
P 2.273001935388163 2.3538648429505287 2.286309346156708 1.1140595140058103 0.2011479418303568 -0.13380792182280182
P 6.30335735220857 3.571534982469649 8.638648867515943 -0.6055279617136088 -2.0206505432798747 -0.7120904175568962
P 7.500320370684303 1.2001262254872171 2.9399760186414605 -1.700888613758335 -0.4959722275699522 0.5480967161793335
Ni 0.6644042061118864 5.028511788846031 10.317307060988199 -1.3579551312163387 -0.5204522149891875 -0.4867648500390714
