# total energy = -340872.9319654753 ev
CRYSTAL
PRIMVEC
9.28175988797695 0.00000000000000 0.00000000000000
0.00000000000000 9.28175988797695 0.00000000000000
0.00000000000000 0.00000000000000 13.58479381072273
PRIMCOORD
 96 1
Ni 5.648591260060768 8.0217423157029 4.8391484824164035 0.5110219228142231 -1.5686624346003566 -0.7902180150982584
Ni 5.877460892412364 7.792362186564082 0.30511836066715786 1.1879831007681538 0.6275337765607386 -0.45136564460417106
Ni 6.252536804624547 2.563046578729216 10.852171332587773 0.8461078842873427 -0.9493160789464167 -0.7089894100340692
Ni 3.0016190095121367 3.5078461872417197 5.147971193406844 -0.3013870265587777 -0.8185505434943644 -0.39588920880342143
Ni 5.653863299608814 5.392219773517519 3.8748859518470393 -0.6181315094102322 0.43791697529843293 -0.355157278301698
Ni 2.9608906476515315 4.580464909515023 2.3840088582183716 0.03887199447484918 1.3532404993494889 1.818664936039571
Ni 9.670943954744846 5.182563383885032 10.716785728264353 -0.8758956570727368 -2.008327245827832 1.4854221984227773
Ni 7.434039850732573 4.111819577084801 12.232495241975489 0.6128376080011446 1.518052839973605 0.746241095296676
Ni 1.6507238476438455 7.33570888775371 10.979162513377295 -0.10726770944042817 -0.8354331781823161 -0.2304307499548741
Ni 7.241963114100083 9.584437953710014 3.4342631803314365 0.20546970913416227 -1.3675258056239095 2.2321451184518786
Ni 3.3370896527956044 7.627202553257882 3.410041500041684 0.39531816679129983 -1.9545819337855759 0.3123008452578041
Ni 8.734962018011643 3.873120561139226 1.0451948348636997 -0.8602206695396412 -0.6619045407311246 -1.24211227851239
Ni 3.599698481902738 3.494424762617646 7.5827735537778995 -0.02749512009647523 0.483085087194639 -0.04408901989941439
Ni 3.5968211363747553 8.4601198295307 5.798736718766761 -0.9636489506293211 0.1671985814681056 0.2212915066577673
Ni 1.6658159890261024 2.9842064281879583 0.19953648695777862 0.9239086946169056 0.004903607949204458 0.10100038837447767
Ni 0.4050754879573196 1.5452088026047932 3.533404440938019 0.35921807863463295 -0.9664295986982517 0.01328077626930616
Ni 5.875288960626726 0.8474395176053401 12.556669055445704 -0.2610811278508794 -0.7921759101555775 -0.33939178793732516
Ni 4.957666344714006 6.192465255408084 8.779879238055406 -0.28213871985212696 0.33445809808113364 0.10230393767724962
Ni 1.2999661460229999 8.062303605887687 6.762577857442671 1.5964869130117925 0.19541412467037314 0.7880783430474363
Ni 7.371564325736279 6.750540343199959 8.917751425820587 0.5117004369384865 -0.6820558188680189 -0.47529618727783945
Ni 5.3687926118638805 4.6551273850862875 10.668125174506283 -1.561003375393202 1.6182428166316454 1.1777321124641071
Ni 7.649515903739398 6.417631465612374 0.046043097503582084 1.3907858045931145 -1.4234709535309613 1.6928441461873038
Ni 4.6312546989638 6.469711419668858 1.5615446997959204 -0.4516852327271189 -0.8270886628723626 1.0534917797250825
Ni 8.579724585897099 2.5543310063073594 5.489044306886086 -0.945639658536094 -0.8149911082778803 0.6172395937235822
P 7.594605012953768 5.398076563930928 2.4898886764162937 -0.99250726962191 -0.8816500430580105 -0.20090034459592496
P 3.5208963414750856 1.3767727081005994 13.440591457993909 -0.20093736848144747 -0.5253591653725016 -0.14806160352833855
P 6.015192925605054 7.883926746672302 2.6220553664522788 -0.032410555120221604 -0.25860155596213524 0.728183723574333
P 7.43208139942159 4.437999178840815 10.090621507168688 1.5197932197034794 -0.26034656367770004 -1.3454374583653022
P 6.4504146411118395 2.552539626672196 6.544447221142287 1.4371237684277056 1.1379975128786466 2.194056539110273
P 6.095665782790888 6.373570951995169 12.29308378521101 1.443458966617114 -2.164294477356492 -0.5534350976731114
P 3.188043154446106 5.5735575140987965 4.893962842900448 0.3513875268466206 2.134616490676085 -1.426797703911349
P 3.72895626842753 1.4703792553577106 5.282609616068964 -1.999848004712227 -0.3983952630547268 0.19336932632620246
Ni 5.457526235242955 2.806117303525371 4.741840369363938 -0.05595029011337461 1.3888142826890404 -0.6924042519818785
Ni 4.970707217187605 3.01103071391657 12.939257624013852 -1.268403865219067 1.2573036415408476 0.345643682384308
Ni 5.752194262587677 0.3658934672740109 1.3342873091159715 -0.2812241784576576 2.679863396111449 1.230994057112041
Ni 7.397284082052536 8.49365482757135 6.303887212363292 0.09341332005583913 0.2574414742157631 0.6605886501331784
Ni 5.414171135368096 0.698139627214184 6.315203533872054 0.24508886618768108 0.41135413720824 0.3825037886354509
Ni 4.652110813161791 5.18032647978102 6.424724586426839 -0.6420314559562814 0.08342201317108212 -0.7755269887449869
Ni 1.1458518068403452 5.088437058080931 4.148102904192662 2.2265789372180107 1.3432605053186415 0.7198721183848441
Ni 4.960552972001757 1.865513050427862 8.838687539767486 1.0756184364207928 -1.8606716194886601 -1.0653954731412039
Ni 1.5154607625493606 0.7982619698282105 5.629158039635165 0.35402007937346125 0.9326147070313356 -0.4549235371587585
Ni 8.203646243630006 7.030468936033595 11.369725041761862 0.2738322568689606 0.36382678105123795 -0.21544584651026766
Ni 7.937194765979051 6.727790750009362 4.137629366470804 -1.0190796207937998 0.013978573667279153 0.141162305305344
Ni 8.215749658367068 1.3046441529459132 1.7624910860624103 -0.6508950769944984 2.2545329992287755 -2.0287662304084737
Ni 4.221492850499776 7.2022743093334585 12.51274962457697 -2.2793539149271966 -0.015404507480528308 -1.0575497518445398
Ni 0.7556308472152298 7.585248999107941 4.503902457719314 2.0903508359894905 -0.19996754836901046 -0.9160794283804738
Ni 8.809763719979424 6.649155681257527 6.716294362361105 -0.5677972799320544 -0.9046855847212355 -0.13291369214330656
Ni 8.403835238299454 8.007559786777877 1.7904347520190051 -1.0711753130477744 0.2932813667325078 1.1093536238897088
Ni 8.967108111561233 2.7258857720934953 9.946134209217078 -0.8864731754782669 0.015325060392844574 -1.2942498797478936
Ni 3.9007430782078587 8.698382602767193 9.975015332910209 0.29403058619370653 -0.44586965448660637 1.6944680549439721
Ni 2.486128635534404 6.505910282762833 0.4176142172274863 -0.5094635771881677 -1.7035903289602146 0.09702186334270388
Ni 3.3018560927174687 8.592561259655808 0.9567257416380027 0.941115031192863 1.326481743198406 0.8233867885407433
Ni 7.005083323068974 4.905493573059845 5.865683267443147 -0.014750675946613305 -0.9793553056209844 0.07028958955418217
Ni 9.11046489117314 2.268211479708677 12.258225208227488 -0.10478299534536148 -0.467137305616131 1.0656469270303777
Ni 3.9271496847469245 2.3329888811273567 1.8917368062995046 0.09252860345804065 -0.662527004806472 -0.526959419980086
Ni 5.7533080737598 4.068325250813425 1.6764315376724046 1.034153741518103 0.14243911513523855 -0.11282206359975408
P 1.8049217226644092 2.8637106228838616 2.400338258177661 -1.7491944999525746 -1.5420764565817118 0.42781973896343095
P 3.3429093161699432 8.544286827104074 8.027784741311663 0.2730925504894587 -0.5559203259888102 -2.152785448275628
P 1.3320624712996572 8.090418056224006 2.0149233937602538 0.833063649508875 -0.42850802327970716 0.6020109496992858
P 6.03021081290917 0.4641371817110578 10.246588485600974 -0.5158643385081889 0.5507377533466064 -0.4672915718058081
P 9.548331908213717 6.688482497393212 9.296916881386412 0.4939531402573945 0.47716743615862334 -1.0101586641550862
P 8.89300254157603 9.243658143839431 4.921974265703347 -0.604146765095366 0.8252336119414948 0.11130948360996959
P 3.924365156816619 4.67312471727583 0.5691649343623062 -0.3231969233450176 -0.19910957124408935 -2.1225590452909184
P -0.16910623755942078 4.603947761727269 5.678946327205008 0.6153133232351468 0.29928823504822005 0.7978981573513355
Ni 2.5434063750607927 0.4386253368135966 3.224825840229468 -0.7260548501567883 1.126091248359364 -0.18406656086803785
Ni 8.661552580009017 4.468359815040914 7.8206297859365685 -0.2756957924402607 -0.3785324626925287 1.053072947020109
Ni 0.35390236183013757 5.892283862761358 2.052987890567533 0.8659999952255796 0.901591519176944 -0.670516964990484
Ni 8.196360062212372 0.13775245306417822 10.542356401478164 -0.831856002354019 0.27899503201682274 -0.5667801515214497
Ni 5.705646237352733 8.590918388176927 8.221666780218968 -0.3963908310301883 -0.407847152496246 0.25200719057406923
Ni 8.004292607339652 2.506075137275161e-05 13.387569405321004 -0.32781179640920965 -0.012049474965366345 -0.8368480562519717
Ni 9.045724616793532 8.66166396112623 8.397644304534406 -1.051543654859776 -1.4128615534462312 -0.09017578695514793
Ni 0.5108105107028658 7.5766076807642255 13.472596822024844 0.2547646987145484 1.0188577345909806 -0.8820097403902745
Ni 4.911638098026052 0.721758921295014 3.6674460464470764 -0.6388628284203126 -1.0360622713947254 -0.3016132836369709
Ni 1.7842141166227024 2.7939303529503996 10.820966984424789 -0.017945271624511032 0.0005964959334183276 -0.646667669176712
Ni 3.7259675417823352 1.6431592134331814 11.065357575459908 0.8098946675915795 -0.7471669495450551 0.8874951889848779
Ni 2.850344888818394 1.2524528177722163 7.725251350739806 -0.41943357178226476 -0.05422816521594531 -0.3745832482367936
Ni 5.932631672471489 7.642053368886178 10.690974082526395 -0.13850249908499374 0.46108312900225107 -0.8770200004851669
Ni 1.6526730171950592 0.22283091944673963 9.802270645521855 -0.7260497079504658 0.9740524053508322 0.32908012159867195
Ni 8.990396046818358 3.670499745410645 3.3635677288848815 -1.493715805890137 0.19530896655107655 -0.5986075804446918
Ni 1.0340344469190343 0.711695637354889 0.8631210507328452 0.4397411729913653 -0.12667671009465928 -0.11451513503146085
Ni 2.6227282940354355 6.643744415312967 8.566027493007924 -1.3046888156930305 0.47560112011276806 0.7525169010030589
Ni 2.432164484245079 4.548387147757902 12.047293504802923 0.6829011975874496 1.9257493258245992 0.9547051111724718
Ni 1.6108215624025644 4.455820157594771 8.798245984283703 0.46870902097862505 -0.5372039805262296 0.9721623874169709
Ni 6.064200617178434 4.071202596341408 8.342286032927975 0.5440978794325856 -0.6431154330490795 -1.036753126814163
Ni 1.8349574972726406 5.611464220990025 6.69362180777658 -0.2472750752057225 -1.0665622397557952 -1.7210437485499714
Ni 2.5009423241236304 8.983444008752361 12.319017022001924 0.2730339293373814 1.0765697445904683 0.08917279961193028
Ni 1.3850984466122136 2.9573542971800437 6.87010147529545 -1.3414869583579865 0.3154149654067535 0.21562016730460284
Ni 7.383036580809139 1.1437726926523835 8.138418676862594 0.12348648529213573 0.727671816934921 -0.24801401025427613
P 0.41749541070245993 1.3469411322072573 8.158035676131599 0.6512822851305881 1.5127795073898076 0.10021800168249836
P 3.840922136505124 3.355922343364239 9.684654042097694 -1.5092324134684976 1.176053953430736 1.124593837878231
P 0.30029091741198455 5.400721865464719 13.247156799907408 1.2723433094827894 -0.763274396629879 -1.2325200068382645
P 0.41459671712701174 0.17903493598291426 11.973813525426063 1.010204429791357 -0.31585770937112695 0.8891550931858043
P 6.252583213423384 2.188490445064024 2.7217405381812467 -0.004459578433250384 0.08261545810938675 -0.020942663689938128
P 6.932258635931712 2.573934082936711 13.682876017737744 1.2304222437689711 -0.9635597333496243 0.07289565971846156
P 6.154066615249167 6.560997526984048 6.973155925820089 1.3569703987055661 1.5626036300007862 -0.05748575292129454
P 3.5654859153990484 6.313517966298242 10.522455380360269 0.2246066870739293 -0.15167991700721617 0.7432555303057908
