# total energy = -340858.11207751237 ev
CRYSTAL
PRIMVEC
9.34049305509554 0.00000000000000 0.00000000000000

0.00000000000000 9.34049305509554 0.00000000000000

0.00000000000000 0.00000000000000 13.67075573763846

PRIMCOORD
 96 1
Ni 2.3870284069227847 1.854097229982273 4.836289717529697 -2.9602789626248827 -2.534841093630067 2.5842576963899817
Ni 7.255162667735279 4.48162465442932 11.55131034761572 -0.5602490352711512 1.0966639442371824 0.8007893628562015
Ni 5.761533749245018 5.419839828976548 0.24033742699283564 0.389108181325846 -0.49944295972737207 0.07826360889859424
Ni 8.817220039013435 2.3613980937300485 4.552593721352939 0.3605229134889856 -1.3716208016288896 -0.18303811960352348
Ni 3.9062689576194902 5.58397097453878 3.4673134162706107 -0.7007881051701995 -2.470298690972307 1.2925740347073675
Ni 2.1101575090878395 6.425390618613586 13.892631985377667 -0.41456030285036344 -0.026136034965419507 0.6271797356554295
Ni 6.292307272268794 7.58390132401019 8.244668358246047 -0.1254001573750808 -0.16219932848130128 1.0547140821679577
Ni 3.683171278826302 7.190199537904564 5.317527803252074 -0.5977118081032997 0.5308659541233438 0.43646250224009353
Ni 3.9616113795097823 2.500702208510103 6.5890444649760544 1.715650088338226 0.1130300658455021 -1.0389696748495074
Ni 6.062895420108883 2.0963335792316986 4.9050264065914115 0.5382676459040536 -0.08817161204092556 -0.21694171432950377
Ni 1.7420206527229276 4.645410201745148 4.862660731828914 1.3597186508746646 -1.6864446704188631 0.6888605004946781
Ni 4.515129003344169 0.4834788700281128 12.673324010093484 0.23324713635774666 -0.4168544982011789 -0.5104064007174112
Ni 7.871037423812634 8.662074447857696 7.041451250504548 2.0989468051886178 1.1990684120480382 -0.6372592313786186
Ni 3.149240669119164 6.044718820446687 7.880384455303878 1.1778727518070295 1.2473460161075034 -0.24902085425223563
Ni 4.216569480424116 0.1417718730692386 4.286848284904242 -1.0222742164716976 0.6387095906718999 0.614915830686412
Ni 7.922204645266647 7.687309923630009 0.7631621903493314 -0.12971292581782176 -0.6310441037068422 -1.2450623622796493
Ni 2.7286195817666483 2.356484994335231 0.8752238228196428 1.0091646756729329 0.905568501546821 -0.08883418532558894
Ni 2.6932191127431526 3.8882885083133614 7.92758943956534 -0.696016137702853 -1.1443681922916809 -1.6682502588980235
Ni 0.5971900335880151 3.5009475980401894 10.931765711781285 -0.06844482303595954 -1.0290860971872082 1.270355332518483
Ni 8.868349898494863 7.829602996216797 10.291262877425764 1.114196553804307 -0.2874457338873372 -1.0718545985029864
Ni 4.098169389304902 4.3208560863996635 10.276088312260704 0.6299125612055603 1.0440969687737438 -1.2214408662059673
Ni 3.4790161201332856 2.4708780138947946 11.901937515529063 -0.8494672876778789 -0.1003756103062852 -0.6364506194343942
Ni 7.27330190542489 9.382245150403744 10.81632935913731 -0.5014353075670526 -0.39436660151130787 0.3835548556077846
Ni 3.021808321127727 9.002385975140552 0.6665301185069648 -1.56454661265977 0.49893953772839233 -0.2750776992402876
P 6.237637365885017 2.814346627861012 7.080891482813706 -1.7121808988427027 -2.108417463683214 0.4495998109529999
P 5.047098109490639 3.8293126345892583 12.01700491869377 2.1074098483543064 1.1200260160018907 2.867848575307603
P 1.5251624233512953 0.8383905221475451 1.7243064074714611 -0.04341899041558329 -0.18061228377085023 0.309959341608821
P 8.479579892770348 1.6478030983588126 12.66539486546181 2.2782426841408894 1.7323866843666165 -2.0794082209350573
P 6.086545548754659 8.81371735408367 0.9949315829793036 -1.8507900987088899 0.23382820567219728 1.2756140098142614
P 5.812355372452627 6.017556666378001 2.6812726220093666 1.5279834688237555 -0.0821518882094069 -0.5935813308746938
P 4.943895000720032 0.7257451088556058 9.996138787884824 0.4375901880866335 -0.018657724310503353 0.728141814592804
P 2.815579572956289 8.25258722833526 12.002513143577689 0.134430128787833 0.7246602838021068 1.2332939088898116
Ni 6.978646708639883 0.3902598143813096 13.013205874691621 -1.810622782461385 -1.2164141024153374 0.749100162012026
Ni 6.006749715808031 8.047115060108652 4.415066168369261 0.22863946238240623 -0.7561259585105559 -0.1069128972041707
Ni 7.620936379334243 4.301829501861178 3.8589668322293096 0.10037278209280778 0.0580681077873258 0.04977398609933363
Ni 3.4320334396086993 1.444357817144895 8.600696199296431 0.49898067537897284 -0.36812000910995313 -0.9045269476561841
Ni 7.776240758873465 2.789071253407825 9.129180367450113 -0.948205362380741 -2.223336776131629 -0.8484753560782549
Ni 0.8236904540343057 7.168165314573054 5.893709199656015 0.9933359361707925 0.5499903336576205 -0.09706300099328445
Ni 7.513651475058817 3.3114289921070186 13.704659231060168 0.05216459781869725 0.2587511941661221 -0.23068168962341562
Ni 4.114617997735079 8.261264546467933 8.21564557794267 1.6934133884272127 1.943177034382744 -1.5499694861765434
Ni 7.671440425774885 3.6937914195333503 6.103432226313386 1.937831453800114 2.4841379108482444 -0.3390140928829323
Ni 5.776310409402055 0.22398876183932018 6.553431966758144 -0.9387125923989575 0.39320214888956156 -0.2731640271573424
Ni 5.612160582853531 3.54447429610074 2.4755958969828598 0.31405022384874304 1.3360256781330992 1.1521473220164675
Ni 1.0486665059991624 1.6563683305737322 8.432259086393875 2.34439485448793 3.2942184691983845 -1.1346522505554975
Ni 7.795967880397903 6.5607437047928645 6.426321865780246 -0.005775726141512633 -2.1584555020772114 -0.18776097900048955
Ni 0.7687375307082032 8.582138507513877 12.871836576876976 -0.3748825246447673 -1.0057944736491196 -0.15113818557113323
Ni 5.9354350506380085 7.807774263734499 11.76317981959805 1.1907573210791815 2.4357183818942763 2.5344004065482224
Ni 4.574898818985685 7.439674769342172 -0.06242438379362082 -0.03690252945330418 0.054947302770156976 0.5492843087295314
Ni 5.868921398945051 5.082890879226268 7.245801625504317 -1.1630860804161582 -0.7428719217141271 -0.40914658803395987
Ni 2.0184525473800092 5.135617963035668 9.83541131802501 -1.8412129965434159 2.0236247954168505 -0.5438263709387537
Ni 6.472840323795474 2.297808016391802 11.478731913723038 -0.2643682832425834 -1.18061689021107 -0.5565276205555061
Ni 3.930423472895152 2.953379868339831 4.093284311389522 2.007046579343195 2.2516711042999478 -1.3630587709914912
Ni 5.289166329863436 2.9257973920795726 8.913073113727423 0.4740075503734031 -0.6015152410097899 0.39359475634228985
Ni 0.7469284132615122 7.973334504748075 1.7425838844596337 0.6874589921614612 -0.5670606588763459 0.17265549081761877
Ni 3.405328969704168 5.945121142030453 11.904972241752214 2.774028506731648 -0.9699905765766327 0.7600306928816007
Ni 1.9792037951803454 8.350933280669926 7.442236866612131 0.7521021820631434 1.7667296806228603 1.8218307353620622
P 5.386101967733049 6.385936375564709 10.666497574532352 -2.0429528063215012 -2.8085599648496147 -2.6510233319513055
P 7.741979830013786 0.3373403164131 4.72645859482266 -0.25125257179623184 0.3260786157681868 1.2658114219015426
P 5.643161679605241 7.127450104949461 6.275218840058113 0.3479671883111621 0.5242849584717164 1.394170404794631
P 2.062399567632132 8.053896258132678 4.050453480068351 -0.6282071484786793 0.4649032740792897 -0.6611033849860678
P 0.7133194508234277 3.0642235005038994 6.34048273376813 0.042228826762224045 -1.0413217200214517 0.15484905876381716
P 0.06024431269333487 9.380283646843075 8.913100201157546 -1.7681869818946774 -3.699070286511733 -2.8355544911605874
P 9.261528616984311 5.588790669002137 5.034556629343449 -1.8275311281809492 -4.168640369939073 0.01931618383010867
P 2.373802268627991 3.0386585707631855 9.78223215434734 0.23437430798365444 -2.0595078824667046 1.008337294675631
Ni 3.3820431202910886 7.369779859130348 2.383209079275369 -0.44427454208534456 1.8213800209778892 -0.5028779535508501
Ni 4.484865805550996 1.0044486114458047 2.0780364872079193 -0.9897816431606308 -0.15881935626547486 -0.6685714112283389
Ni 1.3202880466860332 2.719213705168585 3.0787087372747792 0.1634429710804153 0.44187158907080676 -1.786775543530142
Ni 2.2066821652590263 0.47779424589943226 10.207050859319688 -0.015090832894851428 -0.7042989465369355 1.9698180340090399
Ni 1.288745201331853 5.630505311392356 2.8333050267995312 0.7878505433073464 0.461590921876605 -0.8607035227133305
Ni 9.2872710160948 1.11060331605056 10.566154524763062 -0.2775207614641414 1.9139096528771942 3.1934515369909517
Ni 8.580933583898037 7.069062682293559 3.97579772049999 -0.09873807470286221 1.855582892111843 -1.1662498228561204
Ni 5.822555190968104 5.376742793600715 4.9598326841751215 -0.6405965232819677 -0.2657008860110779 -1.287339011560673
Ni 0.6103321074444948 3.7336940062532373 0.6902661796896841 -1.4151079262782467 0.49338261246590515 1.426329763135995
Ni 1.4775165678133402 1.4380716652576093 12.763086149226936 -1.0447173759665622 0.324867369068905 -0.308273726376282
Ni 5.093539041412754 2.9152519753176924 0.4417399423557143 -0.4762184419817927 -0.5236480962186659 -2.0691793441181976
Ni 1.4255647449350606 6.659454036360226 11.482272894674702 -3.00918134475254 0.5559087560245846 0.04209821472163073
Ni 8.914940278307316 0.7250903402860683 0.8606638621035942 -0.5522567610942941 0.10371007399615688 1.1391668505963992
Ni 8.460936268450851 1.5720516989444207 7.264256571862265 -1.0755212487212962 0.776230699680231 -1.5641732884807513
Ni 8.103326147861527 6.682347585061172 12.066807494099146 -0.10920580700340547 -0.42418239932115975 1.2749514365295977
Ni 9.343482103847675 4.6935044009541125 7.734544797469538 0.0679982224168442 0.28928921485397924 0.44258558441869583
Ni 3.183660386362325 7.56290389541789 9.994060528159832 -0.28416526336385256 -1.4432795036164563 1.0693613997674876
Ni 7.508392777417595 8.648446668357622 2.842300855748483 0.21496582155005556 -0.11362604755828819 -1.665281406077687
Ni 6.631021575223678 5.509387136767643 9.219941005300878 1.1084696786228587 -0.673800263727446 1.7854452547544928
Ni 8.355556824777217 5.516523273531218 2.1042851410469234 -1.2411159760373913 0.12673944501179463 -0.7361806257368805
Ni 0.73425243001302 0.1965473270255665 6.044730029038463 -0.8363263794205468 1.5047270693989763 -1.5174198343752963
Ni 0.37937160152096966 0.24154608680593337 3.527096308602531 0.5724802872300205 -0.07689423935489338 0.3667686372883812
Ni 6.62893864525211 1.3054927055427044 2.4441670056450615 0.43715721431427296 -0.22793446589558164 0.23960187493118093
Ni 6.804932217109814 0.7357842708889707 8.824458921201618 -1.2110795775763012 -0.5236205854148401 -1.7169659789361722
P 8.416905183760413 4.421425176103086 9.836832941081838 1.6359394625804602 4.335082275746812 0.22705720549695088
P 1.1092115825717999 6.632740225962549 8.088931513874163 -1.1576674805037481 -1.7598856611178335 1.461584215462915
P 3.3708251880226934 0.37636676487588827 6.369970670630181 0.3326498412278013 0.3579512961070674 -0.15764230523823816
P -0.07126049030977555 5.93783555737654 13.938703033771201 0.8239565450012842 0.614681860298735 -1.16906775192089
P 1.8659970182503292 3.7412317842220926 12.769975696971457 1.1893375579135195 0.41681721720534026 -1.1693258906782829
P 7.789149320401293 2.941592165989528 2.1090693416363258 1.0734419975947644 1.8182797847860104 0.7658858661107971
P 3.6603337730842322 5.039933951247625 5.931454132459166 0.9626508483821099 -1.1763375461094259 0.0912538505106751
P 3.0366877267093706 4.109256554669252 2.1582974767132197 -0.5780189576600625 -0.5907572311623374 0.688176587053776
