# total energy = -381167.82500601345 ev
CRYSTAL
PRIMVEC
9.24746394319902 0.00000000000000 0.00000000000000

0.00000000000000 9.24746394319902 0.00000000000000

0.00000000000000 0.00000000000000 13.53459822885662

PRIMCOORD
 96 1
Ni 4.8715361836621875 2.4735671000842143 12.820377711303554 -1.2567881353570096 0.9830101287647522 0.006515432521014585
Ni 6.629118399587902 2.6687533183591055 5.106726005558406 1.5173043918433546 0.1024728591549461 -1.1805114749814571
Ni 1.5016863978510109 2.1726453808023063 10.559436621461094 -1.4092375835403987 -1.100424696831195 0.30070928376546274
Ni 3.2992638946806396 5.902785603445247 12.738560775396644 -0.4088272570213282 0.2476214028015477 1.5925659806908314
Ni 3.6792236869997152 0.8609028140020414 0.6155398571873503 -1.1472683966576112 0.4378753234272201 -0.8595313567821004
Ni 0.5587844729053435 3.7813896669827067 12.207273636079229 1.6238575917152613 0.047343265170653945 -0.17070093819440926
Ni 8.666094239085858 6.83349659687285 5.688862174033359 0.7370306324420016 1.3169853736721961 -0.5780395264853528
Ni -0.009586845714008602 2.5264995828342727 8.415230890807203 -0.6786725042180828 1.2796958931931186 -1.6625498660791365
Ni 5.682649727857347 6.455589741515778 13.021447166043432 -0.642850352313151 0.6351342146158158 -0.37159305526021813
Ni 7.8380855785412304 8.604950008487783 11.530381480358464 -0.49884312135984415 -0.14329992047363704 0.2561705779231395
Ni 4.812269188214053 5.052814216392688 11.236612674320297 0.583998315171949 1.4602598402245368 0.30084812333617217
Ni 3.469629920135622 1.0609985108045366 11.35474255104882 -0.047386716814079674 -1.7000054398224334 -1.0383140435433797
Ni 0.48215166520068653 7.599556497469427 1.6808208684743382 0.29694364607544343 0.8420607108011627 -1.045719077758199
Ni 5.1776457301318635 1.4688301589951485 6.2321811884916025 -0.5077861894857448 -0.1784726117200281 1.2557818055796826
Ni 6.694664422951357 1.5524642215373436 8.511705981572097 -0.3551840177745754 0.8721788703427817 0.11185378614921382
Ni 1.023768221574674 5.180734383038662 7.792801673094207 -0.7258465908007241 -0.6453993439872497 1.0561706121088261
Ni 3.574699603749557 8.781927970554626 2.3909003222547476 -0.4697384906844039 -0.8374908320422931 2.9679094825869465
Ni 0.8553339913060097 8.783370574906305 11.11153980177613 0.404901953824993 0.3894969321238324 -0.44456816206636335
Ni 4.357340206926647 5.017377935138632 3.0600236836431693 0.5236933476343045 -0.03658422688193699 -0.3756528271518885
Ni 1.4102197334763036 5.488388255961738 5.502896601906281 0.7215489918666348 -0.32427550112117703 -0.6471181264505693
Ni 1.2296167656026775 2.5920086163425555 0.7894689304417035 -0.24081209318919816 1.2565294823789843 2.087820356258153
Ni 1.3251615615100152 0.6879502729242091 8.52649914940146 0.5345711708890728 -1.212790132509505 1.2907344103954674
Ni 0.19298439714582244 3.850717903037421 2.562613703184343 1.7005412577212455 1.0295008161271237 1.8637643994813706
Ni 3.6147781118276057 5.263610153549847 9.077668335873422 -1.219145128193255 -0.4338937130716527 -0.27242997720479534
P 4.9212228066209684 0.14734538908915545 12.605542481961693 1.7694550499738237 0.15584099036344126 0.889022681372998
Ni 6.504610547081477 3.493053745922816 11.63310878139368 0.35089258948807306 0.5329812006941337 0.006900326664259083
P 8.205394840391738 9.091791987324184 8.403970254146696 2.7392764479624434 0.808965985129723 -0.0843758924439192
Ni 7.514442840720382 5.9315359683771 8.900798569132954 1.8644316007517248 1.1364183413169848 0.7515244551828024
P 1.1758427636474735 4.179603952828794 9.848152223148482 0.1895682074125574 1.1361895131356303 -0.00982289962769276
P 2.6950068680669 8.40337379273206 9.773157141281532 0.2885358816277224 0.5064687562259019 -0.7759692184887281
P 7.5291370606871615 7.786826886737671 2.4152350232255335 0.6617816420000151 -0.7416663314418002 1.647908462016878
Ni 7.7888150914531264 7.131311168320372 13.64043817671826 -0.5167688526003293 2.9778601660417556 -0.6514164967156071
Ni 4.344134828630511 7.857865903594057 11.311350676693808 1.095326199262365 -1.0188993864621936 -1.5274962447746918
Ni 5.757045574070524 8.51336312708377 1.2685439644385215 -0.4991778789914435 -1.4984150111380194 -0.41415098322708677
Ni 8.57794741421277 1.5613787766336147 5.917489070875819 0.9694120783653435 1.0254150760935246 0.31310200100286073
Ni 2.3159718221271057 2.835448100688341 8.504938687568517 1.2181362273127667 1.0947302175495792 -0.22471055964164527
Ni 1.4006948457697066 1.165864750215029 12.782913461239733 0.01322781154418367 -0.9609888872986547 -1.120592944248954
Ni 4.482439897115814 3.0878576249131555 4.35671970210615 -0.2642836939485771 -0.6672760894556831 0.17548447562598163
Ni 6.6556216308181035 6.848680932420647 4.473699194338847 -0.4429841054086951 0.6493097347852494 -0.8557886019102166
Ni 8.735135803762997 1.8566965328570786 3.6221427919922013 -0.641175021493257 0.5860112318369197 -0.6032782464474837
Ni 8.004345730072204 5.1456032680897685 12.349819591459914 -2.3181487763072077 0.1906547556085168 0.8121307560109498
Ni 4.4829300126968326 3.0703336810257764 7.798689533291091 1.7018988001904043 -0.36832724002475276 0.8061722244346696
Ni 1.4869089507100965 0.985169307703475 4.865214617413421 -0.24985826255186644 -0.3887096603358467 -2.25386322685526
Ni 1.4417258426184152 2.5917311924287714 6.402352092460557 -1.2003711900198617 3.0771091189427646 0.20293460141713437
Ni 8.180426688151146 2.0790980370742163 12.673229293193184 0.47639584809992147 -0.5056447176627098 0.34256478634866805
Ni 6.265258441732113 1.2362841869972954 11.081790710754655 -0.05020747409232644 -1.5532345300810604 0.5505688318689099
Ni 6.150959789252953 3.30429451498393 2.4297849827571443 -0.24647134835750456 -0.6159604699008425 -0.7848670351989903
Ni 2.2418626472915073 7.207658229393831 7.4415654280619865 1.4381792062754135 -0.37579295227417864 0.12046518196730865
Ni 0.4641699718555628 8.473284619005721 6.9193870405804905 -0.9237186900932864 1.3221818302714714 -1.0034426855874912
Ni 2.051660812000942 3.2451569840288945 4.098749677902718 -0.6229644120225013 1.2325259203755354 0.29632966664052834
Ni -0.015253691526244033 6.389202198947179 3.5217967128836354 0.35082265548208613 -1.2495975311458416 0.03758747133547075
Ni 0.45730927846767533 7.595200942023013 9.170028305250515 0.05072863670311909 0.07918663493349588 -1.0891329259674596
Ni 5.900667934236693 4.593816351036446 9.306240672679504 -0.5863007380528806 -1.4574707075151738 -0.6606423861892493
Ni 6.433932181313012 8.641958358586619 9.174427323776756 -0.6713289193688181 -1.4549384280116233 2.344427764608395
Ni 4.723807949572009 8.36424777342467 6.166931083969519 1.1599161673286087 -1.74892119168653 2.301300337291301
Ni 8.024995316721554 0.4017449675221828 1.4722526453448683 2.1865373479150922 -0.11828925736191243 1.3818458217910075
P 5.13291574776603 2.654576956364724 10.074152840273781 -0.6295502927701352 0.1561047855477892 -1.729230398125822
Ni 6.7270028038348215 7.163936220581415 7.0734377656658145 -1.8047190153824402 -1.0327087815414602 0.15953875093000267
P 4.905446633390431 5.604249729821884 7.346877872048243 -0.35332870973339153 1.3804846797774224 1.7715751816406198
Ni 1.405956652667817 0.563389709874164 2.1890587042881693 -0.2914952213663625 0.636938100593774 0.37220214959912673
P 2.5956798594683024 3.7906278833117257 13.197910969123395 1.0566097565287738 -0.03405837513628973 -0.4624234450802294
P 7.979839951021251 5.363473515048428 6.8345119683973 0.3537552557478488 -1.098193236397515 0.7804887036256365
P 0.022989194988931597 8.874458093265508 13.382672521464649 0.5101665167924634 -0.5823862334898229 -0.9729121210988018
Ni 9.093317818849998 8.849369723995608 4.2023980263316965 -1.5123298214468988 -1.0484346769171493 -0.9122322867202419
Ni 8.544360625717276 1.4591943017230378 10.255043404271364 -0.6485461171463476 -2.448520675865267 0.551912747491314
Ni 3.811712100759338 0.2548018431080147 4.683268917797078 -1.0629938056782466 1.261329474870789 -2.7532817611026004
Ni 2.7608210678803458 0.9932238486670145 6.611989322404476 2.502326923052445 -1.915158951903263 2.247520058246052
Ni 8.289389554021852 3.7319434780825382 10.23432168740443 -0.06091071944244349 0.7331462097859309 -0.6231641867381331
Ni 2.2432960041793932 6.494096180749049 10.795682503722452 0.19407149459954964 -0.06909325525323584 -1.1735317012295146
Ni 9.20275230537414 5.972714924646494 10.685714438537463 -0.2133100311141875 -0.35360356066133297 -1.6377700880312955
Ni 6.218641976752546 6.136496755880994 1.9900597566915015 -0.2110592874067978 -0.21439246554508884 0.1629770871875903
Ni 1.78169960149737 7.789000040728982 5.1022187917057895 -0.3254486954936717 0.8279358413640064 -0.18989962261004714
Ni 7.209073091354131 3.4901870321470443 7.345185586174159 -0.12749509223089658 -0.1410520049797248 -0.10541600094367005
Ni 4.5528778288256655 7.5777879677011475 8.722114449996337 -1.5649875568519307 -1.26416257344421 -0.8792244643356535
Ni 6.169279015026514 4.344439994935674 0.3772521349205399 0.33923469353417063 -0.7811183667898354 -0.40480913700087057
Ni 1.7694929492908575 5.21610593204617 1.0533693531754662 0.13707785082332521 0.6513977276625298 1.5918465860263036
Ni 6.369088965197811 1.2862112440146893 0.47722276699911753 -1.1314951929837544 1.8699126784709539 -1.5025807124799349
Ni 4.17232619882385 0.7835986404260261 8.726377530804823 -0.18080357384604992 0.07498185282352893 0.3573064634342169
Ni 3.8288199087760413 3.135149154749598 1.44226034602564 -0.02403647212391344 0.7995356929547586 -0.1287806438115395
Ni 3.7090375102677426 6.831212473316025 4.4938928810232115 1.4442444386328868 0.15523832378243588 0.1243514043955923
Ni 5.282216050700986 1.2250392710252356 2.5367624181515356 -0.4785416907983307 0.029645333670258622 1.3003161405466317
Ni 7.426453222731773 4.485103166688144 3.638965778124086 0.43727908460411785 1.6195610212224365 0.9557538641519605
Ni 3.444966934200192 4.437303026343096 6.318193698721309 -1.0610101995893146 0.2760408344845053 -0.8761933908188135
Ni 0.7241596421513453 6.440192714300746 12.710638983220628 0.8432583306536896 0.957824373527744 1.6101641533885689
Ni 8.559082588075434 5.488332771178981 1.1878339499476134 0.06029082647025745 -2.210802905330676 0.8657092034580383
Ni 3.38054910141946 3.268284890974718 11.128444165589393 -1.0138651664723959 2.3637506333067226 -0.3848334652098921
Ni 8.899648184637128 3.945606129015469 5.409237363866298 -0.32824065641651207 -0.3691170829158998 -0.0275020620750107
Ni 2.537060186485664 8.309280848640192 12.625059254296424 0.12525823248057782 -0.6006585494364494 1.9696203161759371
P 2.315028580820239 5.5220582716313675 3.5153271872141842 -1.129582549342074 -0.2473486087561353 -0.39437328637952723
Ni 7.223739568929533 9.257358579070697 6.49135523248086 -0.5537986516601172 -0.6204714703973185 0.9666424860400062
P 3.599233125191888 7.401050439692916 0.9603121250283951 0.20075173483320263 -1.9721829346967905 -2.05613176690562
Ni 5.902184518298713 4.83113401435139 5.72241474691282 0.2396790080260195 0.1843619806212696 -1.2124929129840603
P 8.194205409202436 2.9954662141591673 1.2267722457400085 -1.6549787386000983 -0.712040023934935 -1.1225528961888023
P 6.740541090827499 6.771140948517915 10.973405811370997 -0.23885316969061443 -0.6077784483106823 0.12348082886518089
P 3.1534591330593664 1.7833918873714547 3.0099727106109517 -0.25913120321336014 -1.1797843670074455 0.1788449074577823
Ni 6.296773798338019 0.31548277577007033 4.534807359828131 0.08973715675583255 -0.5503680287120134 -1.905749485663905
