# total energy = -340857.2375996911 ev
CRYSTAL
PRIMVEC
9.39513087159992 0.00000000000000 0.00000000000000
0.00000000000000 9.39513087159992 0.00000000000000
0.00000000000000 0.00000000000000 13.75072370496862
PRIMCOORD
 96 1
Ni 5.451768857897211 4.924298035411147 9.115326789536512 -1.4015319873660248 -0.9999521559357296 -0.37253330768630033
Ni 7.214577229787922 2.5532489024683422 0.2832810411363402 -2.4435813295821207 -0.4285370767454297 -0.4524131120320789
Ni 2.7407193403125425 5.736732566940633 10.374027210434953 0.4282745671126624 0.8835886548416203 -0.7588253597195899
Ni 3.1677092400390734 0.637191856281969 7.148052188378319 1.216775342409498 -0.22784344884367214 2.0041607731549678
Ni 7.135695712491144 2.054010447714153 5.172609460595805 -0.5296174264282234 1.3368504880272396 0.7929076461152796
Ni 1.6230276174431806 8.893515269983977 0.9702445417765045 -0.6035772657451411 0.7059999883884421 0.7039053106429425
Ni 8.171847096077665 0.15620344289855007 4.4338797293513625 2.2198871270201317 0.17339519719712074 -0.17736060960277197
Ni 1.800915021980721 6.897801608218668 6.962705989583762 1.2973601432421014 0.6016203991290865 -0.13582520936314674
Ni 8.747796792938594 6.817003484260559 4.758492768944552 -0.45971478789981474 0.6395081753137954 0.17216055345907125
Ni 4.689786178188081 3.235391761550029 1.729304396327104 -1.9220441090588702 -1.7537551227400636 -1.9262416920799856
Ni 5.365465187353119 4.500925261001346 3.2913735872961682 2.9082670883339654 1.600112939800154 2.0638486759339036
Ni 7.29379697178964 5.571472218054221 10.565822226937048 -1.2859598718249594 0.20876534916629852 2.4747227881819316
Ni 0.4525719010899655 2.020845636368557 4.31163592585502 -2.2498631045569315 1.4519160962455318 0.7295556642211951
Ni 3.4219226863249492 8.521956641344985 2.727029695380059 -0.2543340389350329 -0.126962102545562 -0.42860186854509413
Ni 0.2508960256382467 8.950355810675438 12.685661536876468 0.45550897734858325 2.271217144752675 -2.6357707766676093
Ni 2.3790349940316884 2.396538122512381 1.4638337044451113 -1.9675400366081406 -0.3907467453705335 1.3705581646923302
Ni 6.680651952515903 8.2133172029557 5.447403880177335 -1.19746044413097 0.30415250511905684 -1.5339923940219968
Ni 0.4024122378341572 8.877872377380458 7.854963430505443 0.16976428531275278 0.8671886162170419 -1.8218405055540754
Ni 6.378194510122481 7.075970866676992 8.756529566917555 -0.9219536277730638 1.0478212117028662 0.30750342386916074
Ni 0.53102687945329 1.597397700913213 11.149911865030225 1.2675811122074556 -1.4847087172955207 -0.08245116461738058
Ni 0.9404807677417032 8.422546763484434 5.118431499942684 -1.266483508267903 0.6786794461966182 0.7450031091245168
Ni 7.9284568403499 5.082389899578952 13.868154294673305 -1.3153694353353282 -0.039138874982990665 -0.9332304862384637
Ni 3.2713751121034664 3.0040742487625156 13.232293728410506 0.7415213212235036 -0.49642499883665475 -2.2033531339208507
Ni 3.3224376474188535 1.4169454256965373 11.178018338010814 -0.8255256892606169 -1.822349841090326 0.7496583485083412
P 0.05646943302909511 2.9811407347413827 2.419219847030947 -0.25229721101066227 0.1559173521273315 -1.0497425970952954
P 3.967300627911496 6.596161542195521 8.542568618571927 0.025981254555110096 -0.24151940366886793 0.4004647439892458
P 8.091086552642327 7.085516319460881 6.884093173024799 3.61109176431822 0.8841728094798643 0.8974453582190545
P 5.355778807608838 3.972702828059858 6.414657951854321 0.4481193697527315 -0.3339845008788248 0.28275912704494527
P 6.5197227588788715 7.018679359712277 12.520212345863131 -0.4828349188570459 0.6075269944215085 -0.8016018314551678
P 2.0500926782152544 5.0748831901554015 5.651533763766015 -0.6141049047493424 -0.36987658678974367 0.32100222968654396
P 2.0037464985076547 1.0555335382057742 13.383070543820892 -0.25285565461729353 0.954965049702078 -1.6159223960285847
P 5.992684112404677 0.299996857664976 3.845169565983467 0.536780519835566 0.05477940973372501 -0.23140005584667886
Ni 4.582738059074279 7.265076057261741 4.260551781739039 -0.6401987736229168 3.2189944184570627 3.0291076513628217
Ni 7.169217538803068 8.488152961112279 10.639801365038322 1.2363833464484124 -0.38598043433014173 -0.26832675366969916
Ni 8.509489302915636 3.3091999082726935 7.111351989353021 -0.13350093210534428 -1.4824659440079306 -1.6401858965616398
Ni 3.918840543798016 8.613700092560212 0.21565019284419457 -0.06134292188385564 0.778132544688634 0.008559716644553001
Ni 4.36949677773972 6.5418670819218105 13.123208744962504 -1.5548664092575286 -0.006897755561097799 -0.2145063654151338
Ni 0.19595893842514786 3.221533943778144 9.21499221495191 1.2949561617862988 0.9390278096465312 0.7298382284586205
Ni 4.62744948604133 7.979866995500919 6.777566483664447 -1.5361608624282252 -0.994212939459107 0.44083209206269885
Ni 9.078777852115367 7.439684561187493 0.40482584690913836 -0.8792242072253373 -1.4363660643260745 1.5588228228021153
Ni 8.539722833485076 6.582341304946407 12.14011542245052 2.062890682896009 0.43053199568827144 -1.053069090365367
Ni 1.8122737349883207 7.262689694065768 12.117632874702643 0.1746385826859186 0.3439783788667431 0.7655269401094816
Ni 7.453880603664318 1.4948028737477992 11.658344394680391 1.4516579574881385 -3.1316617573776644 0.023945712182320052
Ni 5.306360420164693 9.107254493245254 11.824439970685393 -0.30462687365231406 0.40476491402649645 1.2907981737538672
Ni 7.1888251765589475 1.7664818679915963 2.6644778547404426 -0.5710618096159391 0.8497243979940075 0.1998490205132752
Ni 0.6063899203056128 5.053387131130267 7.715517142710579 0.40588668633576547 0.18980989110971827 -0.19866554172813528
Ni 3.2299331906175106 4.06463418188894 8.123033755050136 0.7848883753552289 1.0575775197586819 0.2193132998854739
Ni 8.176478895509216 5.92060466972949 2.5711099854284316 -0.44389710414126776 -0.7979706624604839 -0.48443285947178505
Ni 1.3996771754831645 5.071134533008973 12.471507048838568 -0.6757489028133846 -0.740124697986293 0.6613113872318159
Ni 0.49837222370431294 4.823723161344687 1.1142747138363893 0.9984341766293061 -0.19572882769731453 1.2559836371778434
Ni 1.7355906782736588 2.7845946006479347 6.904072857956115 -1.6686114988921843 0.8626747875070885 -1.7291743480769057
Ni 6.135330381713512 6.973789425262062 0.8637103363115985 2.0105329952298985 0.27835765554313996 -0.4929915476750736
Ni 8.234258949269957 1.4239541931933686 8.98168387397059 -0.4800439863754701 -0.12844820017278524 0.37206305291810116
Ni 2.6215984782584876 5.8133780431325235 3.3073237006733405 -0.1688975664370833 0.773755755777177 0.6209391540623563
Ni 2.4281527372936647 6.839918208020307 1.1829474821223667 0.7927392388582153 -2.3065538723807566 -1.1500932677009161
Ni 0.7881979128812601 4.569434554013269 3.8798488723967433 0.1328483861230099 -0.5239468584060073 -0.3166763486176804
P 8.075330918470495 0.015538606652827618 0.2640924262093584 -0.943322323256827 0.9318518607233822 0.38326843471561733
P 6.8746520061916 3.0016597001744656 9.653736362688207 1.8666383785950562 0.7004641461718775 -0.21983986181290524
P 4.539558038410154 4.161065803319874 11.347949945877689 -3.671511660167173 1.7643100154377744 -0.9571155203861775
P 6.398412831373394 6.414525480511552 3.7695678888115474 2.1317072874490903 -0.04967731262046928 0.111338279965376
P 2.149173726501559 2.1978311083595883 8.808589865112518 0.9848947473819748 -0.5395704238758772 2.2966306997297736
P 9.274591166014776 9.18871027635186 9.937703248365121 0.10351055639084109 -0.4743420508946863 1.0147223722663687
P 5.1707041280913035 1.2699961865303984 13.572060174298118 0.194196193102872 0.3287368793266403 -1.6482766439895742
P 6.548190004878066 4.206923436231448 1.4777488325142225 0.8121649516829949 0.6855466056300967 0.6528272610202047
Ni 5.001234760654515 0.11215907021068754 9.417416882319845 -0.6181168541222128 -0.8130614953553353 0.9285953014592976
Ni 8.811185739722939 3.454204355385422 11.642022234127783 -0.4853821107589318 2.366158471417267 0.3808315431393506
Ni 4.597394462955052 1.5273757918597488 5.03442869690526 1.5421880424589118 0.5392438937743939 1.275535848278158
Ni 9.150678787307392 0.7867444861630833 1.973297819445348 0.40764943466314313 0.13482813555720005 0.312722506176255
Ni 4.195235893649601 5.558027786032818 5.5848978598142365 -0.5722054363020791 -0.4467458864439725 1.3911814973696364
Ni 5.097487874602287 6.670101220747884 10.893474591309362 -0.5580962505942065 0.4201233987604377 -0.7864359223480069
Ni 5.211056214416895 4.457510362069901 13.374668478442317 0.6004333207995208 0.1564626831078402 1.3896378070316002
Ni 2.3016379073843733 8.757220109023477 9.02217970579578 1.234172454840023 -0.44443652158450553 1.7468013171300496
Ni 3.5102932856214584 3.8044172470903628 4.206690436990266 -2.0231275440654577 -1.784208297023598 1.0893368144481497
Ni 4.623090145399869 6.484246745382846 2.349104926183624 -0.5324222428668701 -1.0835623738582176 -3.383921430282172
Ni 7.801754107826752 4.899532470904918 8.668277346267775 0.40825107280288403 -0.9199677076912867 -2.5301200340053134
Ni 4.863333032345547 2.517763493841624 9.888447396681961 -1.1903179195489177 0.3019218160163252 -1.3197205132151724
Ni 1.6424097720624342 0.3601764278046593 3.3545304743524005 0.482607119116956 -0.24525444523126796 -2.0305168945509933
Ni 2.3117564631405227 3.530427050696136 10.86077483893306 0.19495955363145778 -0.937527828062237 -0.6459937830381391
Ni 7.575960931886606 8.31594021551319 2.5747271107451604 -0.5240106217644072 -0.22962290934159807 -0.8113794796672219
Ni 6.2649362096207355 3.206482944408273 11.720415204628535 1.2809691034785875 1.0337649907201163 0.6194260598519397
Ni 6.297772191392084 6.373844564611713 6.609505446318511 -2.1512289024217854 -4.451882093047391 -0.8051419833979425
Ni 8.744245433536715 7.152296908425328 9.061492690666748 0.9818137944638058 -0.8201795944573551 0.5011254896361176
Ni 4.759498047928683 0.798382234552259 1.819839633735235 0.7630226856303891 -0.3712122748820317 1.3944447415019405
Ni 8.194357829217623 4.622582808342458 4.901445319513972 -1.783172399559916 -1.2153288397709585 0.7138925037626415
Ni 2.333600142001291 1.2688875611086479 5.260393803737083 -0.11113027771962797 -0.2674276388941975 -1.0583511646999129
Ni 7.577830562894475 9.232237916851618 7.395029505004597 -1.298121703998474 -0.07745422562342144 -0.281245004393264
Ni 6.204347011782847 2.294713696063777 7.639407188968177 0.0747972476165486 1.0695655453584936 -0.5545650975124965
Ni -0.0901725853633889 2.2041446361851524 13.725147252345865 2.666538396867769 -0.3561522952251157 -0.2145780991933337
P 2.9358843901941483 8.356423833668481 5.405312755160506 1.1209336154178244 0.3171908263602537 0.034083057726638076
P 3.4999210613366034 1.8609499071077351 3.2385156425053867 -0.7387967232034889 -0.4653794423847598 0.34432779178636186
P 5.445990852521137 0.3760147391265873 7.427686979292782 -0.21821775282844996 0.33732436388533515 -0.9346247954828292
P 2.586789519041651 4.628426579633381 0.6914346433368694 0.8792540320220082 0.5396282736970061 -0.13277742367575843
P 9.015868056996355 1.2130804847933954 6.287655514662073 0.1450009623251438 0.2827544990592549 0.31107262927765783
P 0.2552816726456474 5.340483534840955 10.487539179465402 0.32539470232728473 -0.48286937163940713 -0.27394384274616046
P 3.3252092109732305 8.43893187141268 11.296673201582506 0.4464211561147021 0.27955887494009274 -0.7365470079373638
P 0.5776868565260289 7.133534832431799 2.255365949209247 0.46372493750047233 -0.4229228158824459 1.9499745169205513
