# total energy = -381166.3068114777 ev
CRYSTAL
PRIMVEC
9.21270291994671 0.00000000000000 0.00000000000000
0.00000000000000 9.21270291994671 0.00000000000000
0.00000000000000 0.00000000000000 13.48372195762198
PRIMCOORD
 96 1
Ni 9.046855597686399 8.854669407263062 1.5839731359843647 -0.07239815125675274 -0.6741085389964842 -1.9963204511749424
Ni 5.669331395191692 2.9104309643635715 0.46066185039638907 -1.3148603569093937 -0.2334425401980044 -0.3697256630341762
Ni 6.248202354832168 8.636816627197838 8.196201617813921 1.1078209892952664 0.5180333211350497 0.8034926207199776
Ni 2.8883204779527567 2.0082954806943123 5.454489326359407 1.849288317352383 -1.251789653701154 -0.09011382336896094
Ni 8.65985759657844 9.200799859321698 7.67074130190957 -0.563175721999643 -0.6344909246048621 -2.7870336607420647
Ni 0.7495067959754044 3.14826609652257 11.33953983967768 -1.2012196540630862 -2.946031965787565 0.6641689112852691
Ni 3.348974036916742 3.1868304699040992 7.926554102061095 -0.16228520332688823 -1.0134345066928805 0.1718299095925299
Ni 5.890620513353264 0.7618766918519881 1.1797086875300946 0.6201477685093126 -0.07662864439833254 0.6653199941705767
Ni 3.04646573200611 0.6043394761749324 0.9507076159624839 -0.015397308391676709 0.5459501021499759 0.1355603857375343
Ni 8.996978025424669 4.4849647651910525 13.151711620826998 0.9156942771269134 -2.370973633417723 -1.3394529586470931
Ni 3.295669339261336 0.20381262119435703 10.941918671119591 0.11064099678803525 -2.500079007558533 0.5018011755469035
Ni 1.0705989647143261 5.25582844849877 10.978391760994766 -2.272378769160945 1.1530729191545304 0.04861698967675498
Ni 6.307403182197124 5.48291235664051 9.415440169965484 -1.6759566264033456 -0.18781137262245073 -0.3893264679842392
Ni 2.502556979002736 4.170295692754473 13.392544566435195 -1.0223102119159555 0.6792157783160625 -1.5570631597985314
Ni 7.045313028050056 0.48360148004760944 5.0723740576671705 0.1871066332459423 0.7320504056185909 0.7344376749038448
Ni 7.025192485416214 5.15253562614958 11.73437048059667 0.07918046428590879 0.8885678532237665 1.8196036458037566
Ni 2.3100575566885793 8.100913712815712 12.717010245287705 -0.3668532265823875 -0.3804990995005963 1.302634504267163
Ni 6.703936330569746 5.071426991832574 3.592575399677627 0.7671297658202273 -1.6793787647110177 -0.3743590480411295
Ni 6.561987007812315 7.7073746928112215 1.4234086262095615 0.4880367747729594 1.0858586260915621 -0.7533298838226574
Ni 8.51665534625773 3.6801154217293788 2.041677708823307 -0.3052799338552807 -0.2887881068478446 0.16794728670867204
Ni 0.7704712221739253 5.380844823746586 1.505417341577541 1.4406672628045898 0.4457734952283742 1.2539187842290147
Ni 8.186223339550773 1.8356033691231775 0.6448053513877919 1.912969914671744 -1.6877811298420997 2.590611920742784
Ni 6.181493174790204 9.399536281344238 10.854638447283168 -0.3823243256347931 -0.7421988069065024 0.39654509721986547
Ni 8.110246180621612 6.552166266764845 2.7404317257832207 0.3832332106023077 0.6268292942945463 0.05584333222186512
P 8.204372363812983 6.019441734804274 10.09000347225143 1.430038322335834 -0.38388781346717116 0.04388641697030507
Ni 6.4331934244693185 7.255353436250125 12.410026409419418 -1.0029019825926728 0.5018685384497292 -0.5245412974568965
P 4.595498771839784 5.285972411638848 -0.10591199371860446 0.0818659815378719 1.0507545832995773 2.771672862015278
Ni 5.18536969846964 6.229454504896331 2.367080501142071 -0.30992617437804043 -0.36397564792427634 0.09570160186938356
P 5.714178831794961 7.275252874019859 6.619320420345824 0.9187258648643855 -1.6417108178465982 2.217128076217756
P 7.147214732295899 8.614337632680176 3.2416349955543726 0.6082366188940235 0.4228287135067427 -0.5368849066239141
P 5.181334534699666 2.930929227806931 6.136198922107384 -0.686005033323754 0.05443102525537078 -1.0388524325453528
Ni 9.186557020992064 1.9593760295103848 8.833414780930399 -0.2600056353985135 3.6256290387024466 -1.3599024847506966
Ni 4.026559105678834 6.5675606929283745 11.809812381500636 -0.5048577029850402 -0.14690126467165024 -0.9888169652545162
Ni 3.88459135751606 6.353098187446142 4.473669991716195 -1.4370342940376928 -0.27888961678721 -0.13058427267918157
Ni 0.962506324273455 6.9977294187534484 8.319942033741778 -0.5802722724706135 0.42775443294313426 -0.17946300065775544
Ni 2.294524939984982 1.8973469024253777 9.85521129578472 -0.73892682102345 1.3268267852426505 0.4220591823305699
Ni 7.626993862005238 1.693644833663075 2.99036590036027 -0.020711264405422397 -0.7817837682879762 0.2663233500864252
Ni 7.545369316338648 2.8397418967676624 12.531217670518162 -1.578346751767656 1.024900598350951 -2.9018521859465576
Ni 3.1493624081404397 4.333931717599845 5.6969529203404035 2.228466126938394 -0.1584192926135788 -1.3636704364335612
Ni 4.0061161184515015 8.099347553361612 7.538316992443865 -1.768102392600671 -1.5771121080296064 -0.9156246002312424
Ni 7.993908171290039 6.238657994864832 0.36699630233857466 1.6860358650162188 3.7744000095929837 -0.3526810488470636
Ni 1.0460563247983214 6.893091541814267 3.430770860123284 0.9386053773971319 0.8518594420591393 0.7570487274351414
Ni 4.1736399038241085 0.7714809343866859 8.839146003262135 0.6775928980006588 1.1812172427992305 0.16098396801696147
Ni 4.733993331095526 7.728554696252249 9.799928630865814 0.07936301261036009 -0.5629445798254434 0.5863061373695193
Ni 8.22351635996368 7.692523816105291 5.1627147413309595 0.6095944184734986 -0.41545941762586514 0.4070969045937827
Ni 1.3825779279709236 9.103200487223292 5.613542952896139 0.41636573149021844 0.11429941947622897 0.596448882230476
Ni 5.022010054704403 1.4054346432981033 4.027210443757686 0.5742510059771981 0.9130578679453307 -0.0032881838329685306
Ni 8.845465917294561 7.423706364863138 12.084583081208901 0.8775082529754953 -0.15029537795486375 -1.3586189900525827
Ni 5.129660485417058 0.6838902424702429 6.609599176487204 1.1112842652535184 3.487048892301982 0.6890247939866844
Ni 5.857427145629028 7.468258994980931 4.677152798154923 0.9633234489691023 0.15038870899961843 -3.4759119018485563
Ni 9.030171393148905 5.650205824446338 5.8005350215534675 1.0407748463790463 -0.5312475058324785 0.3852330146411559
Ni 8.258054782277908 1.333787454624392 10.745123365549867 -1.003480223693646 -0.5924112218259926 0.6909508073648035
Ni 7.675904100486496 3.5823225828748795 10.372959658283033 0.36318734769502614 -0.8499429417627169 -2.2448024022045727
Ni 2.076054908840789 5.221713810507417 7.280009392408986 -1.9802489995343766 1.1228249189032662 -0.053535252913978766
Ni 1.265991175667231 3.205117684706378 6.392133329934168 -1.816980606358613 0.3356893993850735 1.5217274606117146
Ni 4.517844901024469 7.862700859847196 0.2927087530793053 -0.36153387125200315 -0.03139985446752012 -0.41785697132376426
P 1.9349900055397902 7.029798836751802 5.420591186880827 0.3763750500298937 -1.1548654922785786 0.8153973425773634
Ni 4.637711375479098 5.091621236087785 7.582813425075362 0.13490064066634833 1.2999538721112063 -0.551922774793643
P 9.153170186511733 1.611891310159087 5.842064963924847 0.15852779316698506 -1.7580522074535208 -0.19881106616706404
Ni 0.6742961339084833 0.036609437874706684 9.468391099838318 3.4339013617447245 0.5027856509473599 2.2603658038604686
P 2.5489429369520913 8.448877492705911 9.041631074001577 0.6947251868055713 -0.6459822130739133 0.04595049858818538
P 4.68728492855268 0.7622479637696364 12.897287174968017 1.0320300103068807 -0.36326319523828404 -0.8983858677554527
P 6.061295043039412 3.0099465786175807 2.634071994714797 -0.6656087290555891 0.5187115781489969 -0.8030933283990298
Ni 0.8456846480516476 2.678022114077894 4.070075306746119 -0.7985471037892441 -0.6031309222363419 -0.6594074853408837
Ni 7.917977075874234 3.3676113344205243 5.437580331876737 0.21068339212461779 1.1264568592288988 -1.1611215004906197
Ni 4.3962280130623155 8.68648230729813 2.5388098852840684 -0.3767020943520093 -0.670601297174174 1.6776841506174138
Ni 8.205625291376263 8.094695138512671 9.687420342034649 -3.232991761177419 -1.0878450603939716 1.4943994622207233
Ni 6.366640860372765 1.796412531960008 8.968468395738457 -0.4371096489057891 0.3720923634941398 1.8499753161170784
Ni 4.72193390329896 2.0752534037083965 10.97066598853472 -0.012157975518772611 -1.7256408810023507 -1.0584668643421706
Ni 2.947106733697511 2.0494762616344553 3.0810575879958297 0.008830453807436406 -0.42391731858523124 -0.29791732284262235
Ni 8.821061467918623 4.586332132681968 8.287324459934492 0.07915578169556045 0.5978115669059576 -0.13065523512643304
Ni 2.8505576097036194 3.981112843401938 11.017710654725065 1.7054656916060562 -0.5453888303298671 -1.2419808951408482
Ni 0.024404449375936884 0.16490645654372693 3.718662290975833 1.2482073356665342 0.3551829893333109 1.1017264463617542
Ni 2.144081505364729 4.624306893092542 3.5632080673727295 -0.11072250075824802 0.23663327922116018 -0.4976552716993301
Ni 7.665899105385602 -0.03257427410473297 12.916852191630788 -1.0546238364469966 0.22531014089885715 0.2810562854212256
Ni 3.1105308663814464 5.906521638163709 9.09390763403888 0.380476473792777 0.7828829148894259 2.2441637401793093
Ni 4.020957782454761 8.820996978999926 5.2096377998460435 -2.8048691462615887 -1.5623503763393995 -1.7152487391347493
Ni 4.9221351450462185 3.978524073951339 11.890323111414283 1.6797970831953588 1.3710595298087809 -0.36614694454398233
Ni 4.690914733405123 4.021418417588319 3.9228729009255847 -0.7542719360209525 -0.7819611744061049 0.9743133723217026
Ni 6.348620813947951 5.251305011487225 5.754839095034184 -0.6409387371127349 0.8611987171821942 1.3557339551953038
Ni 3.7643471622519127 4.2577426665092455 1.7182980260111336 0.9354040968510148 -0.42370134591968317 0.821452804742824
Ni 7.359889973459924 1.8452490688198953 7.019167377869268 0.3232753419914368 -1.7765597793394048 -0.37620972809662306
Ni 6.748028325553979 4.808846540298806 1.1055906519999747 -2.676689369258842 -1.2825485321505654 0.42887671947303563
Ni 2.7979162266405377 1.7086154755037306 12.522844245060334 -1.3292315380294013 2.510319454339619 -0.34581748895801084
Ni 0.5941585184530193 0.5716104286653237 12.184956398081598 0.9124757701896156 0.14651868452125089 0.41593584304165143
Ni 2.0142653120252323 1.1267780256031381 7.70360116979711 -0.34790162518054923 -0.8638117293250089 -1.3607499203526565
Ni 1.7069019128068925 7.270784713224341 10.666918575114815 0.8769328400879994 2.1642014034220534 -0.25737899640894385
Ni 6.54357081517264 3.789580754868255 7.598697045750732 0.37310923479442837 0.6392698340507441 0.920610483481608
P 8.953199262331255 4.627107554704578 3.861252817839178 0.8567224265783955 0.8699846909049405 0.6381238933717591
Ni 1.4337913421199733 2.767919666743199 1.4586693244132087 -0.21768424892248317 -0.37836894053147097 -0.5097469127565415
P 4.875868952231588 3.637654075117943 9.468094450812305 0.7375039725339944 0.5295552057317203 -0.21487274761561703
Ni 3.0192514083154656 6.5666578480666 1.9353317968088908 -1.4098291943778107 0.8856182836771394 -0.23582492438725194
P 1.4940792684001285 3.9410836502956923 9.118811411899594 0.3652691699247193 -0.5689406495078783 -0.01785245480038861
P 2.0326999300702493 8.91937021812271 2.4745457565310347 -1.0840400848255847 -0.850317037272684 1.3540735367737453
P 1.1991622304905432 6.2089009652369445 13.08498125156889 0.6285498765300788 0.31984908991870725 -0.3754116576753599
Ni 7.7238101543765945 6.816469493698122 7.738213293732706 -0.2617611846370395 -0.7554623567846279 -0.8254732387561267
