# total energy = -340875.3860754227 ev
CRYSTAL
PRIMVEC
9.22821000808501 0.00000000000000 0.00000000000000

0.00000000000000 9.22821000808501 0.00000000000000

0.00000000000000 0.00000000000000 13.50641814859345

PRIMCOORD
 96 1
Ni 8.996535991960089 2.3003897845448247 11.023993154176752 0.3785275775965223 -0.2173250658108515 0.02040761712207453
Ni 2.9691489501999526 8.503509633319968 7.708558384337244 -0.17393924262604882 -1.7335768480199758 0.5817745680477528
Ni 6.645963200297288 6.467914112519755 2.464232965526217 -0.7840160000526046 -0.3820710719734065 -0.6491359282115466
Ni 2.3209502368910644 8.773037968901932 5.349730035821236 -1.206286269952716 0.05198384926645886 -0.545790179533344
Ni 3.5607233656647987 4.083132345611214 12.897711102770145 -1.0499207745443724 -0.9783093808549732 0.1555651109942353
Ni 8.00796397329272 8.365538662481269 1.1908147051505282 1.4726499863587736 -0.7236202725733667 -0.6891363798638841
Ni 9.047927894615478 6.341100047824053 10.51250483819198 -1.0866389559010126 -0.048579965791232464 -0.6681641484875912
Ni 4.211441380360816 8.006911957328864 4.544733880025729 1.0085458111420116 -0.5440762821660308 -0.5927223253085083
Ni 6.1598026300528606 0.608010780668566 0.3641977756557365 1.1839040456027738 0.047260989869492794 -0.39958928336282795
Ni 8.782672220360404 1.5358787097583775 1.9789333872943138 -0.43193684645559804 -1.6793954768815658 0.11546747164240116
Ni 1.6961265800422407 4.567244253189185 3.7392384780578998 -0.17006973236831355 1.272544369750002 0.4236306405827478
Ni 1.8126235057239852 6.854566892077693 11.575325190561042 -0.21215894822887973 1.0517280029564402 3.632025686257409
Ni 4.750258118059302 2.6032781000332763 6.9842906114523755 -0.6540019980545962 0.6177900669104135 -0.12713873733274234
Ni 6.4687446514385885 1.3331441596710645 7.762881166555095 -0.38131002543766584 -0.1078886308538787 1.4688246990754124
Ni 4.020463570080104 4.230617601175666 9.951556083948615 -1.1211177064041724 0.27062866232999844 -0.8131262871549997
Ni 6.830970358572605 3.7449645824927473 6.1980950883162 2.388072497881539 -1.0071615291999751 0.0010148144177595426
Ni 0.46073500547586455 4.229990082881436 9.471376316740812 -0.22271589780911963 0.16126550381312227 0.9795301406359518
Ni 3.4015275113447916 1.5796757954115428 8.798080562946812 0.229018957209012 -0.6185274592970702 0.37037718057524605
Ni 8.083367678912612 1.1060563628415043 6.241829422139942 2.1189085930225247 0.8075048272031642 -0.5122743071640855
Ni 0.5770999677516163 8.892829365628383 10.87173506829207 -0.24688015376014905 0.6361379732899818 -0.08768953019818446
Ni 5.734299085513923 5.017553226770623 0.27015677669721433 -0.6625390889913298 -0.14169529499067854 0.5610147097925822
Ni 3.0882574593709182 8.841668168228226 10.234488394859534 -0.7807638116638941 -0.28371069232493723 0.6284683725598661
Ni 1.0630344468459172 5.957741739310823 7.432932970270021 -0.21255875477045974 0.20547510845080097 0.26594359814950325
Ni 8.843661461633427 2.2429072631513214 8.339254874163244 -0.1083462872165876 2.0148971857358657 -0.08635898431221901
P 0.6499769894162133 1.7701552823409537 5.026927242701194 0.9416372222449203 -0.5907225212696601 0.5776042387201472
P 7.417266237797754 4.071873929155913 2.040927580659126 -2.8724138260807823 1.388171249788403 0.03926640169979043
P 8.218367166063931 0.5006414777048043 12.445259338778117 -1.390349488386644 0.5848899737482831 0.12339521112991009
P 7.192762339826787 8.192168277279832 7.21372421931713 0.29719715684714626 0.6217925032015873 0.6606251597980687
P 5.1241205982672 8.272361423998333 10.863023637854525 0.6631944631871417 -0.5657373120792322 0.7151993954995232
P 2.24681079606984 0.11196126036389126 12.541533564607281 0.7216081272393442 -0.8420920782597303 -0.377149466302073
P 7.4358795377898375 0.014883257425500418 2.9322167301214583 -0.8385614393986526 0.9993770001585499 1.1833255473914845
P 3.4359302790049266 0.9680946202130127 6.562228266500472 0.0026901452376534318 0.5749400616244227 -0.050751519521254534
Ni 8.034236687758494 5.30383999209261 13.44746326956661 0.7087443839027987 1.2892552547467797 1.335807391474706
Ni 5.910271825994371 4.235508552586576 3.7114689478961838 0.534051550940177 -0.7316752816673592 -0.6409212536112381
Ni 4.0934402564149615 6.227583834039902 11.70159663649644 0.7119292093886836 -2.118239334869642 -0.9309113511869839
Ni 2.404142551927576 2.1400957732099153 11.485115744481407 0.232186042083084 -0.11496224987120846 -0.7128936301844818
Ni 4.074356317702204 3.865724941291172 1.765950909769613 -0.16214482109428205 -0.5250310926091216 0.6777466499697038
Ni 0.6099062550455486 8.91028913934431 3.4785507678564107 0.815574491585176 1.0932238082073817 -0.1173034964098754
Ni 1.9007067721714068 2.2165422665834553 3.10242460768418 0.15807322212806968 -0.45839375509554603 0.2514034955517993
Ni 5.229709779481595 8.749441435396845 2.366513601978282 -0.21668511823400746 -0.21964471508296365 0.17730790198796562
Ni 2.2646396981941375 3.493099041251315 8.202150432263192 0.14114507891416336 1.0843725284643388 -1.0802191684175977
Ni 7.704771126867362 2.8212207405454564 13.609742268917532 -1.377396527770402 -0.5603169123946092 -0.3212675675327887
Ni 0.7440696663519074 1.4009807329193615 13.27676906532586 0.1488815283264726 -0.19347654132802808 0.8618517773851608
Ni 4.424557666933551 6.7779173780795485 9.301681527665727 0.36352467642978686 -2.076939447679591 0.674594220383651
Ni 8.399175488694034 2.8779373204915903 4.10886890106383 -1.4632670024819767 -0.24392261379372182 -0.3537372580257198
Ni 7.084755367537565 6.312455683334499 8.698660440257308 0.7663450651354027 -0.26114874786402126 -0.16296140345830643
Ni 4.056767349043348 5.775484587677867 3.6773790165621425 0.9208310841328464 0.3779969019040329 -0.7991734245193333
Ni 5.455376431938928 3.6935911362577767 11.626392260217065 2.3766074346647326 0.10895923821023815 0.04787805462820142
Ni 7.104134608977018 8.159435815667573 10.023842500159821 1.0981053046693992 0.13583472244484346 1.415068845510195
Ni 6.617346520438361 6.169012383841705 11.316055856268717 -0.3862799678484315 -1.1483839983192932 -0.07839344960823919
Ni 6.262789455988242 2.248453417487089 2.3372989340977957 -0.1800823794093092 -0.9378559008256171 -0.17042762992836455
Ni 8.12725704666787 5.211631715681648 4.210572082959104 -0.12053383042171499 -1.0386197477092565 -1.0605168048926639
Ni 8.68546225401602 0.035111494204206346 8.573496379547024 0.4450281324219174 -2.0153998364038967 -0.472390069374638
Ni 3.7086423471090857 0.8049749309120265 0.7626294427247784 -0.8312782754736779 0.6599276195104118 0.3697981681433244
Ni 2.522798878798288 2.9708930819295034 5.742929307701625 -0.5830138397714927 -0.19239127868364933 0.04968065505457896
Ni 4.105049344858215 8.084299728143748 12.819617373874253 -1.4991246356105343 1.9972241939361346 0.6670112658300706
P 2.866171352474779 0.21819180218782977 2.9873091450707627 0.8158323732322531 -1.2811007439604452 -0.2803453753971301
P 2.07536910680214 3.07056698039976 1.0522881960572297 0.03926948702358399 0.39032816977587614 -0.7655009719675526
P 1.1087602284328186 7.6120460706846815 9.066953695603916 -1.1918117304856248 1.7833891435564124 -0.2967785812524889
P 6.162266562178734 6.381178164762886 4.700949022448143 -0.8678509323913891 0.15454206904635964 0.0927926557527047
P 1.265049196536908 1.396209748241172 9.552630707633378 0.33656486001149133 0.38380168151126803 -0.5032466497441784
P 6.305276135791693 1.7574111240419608 5.5053379620118825 -1.5443310569438435 1.6845428254104602 -0.8085186131796591
P 4.429845431383459 6.713938196698724 1.2344586025142197 0.8410726358562807 -0.07449745698794266 0.4283951518509267
P 5.291852547030777 2.4486778943974823 9.644055508997575 0.7544560270073006 -0.0008932012382307198 -0.724332725259359
Ni 7.157870477025561 1.2651507068492096 10.08609323776845 -0.7537399747768825 -0.014773301654432624 0.4698284792950489
Ni 5.08063727176115 1.2278410529731567 11.515734023134723 -0.8612025738369362 -0.8001748692006542 -0.6157103015632494
Ni 1.2861448850752843 1.0789992505079433 7.029996090976816 0.07292291341197119 0.4086539646682575 0.42144083202028065
Ni 4.9300605657765955 4.790253181106251 5.790647459872708 -1.2460046715882604 0.5458354309489826 -0.10133334623386421
Ni 8.213227052977372 7.599255771334642 12.397662998981797 0.925347226835645 -0.22220759071413343 -0.548755689919571
Ni 9.140053117134556 8.367485814835423 5.965811809138824 1.3544949405818802 -0.7426376942161339 1.6569014095441077
Ni 9.18625876565234 6.30995483836779 2.386449304493355 1.5496946352486018 0.14279932668813472 -1.6069705861519357
Ni 2.2320272033146 6.014116875479215 9.640273788453818 0.740148609245693 -2.3613546222707207 -1.3429080070752293
Ni 0.12573344128019634 3.722475434212772 1.989171163700471 2.7413518424342334 1.1974028514201571 -0.35829865214415707
Ni 5.394636352341555 7.012147809611078 6.904440754153659 -0.5502327886857298 -0.3619735298925831 -1.0417788621635282
Ni 6.19615255006715 7.520216150892298 -0.032389172192473566 -0.4068889023480347 -1.548876510222681 0.40596870452661044
Ni 2.4318456389757857 7.072804835316569 2.6926939200349156 -0.47438601675874426 1.1673973061970024 0.7879348754910365
Ni 1.428517712183804 8.736171269115923 1.1556284624436268 0.19976700232243014 -0.3472735046782471 -0.37651260404902254
Ni 6.333422176929947 8.909144841278362 5.114421749337264 0.2867574495710609 -0.83860411971113 -0.5462794604649366
Ni 0.25985901692469704 4.250181406819305 5.852924959290944 0.574660582710791 -0.710146406456648 0.6087361842382614
Ni 0.5686810715777051 3.6103157673293818 12.867781248598442 1.8762247367319105 2.2973261831349014 -0.18063028149297924
Ni 2.505126856247548 5.830290928110682 0.6798579340738091 -0.10121147594401923 -0.5419772335451569 -0.23051225392508687
Ni 3.032316049082362 6.079203442085151 5.900103261164783 -1.8355462851759419 1.2661433513196645 -1.5795857663810795
Ni 8.159804944075944 7.489246277430009 4.161895119747279 -1.7341923701167876 0.5251444782585343 -0.7932192638184274
Ni 4.345250428395139 1.5052133672329944 4.492045413835938 -0.1406056614709256 -0.39067706847486267 -0.6375011721860957
Ni 5.554856537994791 4.699456820857305 8.05987450136187 -0.7952548061912175 -0.27466940805827533 0.3968672564459746
Ni 7.822781479023426 6.1713655774450675 6.318653349311041 -0.15650073543462725 0.07575446932349535 0.7950982260086952
Ni 5.26713017188016 8.631929406592082 8.662800538205131 0.5544198301838839 2.823474677177918 -1.0284451211690997
Ni 7.213922625836629 3.7890846555032374 9.595283495220595 -0.4058882289976623 0.10347044718152504 0.8294797888123585
P 0.9736407745487802 6.786250451898513 4.742022863268556 0.5264233449709579 -0.8701063040844691 -0.12747940850161268
P 3.4144008645867143 5.558114096198661 7.8291166453320855 0.5167182018680521 -1.38579786446022 0.4520297605507312
P 7.9551509262651035 4.253549703545686 11.647557160332012 -0.4556226201083121 -0.1345316873627038 -1.0494790590212635
P 8.303645056607737 4.446446981549924 7.751657817298589 0.14489708975742788 0.605848578277821 -0.16384174918073074
P 2.146740084560585 4.398423375620916 11.155383488315229 -0.2643777963242802 0.43991035157937786 0.6697451198214659
P 5.1506609308290425 2.3437716007385734 -0.1690312807610405 -0.3343136020834694 2.0794946100012766 1.3610224572877527
P 0.5991452391205263 6.697096713066818 0.138997147813971 -0.49846105543007696 0.49406755434807176 0.4000338270994143
P 3.7111524202860053 3.7241734248912763 4.1452686534132495 0.3667496111249878 -0.41934409739225204 -0.5997756326108639
