# total energy = -381177.8094309274 ev
CRYSTAL
PRIMVEC
9.18076095982516 0.00000000000000 0.00000000000000
0.00000000000000 9.18076095982516 0.00000000000000
0.00000000000000 0.00000000000000 13.43697167025267
PRIMCOORD
 96 1
Ni 5.885464554118701 8.762871126241997 13.02424161500656 -1.2074005860628174 -0.22406829807195602 -0.523892093908672
Ni 8.951159353707887 7.507310251102544 5.781727463210901 0.18118461133455246 0.7305871908095031 -0.5293353764114304
Ni 7.025568178850477 1.514577685393251 0.3405236064623973 -0.9919758225984722 0.8567828475026857 1.2370667456686824
Ni 8.673735117637662 2.255850690515434 12.121760873157 0.6915030803238478 0.7137814321060739 0.8376607819612543
Ni 2.6967934608581716 4.125980888137412 6.728819358939356 1.4523760666010859 0.04434278778143331 -0.06540269377552607
Ni 5.001871391886166 5.365879385001143 3.126460420533709 -0.6427662772397769 0.4683056148926193 -0.469578825178088
Ni 3.3448725610114995 4.012442416779928 11.991032344892442 -0.0585635593665056 1.3038712048877414 0.25203830092232077
Ni 7.931424686521834 1.683393518766052 8.46537315623281 -0.938439541243229 0.08191431827730408 0.8839167276050003
Ni 8.968033592436361 9.217484049722222 4.050212067557375 0.8336390623963706 -1.3077484284549605 -0.14102552261716358
Ni 1.974322654275661 7.512221958240593 4.47418879156158 -0.5740352904219662 1.4103799246749582 -0.7657035748966619
Ni 6.716745740140761 8.891493587931846 5.169781084147703 1.1622916095393208 -0.9396836980629751 -0.2507398938258714
Ni 6.724430037102532 3.922406693597033 3.7070590911429453 -0.11091661904692511 -2.144096148031746 -0.6776834008319361
Ni 2.5230567395863157 7.840773852351559 9.50989587813425 0.961201517530093 -1.127123289168304 -1.042181754028902
Ni 7.3625021077596475 6.595715767802625 0.26620626419736104 -2.3973310403653296 0.7005669902983289 0.3307801350089142
Ni 7.876532916468758 6.024176672153814 7.246867668664562 -0.4478023527329449 -0.9906990127685776 0.06697106670391045
Ni 7.443650854289023 8.379923223172263 9.51872409791733 0.7636801167087299 0.7889756580507251 -1.1695863434285214
Ni 8.797675391214604 6.281641933797648 9.816608577964859 0.2687550994563694 -1.177515882688243 0.9458443183477323
Ni 5.504765937495363 1.7417739780012946 5.148267806883049 -0.2883474197660002 1.6629959524776197 1.4502847312896958
Ni 0.5148075010901929 4.0841625217564514 2.6387389186386314 0.16955782572890155 0.3406986796742068 0.37177740335688225
Ni 5.2448677741850185 7.309611743605813 1.4986251950697478 0.9590515610666257 -0.10096105049610998 1.048706442521297
Ni 5.447808496216004 2.382756349897217 8.28379881929039 -0.6861461868873087 0.5690496642819168 0.43095622770988357
Ni 1.565283028427729 0.4819422128419901 12.628818893882281 -0.5712816389362291 -0.07693357723326107 0.8650900818168005
Ni 6.26238069720769 3.799347773076638 12.797103161192853 -0.09359792526281945 -0.333481078879845 0.9583259957545107
Ni 6.590758156859548 6.115387532745437 9.19834583532974 -1.379363678799102 0.3969503030780841 0.4831555354212583
P 3.9221129092448503 8.565209341789288 7.64456171006165 -1.1199861639028905 -0.5473891485893476 0.14800478214847412
Ni 1.7989058537397622 5.365732492825051 0.3037069186773415 0.7453885174883936 -0.25419057137863316 -0.652124064305593
P 5.538881645392542 5.735203038738418 12.12215105549974 0.5766783844717681 0.6529853838646238 -0.6530905419839204
Ni 1.9631680296537362 9.189849959095067 6.487638931167432 -1.4815418895317645 -0.4482625801988151 -0.46127467618776685
P 0.8323994027125543 4.019107649270065 11.857657003229942 -0.3662171356602854 1.7190943381330848 -1.290011930407146
P 7.675308996745838 8.45902465999737 7.345307460472072 1.4545049400186305 -0.818791455860577 -0.7539855151287854
P 4.717598308105689 3.743758265187128 4.752092263356303 0.1529353866808721 1.2370351210997985 1.2082549636433126
Ni 2.0107519139462764 5.5950311797034 10.707829116440928 -1.0014755345587913 -0.3239253168706098 -0.250963065580271
Ni 3.883764870524044 5.87607263560987 8.695467815090353 -0.5147837038495006 -0.8013352080573426 0.21754283824861242
Ni 1.0403913794488757 1.789293596966795 3.010164048570112 0.41325623932695926 -0.5620871169211545 0.3850550943023949
Ni 3.416822185013166 2.585045237896798 3.447107679418767 1.2424735185065505 -2.8298340437370424 1.118359426932745
Ni 0.7066789795766069 8.324801934094044 10.658447639143473 -1.4015494708675218 -0.08895348451227261 2.376887684909313
Ni 3.3979649019074594 8.181875846757315 0.34094592146865954 -0.6454193985919078 0.45925507465457677 0.45084910997906874
Ni 3.0419717131504584 3.5498422312247446 9.040220080071975 0.3897509571161675 -0.5877436411469942 0.4684884203273867
Ni 3.4115799704789116 1.7102197024247057 6.780524486847355 1.3255309492493625 1.1650208355450258 -0.09881109403264274
Ni 0.07476077302161155 6.489411736117631 1.525486265620223 0.4828824842655297 -0.03362231604013564 0.566073098152096
Ni 4.965120805580351 7.756549550885272 9.412733130182632 0.07941392045295355 1.2495103707486737 0.9397747151148848
Ni 3.410570086768285 0.01082962568232304 11.358890127768907 0.8664334832185723 0.6049538343776937 0.5834396144550017
Ni 4.431709410388208 5.206427927854154 0.4731369449614238 -0.6113836491634373 1.397189651236929 0.022254440522826192
Ni 1.2240525033678928 5.489388162810816 5.624353612279503 1.5444205313338562 0.12771517866150262 0.933584784254089
Ni 0.38121365731575774 3.5831683936754337 9.404227155110851 -1.6239771480122611 -0.15052009237116012 1.9391110918434862
Ni 5.841516251184418 0.27766569008467507 7.321497156803791 -0.07547036242417325 1.1486727332043056 0.6918861746948795
Ni 5.144935190637979 4.635632473846804 6.996724981998873 -0.5241026672575813 -1.5988060480632724 0.7323507104678291
Ni 4.699723366427592 2.0170590967571917 12.78373321894025 -0.3455899463282371 -0.667182244190296 -0.3393761042080413
Ni 8.789669767617633 3.8908707795424555 0.4365644654191196 -0.757269842307012 1.0993432908415584 -0.4962159681496422
Ni 1.7672597705531163 2.7971483594114717 13.250305001706499 0.34213618345168173 -0.18538862211357104 0.7441312480425248
Ni 7.51105600159287 6.437549617196436 3.3088004329440057 0.6669824694746642 0.289872598161275 -0.7729391734131527
Ni 9.046997317846383 6.167378182320713 12.358574012918512 2.1922143436952117 -0.21006761291748982 -0.9089317615920991
Ni 1.381162866458427 5.223449058758721 8.350755027381055 0.5970402359575718 1.0827707311948578 -0.9991029205615567
Ni 6.763576802030834 2.575855296130093 10.77208434464372 -0.14861284804611824 0.11106754280249259 -0.7554101633904539
Ni 3.7045839579758084 6.089663040407467 5.088983960764844 2.2217223804566575 -0.2740955378326764 0.07309106355871928
Ni 6.277189264709884 5.443273200279188 5.235756786962963 -1.4273175809705612 2.304970587054037 0.8204138219553484
P 3.8214183225343397 2.4076453929836683 10.78479602633221 0.8369300744428166 -1.2788682550855008 -1.0277848618772816
Ni 7.0807812755387545 4.013360492880498 8.656769071299129 1.084502369173984 -0.5471135263304577 -0.19951220599914674
P 5.733752478499518 7.3849031646135535 3.80020433807847 -1.7359494620172105 1.0783600037216718 0.6353334751108155
Ni 2.653028773144002 6.883248021740126 6.847037264181446 -0.22486971092732885 0.6868398705202235 1.5463758552880142
P 1.265402650937563 7.647078156653312 13.293719902426353 -0.18319495689636192 -0.3505372630311834 0.5097762233325801
P 2.826930748113961 3.9390789555833834 1.7251724078746882 -0.7233940154951735 0.11664966487596039 -1.4671439689388797
P 2.6130281974421696 0.7553847528640434 4.356360150586132 -1.4290654168996033 -0.36284127720951703 0.9344065088244359
Ni 0.06396970653551244 1.4086408841484852 0.9336613604532177 0.22425058928609123 -0.3447985607751933 0.2973979600040426
Ni 0.7022391635542506 0.33115372177998054 8.71517982704569 -0.24684955763252975 0.20013441296417792 -0.448244582476686
Ni 7.24834852541478 3.004027627913903 6.356359557242533 -0.07436504517513645 0.7445986745972467 0.5673298533773327
Ni 5.521116872846513 6.95338903582367 7.0862823875333705 -0.056193259362116124 0.7334521710621239 -0.1574186192632063
Ni 7.882720749386599 8.71327665528921 2.0210821062298896 -0.5161085933085111 -0.30301299219797495 -0.6129137126547186
Ni 8.248509810136682 8.663709726619437 12.904128800692893 1.9611012229613323 1.405338762706625 0.416900778058082
Ni 6.707785317399199 4.893960727025174 1.540561993267682 0.9402783942241806 -0.8395477145713219 -0.0874614733477784
Ni 2.6906515317453583 4.5665197049958985 3.7375070850183474 -1.6912413204765582 1.8523255615168097 1.0040407241828062
Ni 1.470445767238854 2.8365980894529623 5.136241928041684 -0.4011640840491155 -0.644468090422232 0.6151770547675987
Ni 0.5335628777487362 7.354496484162677 8.168335142350008 0.19075142908738116 0.9569836227940035 -1.5020340959478453
Ni 8.692362881718227 1.0729096349310632 6.325077950267814 0.4634531718963244 -1.0782193643787494 0.08498138723840203
Ni 1.1995582330046866 8.646578426582803 1.9906873607683204 0.6371566443624833 -0.06250146096833108 -0.18851354089579792
Ni 4.286791097913244 8.875776125090088 5.497897810186999 -0.4027995627700095 -0.8622376999696699 -0.23651475136542494
Ni 1.4973729392685702 1.7123955427830564 10.497835733805365 0.21587804895167984 0.3978314201314567 0.46914096630972113
Ni 3.9340203562692433 8.747732051343599 3.1149587631457685 -0.6527696683093919 -0.41431630516035745 -1.2988642385914533
Ni 4.890003819031718 3.305487096297049 1.6112134576631427 0.7950000098679341 -1.76570098224803 0.09446130170437925
Ni 5.73705755246157 0.6316473741053272 10.378071788409915 -0.6048144805863519 -0.42417520023230815 0.4731516301310109
Ni 7.483440272487726 4.772205474567588 11.12802979344349 0.5077327105399901 0.5299483274050808 -0.3711477401926834
Ni 2.8971911120905784 1.5672201689999314 1.4334427100053824 -0.7482920642884339 -0.8240740444157548 -0.6810471750978465
Ni 7.123985936831576 7.365706193350635 11.508685260490102 -1.5937456028212293 -1.5999044233337736 -1.0659947972880996
Ni 3.666492980563162 6.931465378542059 11.753265324062436 0.7550597220295706 -1.210758446791457 -0.32606396048016745
Ni 2.9409649805657536 6.4985649548403135 2.3577718268963066 -0.41745459367902304 0.4714233345859945 -0.6678167924505015
Ni 5.100885899332634 4.426650811074068 10.281917088016723 0.10367125033842146 -0.006767143520504475 0.047211110468163855
Ni 1.3010882689667167 2.2424100564030898 7.769324579824703 0.12821808643985014 1.0474841400784218 -1.3950702909010813
Ni 3.441986650929788 0.856811046226709 9.229613671162952 0.01876931018770316 0.8267780736104793 -1.3427226305373003
P 7.833438424308005 2.8112132852722036 2.1794630866436124 0.03508013153258475 -0.463440316380518 -0.6953255393937315
Ni 8.397577826586222 4.924853987809353 5.024070471997947 -0.42253740751856905 -1.4826515776561755 -0.3304080963814761
P 0.5237128392657213 6.051397628535713 3.6492533475466593 0.8104824217742493 0.8122878504141042 -0.2662225628425028
Ni 5.918873343418442 0.8194637104555237 3.1936057523010932 0.9911456133876931 0.08785253813860999 -2.502661937794361
P -0.06693233811205165 4.144039445035623 7.007474735060446 0.1713704534576081 -1.0173716369637575 0.4704779399535898
P 4.794459639245405 0.7222642394598823 1.152165308541065 1.4098659611530169 -0.8588448722380371 0.4358261542076753
P 8.334974217288359 0.968239778705084 10.618782161218348 -0.014128468981582121 -1.6700891118789754 -1.8313628432222138
Ni 8.11692196264199 2.079277114092817 4.284216812527245 -0.4461018251020704 0.549797500920524 -0.41449911059512484
