# total energy = -340864.34942996886 ev
CRYSTAL
PRIMVEC
9.33389416837421 0.00000000000000 0.00000000000000

0.00000000000000 9.33389416837421 0.00000000000000

0.00000000000000 0.00000000000000 13.66109759989934

PRIMCOORD
 96 1
Ni 8.312112896547283 2.3696704186828415 13.654950671125198 -0.8974273604969253 -0.8170369350633155 -0.00820233330513426
Ni 4.77723644824907 4.401565870211008 12.95576171609583 0.4611602620970896 0.45616537998565954 -0.9700283717931036
Ni 1.6077259586748154 0.45195369603477364 0.8446371632248422 1.2040604659459908 -0.2621933870784517 0.04153360046741234
Ni 1.3080612819725699 2.655866285901164 1.4060410372841665 0.6039940415675856 0.6795379375421716 -0.18736811443744505
Ni 2.992885207617033 0.25847233434989053 12.257228933836194 2.197611346341067 -2.0922627083002223 1.9208716860173243
Ni 1.1366349791439314 7.149735036906706 3.681433523137271 -0.791646777124985 -0.11490080050565374 -0.01699396345483525
Ni 5.0241646221209875 1.3419059827270425 10.854356753669 0.41364113347020376 -0.35440265952386063 1.021581818390363
Ni 2.2079326981440937 7.852231924078208 6.372737805550985 -1.6304833245618953 0.3303376481548569 -1.7184451345848597
Ni 7.109748633698718 7.1843544508885975 0.8943690854779877 -0.09335547023471019 0.7998000023597387 -2.255167290378665
Ni 5.896911741438539 8.92472438154957 12.271122435511051 -0.9080295614928039 -0.2544674791891037 1.8435737834661088
Ni 4.198189647172066 3.3161739708084044 10.004991972978042 -0.6259754309346832 1.2508655992249877 -0.0783253153744651
Ni 6.521983975339675 4.740675584251477 0.9171251197966318 0.3860755651471093 0.09343517443271006 0.7088132894675212
Ni 5.174066964679406 3.661313380570713 2.7007716514085462 -1.9213601956179684 -1.1050966483855678 -0.587361318106911
Ni 6.333196629101407 1.933842891840981 7.943586481211226 0.24102806585474615 -0.1308778926602004 -0.5866128699766607
Ni 7.881437679362472 1.173690539539755 5.894640804953828 1.231043422292738 -0.025849356962936127 -0.4752365376844976
Ni 1.791211652947132 8.55199398021798 8.505864007777616 -1.934141920763669 -0.5680214801277186 1.6383727546123008
Ni 5.012226571303289 7.024996873397943 1.81834715047427 1.2982443456192672 -0.7944847607944123 -1.9628513728832195
Ni 2.0608585255604686 4.626503389097394 11.83316118043078 0.2778616897433279 0.16186251396717286 -1.288464640524684
Ni 3.614877256397105 3.250136668591666 0.9947672528043343 -1.1074147549957831 1.718647480403653 1.0151034097548712
Ni 3.127517299090423 6.9852251497590006 11.687041865234686 1.2071054234199017 -1.4212230380370492 0.42159458398932553
Ni 0.7874987958396852 0.6258030778253153 12.370083183114236 -2.2444347344525086 -0.39604501765499533 -0.5813799037124955
Ni 6.497529172257293 8.661545897690468 7.819024728304853 2.6316570116095517 -3.3121984507155733 0.20521311303866593
Ni 4.945769243842769 4.440553546728226 8.14848972935867 1.576413796411001 2.227043792669571 -0.17765551513537148
Ni 0.23762974836402811 7.66546069901009 1.2367307282947555 -0.2742873421285083 1.361474457223507 0.5665032437109792
P 6.726564270744123 2.1756280899501528 2.0555036703969716 0.7898259218661624 1.6288005375428336 0.4253998166680287
P 2.090633648397415 8.82120215979892 2.735183852936839 0.16155063915370887 0.7668132630210729 -0.5448337291573456
P 8.454884143855725 3.352669497545852 4.977079792293095 -1.0926579084015828 -0.5481252554244237 0.870739566793094
P 0.9296820078068337 6.228554340034007 5.646349882513198 -0.5700102284229732 -1.3341343746476573 0.3227631782417087
P 1.7570776014691658 8.398190069839545 10.832240091110336 -1.9060510760647238 -0.33963192897258926 -0.6244412536783439
P 5.142901091590828 0.37224317204880564 8.886311672921618 0.14930344635523965 1.342311511141811 0.010371830152627298
P 8.332358113297545 9.100042918303917 -0.23586937589786883 0.8305668512289501 0.1300260861828664 0.0032552737125040713
P 8.527987204062295 5.917763661318708 1.7989755862310735 -0.5920252992414836 -2.0546531254775644 0.6087847780880097
Ni 3.7764469668383405 7.499140036366972 3.4653557367263805 -1.9341429492049333 0.6831320826513332 -0.2494643695475575
Ni 2.3268558455000603 5.990820052053749 8.304499238961672 0.1553861622142098 0.2841068993220913 -0.8036522862262935
Ni 4.5919119767984204 7.370220288209008 8.689236761928827 -1.3478419540417366 -2.0466906760973784 -1.018474125999317
Ni 7.849217076217289 1.2978313338129168 11.28009154059751 -0.6748605866711603 -0.41034780743091265 0.07138410816994158
Ni 0.12385984405454367 4.901283903579168 3.8675663098348414 0.8590901554796236 0.6396225894044726 0.3204376154323256
Ni 8.70256836316645 3.71188441992199 1.8867337938878925 -1.3233169723171792 -0.01999598350595266 0.26915259200510416
Ni 0.9134204971464802 7.472193083504821 12.684835166573109 0.03298982466245931 0.8851806819190885 -1.3405731882944654
Ni 6.367237341636311 2.3762788158516686 4.256019656125316 0.784854693903816 -0.13100439093573568 0.7022896294163905
Ni 9.080199059008823 0.8706441929303543 2.089928939377293 -1.3703072250237884 -0.0011919634255721408 0.49054000081078747
Ni 0.34415935086015226 2.802483097663783 11.715265694837932 -0.34994230975966184 1.9274333983952416 -0.3928812752150331
Ni 3.506240060566629 0.2406277952151965 7.55693644330072 0.37755930014598205 0.872385329926633 -0.7751937737752843
Ni 6.4661952890712024 2.9786510187999977 9.89795740679995 0.8213689867797662 1.991068972968016 1.670216638595775
Ni 6.6446033448409185 0.48232805488618147 0.8930082036881359 -0.10421272466418827 -1.5542709417653748 0.19468341715193568
Ni 0.8365913463328523 4.303391969897842 9.283645286255062 0.10553478590972147 -0.8966840545729975 0.9538288792151056
Ni 0.1357726933576141 5.392181406827921 13.17912087345503 0.027812908447210166 -0.6857466374560447 1.1488079732305891
Ni 7.837568376123085 5.58432895501644 5.56550435697959 0.021195917351324787 0.1681905130677297 0.8829541065814149
Ni 7.733467452925448 3.7174007514569856 7.137582306519964 0.05116263891674415 -0.49929949217097236 0.24443734864661124
Ni 8.463508662194702 -0.14736819025427192 8.898538141073377 -0.1912481662181416 -0.44646666464065693 -0.6500553547020225
Ni 0.8548101746292271 2.4527794135857164 3.867237756755262 -0.5413781665085773 0.30747591306533495 -0.02345206037535316
Ni 4.565263708554069 1.2544380591831477 2.452385523245993 -1.4983450771320324 1.5139311044957475 0.0034326798306327975
Ni 4.5227664877777 1.3666594704272248 0.2331569462124718 0.6023634479426981 -0.03476825671912077 -2.6160529865237074
Ni 5.831574481294771 5.441697716122592 10.620902056228159 -1.2492830852292163 -0.04100266766460681 -0.39122934143390686
Ni 7.600235445597996 7.265755343133427 3.288990870420304 0.09249980710263424 -1.341348375897593 0.00450765806236643
Ni 0.9437033838336867 0.10885094201008921 4.496154621721143 -1.0912160337487338 0.41619809556410253 0.1602154652820531
P 8.34469752157041 2.2332182178197324 9.233495205536997 0.338897621909726 -0.29987830322373515 -0.7889309208557188
P 2.3811884442567575 2.153898784005196 9.118440957370971 0.2954117828119493 0.8155318112726987 -1.8641719193324349
P 6.570697569724008 5.8485901706150685 7.444260471403928 -0.11846589214909276 0.29556347789846515 -0.9831042311404553
P 4.134028457710884 8.41715654306985 5.165343507060783 1.1009656569363298 2.3941241033922576 2.953707480054952
P 6.200309975863285 6.659500240153697 12.339140390099576 0.5467384023792261 -0.14263529030644467 0.27679416771076204
P 0.7191410874984123 0.2672853973538544 6.7182683054847265 -0.8239128362475424 -0.9460770031838288 1.0085938907711276
P 6.132975262337979 2.6314208167130877 12.216559289564989 0.3979103529985083 0.17123084255595025 0.35396608620707426
P 2.899350252774074 5.372010861232108 -0.005689008579661065 -0.591158323255498 0.7808890243878487 0.7707609348149113
Ni 8.002582293563329 7.934958229314526 11.607547887596622 0.005081785398281571 -0.3289363969319561 -0.0663768847633373
Ni 5.639137582382757 0.4685680278999036 6.337301675817296 -2.28075568037073 1.2132328764738782 -4.278131312283064
Ni 6.004074181968628 8.113328949507018 10.139307645434448 2.2615839925382857 -0.2247774083238387 1.4902039360821366
Ni 1.6966219680475665 2.0468576841010893 6.107740145691594 -1.0231501913187475 0.22530525580285068 0.8762185876297942
Ni 3.631556925522379 2.802865787330339 7.401404829086199 -1.2880123834786141 -0.42361907061852205 0.9102183416140066
Ni 4.100249094216556 6.78010348848479 6.554157909013328 1.1428844086573027 -1.8126416126636267 0.21078006560348214
Ni 9.450754662967059 6.86683403437849 9.89312151615988 0.7794540917135351 0.22357490337530528 1.0508031771493258
Ni 6.975723245355235 4.795297533731668 3.4276244023827847 1.567595683898739 0.19941347563775333 0.4263670656773044
Ni 3.281937246493069 1.219995989193075 4.719280431722685 1.0339423968382453 -0.48861115921919074 -1.1001151360105763
Ni 0.8072763844852042 4.292527316925363 6.990820819395599 -0.1350893596383867 -0.03434299625624408 -1.0846494362748094
Ni -0.06295618370624433 6.508057805034746 7.61457324064183 0.29903292450430435 -0.6739625003369231 0.7364742457178993
Ni 2.619594772627066 2.2251070636675987 11.207673588233018 -0.0848083519956475 0.39831401619483014 -2.1439796770585398
Ni 8.510728833490035 7.916859808254703 6.107097973763323 -0.24054829800485025 2.008070906842651 -1.6578164651592093
Ni 1.265116034269501 5.404474145629256 1.7912704564812616 1.1190546532275567 -0.4445920733257633 -1.982205094819483
Ni 2.7151365147458693 5.430105019394226 3.5274597358824646 1.220386199689208 -0.5802475898802653 0.10279681815326812
Ni 2.6508446507644 7.6759333284217055 0.6692710236095345 -0.5419975452601311 -2.257809870207834 0.6338823444865858
Ni 2.707408050260292 4.2525222459287635 5.500462981285328 0.36574148157544756 -0.278405735172256 0.5151176901501515
Ni 5.2301916711429035 4.843712443498202 5.477185182274965 0.23696469441864995 -1.2815730556111735 0.7687467325983599
Ni 5.986918484233735 7.141399869291222 5.033486382364641 -0.02814586630659669 0.3384343091200623 -0.050467926842564695
Ni 0.8278389536418791 0.9310335557023792 9.900771575933284 -0.04627188648334612 0.9702836823370192 0.8069664382011908
Ni 7.390465504959272 4.482630742260813 12.398730771518988 -0.8141228467403141 -0.44384002565108727 -0.8186683000191515
Ni 7.786922665617357 5.1540830969697184 9.147375096330924 -0.07329186671561572 0.020562397532383942 0.3097647090995117
Ni 3.7598886383390484 8.889199579819973 10.227750027543918 -1.223649443821512 -0.5947085025006015 -0.34950676488414
Ni 5.81615488790084 9.355828957872468 3.6455045637842125 1.361774504962429 -1.772561199702973 1.6046663634987912
P 3.4187908048113473 5.392106735673471 10.02288784853142 0.5165176558214718 0.054559837523751195 0.06388908534447707
P 4.98913451678962 5.614160081219225 3.4817768569793714 -0.29171607912791697 0.99293098742289 0.5292957814227465
P 2.751165346768005 3.2988409290816927 3.2875982533898114 0.29773143208406144 -0.9646028299021582 -0.8126701734541875
P 4.735299261131075 2.5321455168717835 5.7012677164428975 0.7897063655691625 0.3798033589851524 -0.44956972904601283
P 2.4432121719218074 2.183151208760992 13.141757294547098 -0.9252135294712582 0.3917687588771447 3.724285609435096
P 4.432834416136955 8.604105112129787 0.5004656783020919 2.06105825767296 1.2701100492768964 -0.9650391461086284
P 8.023704896378378 9.172100582348188 3.778454687503616 0.7326026785776351 1.9654384168841055 1.3642201382894439
P 9.025101080919013 4.973434906566503 11.098221543429604 0.7317079346775076 0.2832581781685509 -0.5100847557119345
