# total energy = -340870.7573916797 ev
CRYSTAL
PRIMVEC
9.20460354860254 0.00000000000000 0.00000000000000
0.00000000000000 9.20460354860254 0.00000000000000
0.00000000000000 0.00000000000000 13.47186770896843
PRIMCOORD
 96 1
Ni 3.3979714701438706 4.302599913327692 1.0702560806141197 -1.513923905406896 -1.282483483240585 2.277432529534768
Ni 3.6213119722339426 2.9229218776253822 8.761105561748577 0.0052044270190749085 0.34704364805562815 1.0770703383759708
Ni 3.5494332226122243 0.52136623744377 4.298105305382977 0.4079109158546459 0.4399653731870294 0.052538179108032095
Ni 7.215829343347534 6.789554945379626 5.2180584931237455 -0.8581702147685155 -0.8990435559441098 -0.2057327329875618
Ni 1.9107468458155963 8.209180960766691 13.208641163582298 0.8111681349873643 -0.01329748843985452 0.2282108594854199
Ni 4.464251161996743 7.444039080749411 3.5470354233707773 1.2095371727898458 -0.11432847294195148 -2.786047642679712
Ni 5.240236065071314 0.9201842232914801 1.877062598890167 0.23936944720540068 -0.8305938478121437 -1.0643636894425799
Ni 7.74188164449119 8.92275865133835 7.5287536501108505 -1.4454150619022204 0.0031323749813946056 -0.8756498596105178
Ni 6.072875303390051 7.1226235271521805 8.80991481333253 2.2420045277444616 1.2687797605012472 -0.16330310306844134
Ni 5.263753827305082 4.909137268472157 -0.1711881384735148 -0.9002527457608623 0.44420357963809304 0.2345188039813187
Ni 5.518794984241766 6.247919250317469 11.111085046499868 -0.12011422638579314 -0.5600672582776484 0.9489887775139848
Ni 2.137649529504286 1.9277937717087226 0.88748578941311 -2.206934423514206 2.0852541381928735 0.027007381826779295
Ni 1.7095342108135783 2.0871346648706592 10.335670828849365 -1.2327953719868383 0.25673519217735785 0.3150035889009479
Ni 5.87255551493859 3.349509232116166 1.9042483956641132 0.07653968422895206 0.6832346696674685 -0.30805903926231465
Ni 2.5999691552246134 3.1687952493625238 12.382101816078558 0.1770029691530371 -1.265898325188394 -1.1899353393985186
Ni 2.0469105470774833 6.638378535623307 1.521256805270313 -0.2194580529934543 -0.27921023335142237 0.2905138312896997
Ni 3.243996860888896 5.291496502597675 3.6986472108780393 -2.0008167963833996 0.3775179053850853 0.010756467185555669
Ni 1.8916657025237764 2.2582758598657424 4.78615087774407 0.5305149985418283 0.4284270335301267 0.4636424050889951
Ni 5.903924804055099 2.1318138108130102 3.8579522060858813 -1.3474632305460794 -2.149270493143834 -0.2936806590534555
Ni 2.1679879030160265 5.980902904078972 6.046982753423871 -0.11780691840885518 -0.22459588844065193 1.6633011424228648
Ni 4.768619789700848 3.8253780343563006 6.874586153105388 -0.6520662144844641 -1.333784447507406 -1.5123308498881634
Ni 7.149473355894215 0.2790375585583797 5.265465883577286 -0.5323841905400831 -0.9050776779533315 -0.18734471739867734
Ni 5.349872098717657 4.708955549074906 3.8802080171641697 0.6455795783188559 -0.8071896099555905 0.30229796840882134
Ni 7.390652379788217 4.305775501574522 12.637177950508976 0.8144259798030296 -1.3928095198913626 -2.3376955880908836
P 4.509813949886038 2.6198510990308512 0.4547184640558874 0.27915726862629986 0.03480065261895297 0.06624087340610528
P 8.316497434302306 7.595353559559941 8.972277577860941 0.12263159349100815 -0.12980111465625388 3.2379874146197976
P 0.947540305232285 8.365493539339623 2.50922925233745 0.3395509392230088 0.0855817398265623 -1.3464489303489522
P 0.8241047298478356 6.444925381467889 12.290438691448912 0.061965900179835214 0.052967553335966845 0.28745858940314367
P 4.0518573062787455 6.146558155320112 1.794129120328036 1.8372005329499133 -0.8586571817072632 0.3076103817606702
P 4.557954026787253 3.6011170719048287 10.713947821272075 -1.2321356269156523 1.1657633701380055 -1.460736522750639
P 7.567150654086648 1.526224529840788 11.771677356827903 1.4206746217327468 -1.5064170555068894 -3.4265652330946277
P 1.287871319256284 4.646262993859959 4.676098796014375 -0.4049474623509477 -0.3965785215609622 0.7740802289961314
Ni 0.7072955486051041 4.567968635519284 11.010637968641381 -1.0396926690584611 -0.6401815472317361 1.861239061956356
Ni 8.385697644272351 8.187117525903936 3.6724315793250084 0.16746263376276965 -0.0013734833087589249 0.2699568330739544
Ni 6.495688770399094 8.498868245706468 10.565958965747283 1.0324236462008733 0.6683857775800941 1.4673429723235634
Ni 7.726344273590761 0.9342120391992145 2.4494149766726 -0.6155421514165011 0.8882300102683734 0.47490383693542726
Ni 4.625589454142918 5.9377056993184745 5.856261525621089 -1.474942381937376 0.14390798637128116 -1.2729269499004012
Ni 6.601633757996223 6.847755654030942 2.1011394692693584 -0.4386700514143736 -0.11776706630985524 0.19040690126376886
Ni 5.308064789102874 5.188791535472674 8.814481217185435 -3.696547005869247 -2.3891719015933046 0.6933331915540512
Ni 1.5033142714455445 3.8201682287107768 2.8103256434567783 -0.8778532950197399 -0.13973328616830127 -1.9234350758691259
Ni 4.289961992565672 7.965231351184877 0.7980142809039555 1.330329141968954 0.026493418304838243 -1.5760227316201696
Ni 8.782664584333286 0.5515223598039535 9.820628154088414 -0.42938245546486054 -0.2799234573683631 0.34365159165494363
Ni 7.0458387238041995 8.653671269286704 0.3021576819160224 -1.118723238030067 -0.49026849231695563 -0.41541750864433613
Ni 4.022513029957317 1.4051103554877895 10.5565417357898 -0.08709200582350163 -0.1852094162232294 0.5000615671479776
Ni 0.8985184273048492 4.767616487906921 8.655715611749374 -0.1742313199451709 -0.6386085463176614 -1.1922842992466693
Ni 8.267142349724043 6.085540837962912 7.485508581411561 -0.27696103230592944 -0.12661731761163356 0.20445180939260918
Ni 8.17329221127571 3.054336003422446 10.054674530641927 2.025864740490963 -0.8393296850232448 0.5350951617133429
Ni 3.441049015057386 7.165434138560889 8.160907417113075 -0.0511613533651635 -0.8111300826605772 0.4432101053765722
Ni 7.0704886522824895 2.009539856404648 0.17068740803691326 0.4752673909224332 0.026744615083695876 3.6371411531071036
Ni 5.648386598523258 2.5061282213798934 11.981609512833462 -0.29174616103490403 -0.32945370288800685 0.5457552125303503
Ni -0.04863160273420231 2.7961928950678443 12.57053293850218 1.2829005161733456 -1.481105316214978 -0.1453819998136464
Ni 8.92662458485623 6.899329048080178 0.9118218409081619 -0.6134593007455434 1.9876604615070994 -2.7353256908448116
Ni 2.1950862560556392 8.724104896141025 10.393653388395029 0.4934697728630727 0.013878814864621258 -0.36110655390659746
Ni 1.9255202346160647 7.539610480073563 4.392354003167797 -0.6677134341034179 0.3054686528273191 -1.0771554418906093
Ni 1.0251074998874545 7.727577690475036 7.803700682823169 -0.3527507257427344 0.2363687127058639 -0.3418104246811468
Ni 7.828248440201343 6.505648151509441 11.301253077625448 1.7101553837722416 1.3790867709886314 1.6652423253096353
P 8.867052390266428 1.590758005778535 5.14871929363913 0.823501973962369 0.04686581131360315 -0.011658667284850889
P 1.3681998949956533 1.0267275101235185 12.350657969672778 0.49810135809781314 0.0046058742031275515 -0.5369196165165915
P 8.853806965665884 2.788396595806787 1.5957699124463576 0.7311235229289473 -1.0366106876990275 -0.41778420910429986
P 2.493554732843171 0.9520597656067585 8.627963731853166 0.11268142425683175 -0.7165232565172691 -0.32742793070722964
P 4.21305752937071 2.9292086218937436 4.791997641959682 -1.03323611479984 0.2522331905419462 0.8862641447912541
P 9.128868135463016 7.483563648667922 5.8404719485816345 1.4619953348584047 0.7240267639831659 0.024133916933726178
P 3.7058654610321375 6.884610886901394 10.429098475991816 -1.4921528322783915 1.3412745852368644 -0.8468704734849802
P 3.9608421857435236 7.984091583989961 5.389057016762812 -2.363695868809387 0.45829682450636555 2.9410627947077477
Ni 4.762323840828873 9.010717843473724 9.01296284629518 -1.4807980693872045 0.4492833081538456 -0.7206141387571912
Ni 0.015618371412233503 8.53797860646235 11.908120878039657 -1.2386639149524732 -0.11216848917615521 -0.43574902111283664
Ni 7.91628126916563 4.702576758770404 1.486432107957109 -1.2586015344166646 0.07110154393251625 1.2169969715020008
Ni 3.552213012903652 1.0255585254645405 12.921406905505652 1.147573843713172 -2.453393430576536 -0.7506675064991459
Ni 8.491329675346604 4.609242078124455 5.680951565649225 0.2938714349080229 -0.41153180043668475 0.2737348120591479
Ni 0.6360749281417869 4.704003472330575 0.2872940880001368 1.3406480073964588 0.027209213424940235 -0.05680441058355379
Ni 6.6973524309781975 3.3807312475748503 8.261690463003472 1.0358784375186934 -0.15210466324946062 -1.328015406234113
Ni 0.9896237529554884 1.3930983477715206 2.9388881830542246 -1.4009334345500777 -0.7126141512708501 -0.4234457782654513
Ni 2.8686883531317 0.10896777942396577 1.9405550341591706 -0.47673034862120484 -1.1221970555112804 1.1298178052813317
Ni 2.717125350023593 5.270638870808353 12.703270686298934 -0.17914804052049793 3.9756934758622693 -1.5991022391474525
Ni 1.8249047125114417 9.268207424971733 6.0655199046421036 0.5687388179097173 -0.28958180639373354 -0.3347638022470106
Ni 0.3699302578655356 0.9858038424556789 7.605044166244759 1.2575892911020665 2.1403575069249205 -0.2460921106412149
Ni 3.6228675502447087 1.7253845382368844 6.793593925445449 0.5168662974101421 -1.591217951303369 -1.1280357736802444
Ni 6.7807921627390995 2.4876177635121417 5.917329468298165 0.3535202569189073 0.4445555636608731 1.7581406534022688
Ni 5.585795293948065 7.797403813490832 6.683744344995262 0.6214487467089234 2.34644299526621 1.0078636974733224
Ni 0.8208426183270344 6.595926903755543 9.967511536719163 -0.08505929166418899 2.030600969624367 0.8912405149599232
Ni 6.441519678130709 1.5653717090111259 9.62187775055314 -0.5406490016520366 -0.9964402861277292 0.27739426318860616
Ni 9.28910187517551 6.123445395645361 2.8880723278824205 0.7582486612805134 -1.52102246412489 2.810783711973811
Ni -0.06036839280241244 0.5605447122663954 0.7011054526746898 1.4909014763697934 -0.1583305895545144 -0.5179968114701595
Ni 1.820330024515284 3.3360428970288853 6.842213562194953 -0.5511064495399347 0.7933449907630142 0.46415791127283285
Ni 7.81779201049584 3.1999620371995245 3.8671669347638558 2.1435713858765273 -0.8954846349482578 -1.3060494434859828
Ni 7.26496351743906 5.043294366146192 9.861555503597698 0.9883544237958012 -0.05293284344328949 -0.797805083416897
Ni 2.812862432212796 4.8365221505613185 10.087087621808262 1.1625021828882303 0.44507441227882055 0.6427421088700608
Ni 3.5172171099632275 2.308772315292141 2.739437309183926 0.0710282674924196 1.2339716516831265 0.48929918642515086
P 3.0892214511195024 4.91775277745486 7.896737134312026 -0.6801822559943899 0.5348066839386467 -0.9881261098350788
P 8.97811513747294 3.1117727299738 7.848009803700238 -0.8749587470807642 -0.16053865294942674 0.28525463977328935
P 7.025919961583506 6.148113733330877 -0.11174020603250226 -0.32260556961792186 2.624467178729332 0.8959176087206182
P 5.780113680843198 0.975375026561018 7.4917861210763075 0.482509160086511 0.5748444165868228 -0.5644594738080732
P 7.335433962707836 5.176300888368477 3.60552975887738 0.9609413218901709 2.0820736835823626 -0.21593924120691843
P 5.283552929678794 9.066764674879366 12.334909813349586 0.35790861579459005 -0.3386579950950942 0.15172336865064193
P 6.191706736046777 8.831587052541689 3.3439330832468053 0.26836300622427334 -0.16861654486155478 0.3805929447659832
P 6.321151076670445 5.273970937316621 6.880810306069174 1.7834958443376059 0.3581816669503186 -0.1704857368598096
