# total energy = -340886.3507194187 ev
CRYSTAL
PRIMVEC
9.11022444093237 0.00000000000000 0.00000000000000
0.00000000000000 9.11022444093237 0.00000000000000
0.00000000000000 0.00000000000000 13.33373434490723
PRIMCOORD
 96 1
Ni 6.6214021450779335 2.342420879655534 11.367061939969291 0.23758613005273277 -1.4158134369857036 0.5930205732752175
Ni 5.150565537270271 0.5140881368807787 6.0612490698964 -0.9150712988309337 0.3886034737752856 -0.8552756668295399
Ni 2.788903863830386 1.8265362065369357 4.922694229178485 1.3042417008532827 -1.4982062375613232 -0.8020445754195413
Ni 3.5540169439369134 4.496852280267461 5.040524959636546 0.23235059268540628 0.379492769723269 -0.7640164170022262
Ni 3.767633484019999 3.1828572945201192 2.817444374610507 -0.14285357696483786 -1.0061747398066736 -0.3434050228617763
Ni 5.421284963451991 4.793681609378135 2.353030646909916 0.8377834235820474 -0.7800333612557727 -0.3173160390842083
Ni 5.397188420099902 2.9119465536274753 0.5425630540457264 0.28118021259359965 0.23523434199110457 -0.7813165988435705
Ni 6.145930427085938 7.977340603639269 12.118351165677915 -0.8880850000500768 0.2833376252562346 0.005123694379810531
Ni 2.171786377960029 6.482024823057671 0.30051805894177475 1.0476911138829053 1.4483281217839572 0.11299715572503766
Ni 0.6262851046133461 0.16301197699883463 0.12396555552168925 0.7110432072393045 0.8551573960841208 0.8358823499045926
Ni 8.735119953160378 9.196680358600904 6.085129700931873 -0.9831247999657456 -1.6893577303006002 2.407784117377853
Ni -0.12419604419723097 2.6458824520782382 1.0896967076376691 -0.1705189040905902 -0.2706320047641081 0.912212746336216
Ni 7.18192691741212 0.9277123639432262 4.700527743561965 -1.5467520076805104 0.932521375986581 -1.522377692601204
Ni 1.0315051497316343 7.667456323064118 2.2385342585565295 -0.7336285487389882 -0.07773061921325967 0.13726142758904103
Ni 7.72622638021509 4.516994986260454 3.557306645942372 1.469857768325617 -1.2171183275712134 0.9730473611250855
Ni 7.9989864966466655 4.09807954090731 12.551430276796461 0.12563104243896428 -0.4006845733095358 -0.8491615835120021
Ni 8.697986678792473 7.1717872377331515 9.16882220362308 0.17868961282684065 0.1846581717054497 0.17973013827621304
Ni 7.119184802453394 0.7755506641210784 -0.04856933896899326 -0.4599726695468917 0.3845825255413506 1.006285040132293
Ni 1.7960533959297194 6.612738321740378 9.446057262245409 1.5149533751126747 2.225239906691613 -0.3673833880542447
Ni 0.15529106187940375 5.476884662536223 0.972750579962023 -0.0006360909221021304 -1.5560560586902554 1.0751769780079998
Ni 6.67625480576713 2.5835411869900193 6.857459900752399 -0.9510253483280396 -1.4993354660697598 -0.5226163125200419
Ni 3.6206126837871078 4.469886016251514 0.37844054070109984 0.2804284220292396 0.9201073185929445 0.32851705000635034
Ni 6.126033697149848 6.058071423650196 4.930375059310865 0.3399561450812274 -1.1069352442562035 -0.1830077805862203
Ni 4.9486191945535465 3.242456382085095 9.610542362518357 0.8734536232901473 -1.2170620204119813 -1.9820773109923673
P 0.3768489845106992 5.9607833380332025 12.205259972716068 0.18398917066288312 -0.19547505981529562 -0.44401203245257725
P 4.322610129737391 6.387078065093413 12.269968985107578 -0.7151777982329683 0.802527942813863 2.646253678476804
P 2.60755573832314 8.845690745850092 1.2304305420606263 0.04001510694035689 -0.26421118883942885 -0.8452095408427895
P 6.722962925905563 8.069818490810174 5.717385474616289 -1.387351324990269 0.836206823123547 1.1016053474028578
P 5.013930392773252 1.2739464395939282 12.465494441716721 0.2294933257422693 -0.8246751683348635 1.2377246909676556
P 4.165057910179352 6.367609515700819 8.080296159811777 1.6330919658293357 0.09799913965430863 0.373620370102892
P 4.8020721259858 1.4410552844738342 3.883276849616496 0.49819957423857425 -0.28204770280021746 0.023301650840417933
P 0.45970009763239844 5.941187245499992 3.6120682043882706 -1.0051342143573012 -0.9147506822667214 -1.9455301079959528
Ni 0.9061530180669628 9.441836495313453 4.2318076128207185 -0.4681917150225743 -1.3169118401217839 0.8174722228285212
Ni 2.003028582476445 6.718717561367917 4.79799712264312 0.9370580875146701 0.2878398840019623 -0.3213956084702207
Ni 6.386349247147036 6.06520472930036 9.160035392257072 -0.5601693310731514 -1.7743350037739443 -2.299269937124834
Ni 9.226106383185876 2.2905108214248346 9.930018798290263 -1.0870752721074828 0.1810149185259076 1.1321351405605984
Ni 2.556565812749742 5.611488227007717 6.911167406243349 -1.1184769263472156 -1.3518513323114458 0.2887932490541672
Ni 0.44186227839482245 0.1939493878001034 8.920468378170801 0.7756761127283416 0.08665106163134109 -0.3135100350745569
Ni 1.9731652671236493 1.2491848498657712 11.406009971023675 -0.428287679738785 0.23596170707543232 -0.1870806651040133
Ni 4.531115833971508 6.710992091136321 1.6009151238545887 -0.32115083944926626 2.2456238696646036 -1.9541193923268603
Ni 6.145939537310268 8.27685744892721 7.901384108290296 -0.6550129558176139 -0.17663890094539902 0.0700137101849762
Ni 5.728171980222667 3.545170916112763 4.35653113900664 -0.42774080609637943 -1.1679629488924852 1.6005623686327466
Ni 1.109944181210454 7.548221707036848 7.124733840092622 -0.10401372127950473 0.6407317633082513 -0.06293392052005936
Ni 5.45074742893428 4.754844723060574 7.113427140677016 -0.15898827774317134 0.7303727608058518 0.03184414109379032
Ni 1.4323094691173108 7.844768619193302 11.736873276185289 -0.8731751728177802 -0.12209886091598973 -0.9668314621223606
Ni 4.438082223116489 0.7582740347022127 10.480128762170722 1.236122379477542 0.2635995233973589 -1.2519410916773537
Ni 8.215736953899173 7.472943923400439 4.449306930513128 1.435025234027464 -0.14109957038820864 -1.1217260294121325
Ni 7.703678574999053 6.721095329917971 7.139507890888115 0.49133112925351513 -1.673877375276814 -1.7178483815411256
Ni 2.3248836978208383 5.36439161251294 2.534729516053856 0.4718609363440454 0.9785842317829145 0.14289574305668296
Ni 2.484649701890996 5.452833670305783 11.478718671399108 1.0729570875385457 0.3474529676789048 -0.9311756605919641
Ni 1.4987685556025594 3.4561275835141583 3.814474613433646 -1.3965041951341304 0.5598443436335648 0.06228625963373143
Ni 1.6843073843014729 1.3947297937572494 2.4572206384790998 0.6730474447218214 0.9084656205889581 -1.9884261360285305
Ni 1.3085926227198228 3.4540960034886328 8.237567784460461 -0.09005751620972878 0.15678098567920742 -1.4398244551883204
Ni 3.898948257508467 2.9075918663978735 6.86504598455175 0.03773762376008984 -0.3634506286587418 0.8084414800848205
Ni 4.240545228975346 7.1041711527580285 5.968379443079316 -0.010813802786052344 0.6838998140552932 -0.2743040542990566
Ni 8.240243457346097 7.43081824609985 13.408536580139556 0.48509080477075806 0.23870918791358242 -0.507360671912552
P 0.5094027485080079 5.573926772096315 7.93681194866368 0.11634601759261255 0.26014987428586167 -0.017771722161124232
P 8.595095805212706 1.930538527484927 7.704524914839283 0.2953410774750139 -1.1942306243397627 1.4215701369638227
P 2.0614524511028876 3.3047885369489842 10.44948743366017 0.8505348097104448 -0.6056516317756666 0.43996357341481646
P 4.213123453742913 6.208708982941983 3.6080688159075276 -0.3748177328451029 0.17011472667363603 1.9207639567948662
P 7.06458722804543 3.994077219959319 10.27417574279379 0.4320083231234818 2.2496823560046932 -0.9745578842323409
P 6.9317510470939006 7.973013247082656 10.027021733885737 -1.1080145933633112 2.238557192625809 -0.3799190586274102
P 2.523623241573504 8.637203262064634 5.715304699379383 0.5226718483483257 0.28060017172041357 0.01397163168874368
P 7.275643795091867 4.020123351317966 1.3752676215216857 -0.7077858766442713 1.1327650608351136 -0.43546542843414676
Ni 3.022544676990178 2.003976045806735 0.24712212312290008 -0.4804625619701273 -1.4883673970940303 1.3474496036993244
Ni 1.5627132201728076 1.01835909602386 6.902314090239735 1.1041404551198857 0.9463037744826542 0.6711944506734827
Ni 7.0682313177773155 0.9637524113915664 9.147155357099725 -0.34065548514109717 0.7924070523297773 0.29824925226074445
Ni 2.844667546952553 1.701698802546893 8.907707686952174 0.08412443855474545 -0.18831710861427567 0.5370551136531913
Ni 6.459367695149677 2.168060296209177 2.4044059349724605 1.3150681020448254 -0.5318923385053291 1.2551804245502578
Ni 4.614465276364043 7.209904416328666 10.141025259102886 -1.0880348078072746 1.4263724434484726 -0.3122499374152106
Ni 7.5658682115635 6.274421031032195 11.058479510450857 1.4190108608770786 -1.8914646936101167 2.695641227770996
Ni 7.938285071937795 4.085789848286529 8.165912226017545 0.026594205548760654 0.8852711847503658 0.5455603229107249
Ni 3.6639044698018988 8.474622198676595 12.255648623483703 -0.1596030285090348 0.2836484716284341 1.5237817720375821
Ni 9.572477112201522 4.778476644971847 10.126024363721582 -1.703630952390163 0.13845030569081962 0.9562536866065144
Ni 9.037898258758355 2.3442429245214758 5.63654316595929 -0.4310436452173674 1.4043787127862009 -1.3220476186864523
Ni 3.976294062067721 3.0338049142617023 11.74085991035197 -0.7772555414003195 0.6192944193700818 -0.9806786524180982
Ni 1.3556560416071146 3.9286840297206465 12.707715264150236 -0.2579441248837945 -1.7948639769652315 0.10124232918195467
Ni 3.7620762471788747 8.585211211814968 7.994560749667292 -1.5479974500518374 -0.1121008691630134 0.18754474922462538
Ni 5.712037772934748 8.006930612262174 3.645869869718801 -0.31327683601782824 0.7554615854536796 -0.5778610919259597
Ni 3.1087911707195612 8.5759916647933 3.437610141541586 0.8323805073989212 -0.12006846074952227 0.5432956952462643
Ni 3.1289612073855433 4.7922786348313595 9.176489368418965 1.346824568520816 -1.2147374860438627 0.03964692496766075
Ni 5.136554012251174 5.08165580044033 10.980583448342086 0.9276969580147443 -1.6101505265418141 -0.16903074958083794
Ni 7.951449346094229 8.986261507257547 2.443206380392704 -0.05742198956289466 -0.9087895795872801 -0.6272977492905326
Ni 4.665573634853727 0.4703863907711506 1.7753996063518296 0.40286461167999005 0.059411509189097676 -0.755438188414912
Ni 6.323880438918201 5.664445961036332 -0.12421517566832337 -0.9448971239431146 0.3201259977291777 0.9903771106527846
Ni 8.498408994401473 0.1350864063609686 11.121467601466483 -0.19526088692196047 -0.44707035966292685 0.32397262516877756
Ni 0.2782362722761653 5.1118653043176545 5.61623556490593 -0.24846035376307532 -0.6031993135804321 0.8664244843575079
Ni 7.510405165844214 6.298289818776041 2.2808421403437116 -0.7126645448928114 1.9944332614545586 -0.564037555779306
P 8.655933883286522 1.7173592781696678 3.158428227979997 0.04232755712361743 1.0660187085474997 0.9064532181446195
P 1.8782458398323805 3.5120734711229193 1.5271396162101485 0.7289725380242155 -0.19323897139592527 -0.32535793555207837
P 5.019578731857673 1.3309400030006062 8.164538404188624 0.1317124727463538 0.7532193263867222 0.04829765866412327
P 8.811992026054488 1.8985616400876382 12.396145592074088 0.2692870607004394 0.046863497320758 -1.3760006758641399
P 6.450758533158099 8.058111852546496 1.086886203431953 -0.9085095864530162 -0.5996843584486381 1.1543029349068894
P 1.8021299155576374 3.326534642424006 6.111224116479468 1.5254200789719536 0.815006277786532 -0.38268556562895384
P 7.326005115186514 4.390453970320756 5.8679629064275 -0.9401390404328389 0.05080654112890604 -0.4728613525841017
P 2.708005071782544 8.589529458147252 10.067889289206391 -1.1120034028077301 0.5994830410711095 -0.15642180256757576
