# total energy = -381168.3986290603 ev
CRYSTAL
PRIMVEC
9.26521077135304 0.00000000000000 0.00000000000000
0.00000000000000 9.26521077135304 0.00000000000000
0.00000000000000 0.00000000000000 13.56057250572886
PRIMCOORD
 96 1
Ni 2.4405862400021348 6.357111296643098 9.995023125572244 -0.17936709850983948 0.42147168525821604 -0.1844439988121146
Ni 6.2624579030198975 2.1156089708817585 13.44262289188223 0.5858114571212878 0.22025278098060777 0.1353313004458637
Ni 8.050208124219726 6.268406168359178 11.188828860912974 0.6620318103376083 1.3373631659976002 -1.724513452266127
Ni 1.3202554794177388 3.4654019423581075 10.060195544922768 0.28621494680402965 0.27546233627321587 0.7981436977032383
Ni 1.151267299475143 8.123375493977207 2.8882932710597675 -1.0558433106763945 -0.4438127719575776 0.2630662766017082
Ni 4.24447645843098 1.2782006875563734 5.519804004115529 -0.0506155081640225 1.6977284708627984 -1.9437904995970268
Ni 8.40047941884826 6.716230867594082 7.803322684401733 -0.553244321818544 1.8463467182255555 -1.1043044915015756
Ni 2.5877455832790828 6.859980613293374 4.333253855359208 0.5616700839883939 -0.048718034030993514 0.24763502964830253
Ni 3.1715835771878895 6.210591252911961 7.541969617905723 0.16222195418912064 -0.7214224935910996 -0.2597521246268107
Ni 1.7484657273703101 8.876803906531185 11.932530655159823 -1.5288288475431864 -0.01998698464488816 0.9556669608651089
Ni 7.954016705602257 8.828995418757524 0.800059292033834 -0.3527676950235989 0.2746501247845657 0.5716140825749833
Ni 5.413217945491612 5.620489976496372 7.809357116201537 0.8350799086079553 -0.14251470556818036 0.5846092092830706
Ni 2.7291141698005 2.704042509351755 1.5692561668633922 -0.7293355777905891 0.20214527274661961 -0.7389895559405854
Ni 6.568052351128162 7.367102661704911 9.397720927316017 0.09419930629224421 0.2480312366454567 0.5273998499516143
Ni 7.539787660760238 2.45439140410732 11.392196532082886 0.33738992701594794 -0.47375918180802284 1.826534054375003
Ni 1.5320304028755989 7.630883213432841 8.098048113710137 -0.1298417380862022 0.7221539724404853 0.22038159324898818
Ni 3.3983588769452764 8.742838223446038 2.3747411663468885 0.7230047504765548 -0.5093288513825164 1.9071684774986186
Ni 6.630601789298701 1.0427809461143307 2.347280934551622 0.31189461095832094 1.4420983388241615 0.6168225607908217
Ni 8.930949798498098 1.1163374547257823 12.933748792106737 0.7280849932129396 0.5122264846452855 0.5663173529524181
Ni 7.828195142818089 3.5301194398579177 1.2945815802664182 -2.0280722896652428 -0.1396083305546628 -0.138890992772664
Ni 5.393529372522807 3.551327507399373 2.2502547204402745 -0.3128883423301579 -1.120638966995541 -0.932009212236853
Ni 2.8520913128663516 2.749404981471879 3.852680341999346 1.6778877819877878 2.7463652364884252 1.8699980390959083
Ni 9.224675511560227 0.2903392785114949 4.512023318352706 -0.44266657416827637 0.24579360556418955 -0.28283008949219685
Ni 1.763614347042778 7.196381887341062 0.7459328570096194 -1.896936258247649 0.31162798756049553 -1.2132573019539103
P 4.087468196064226 1.5671640822627542 9.11373573037723 0.9651769572380733 -0.05815115441943534 1.2006087599519646
Ni 9.032894913027862 5.528996019758988 0.19227165470523322 2.2450271166208693 -0.30287286707568484 1.5542516584916652
P 4.352286451402746 1.4417316583325572 3.2648703522167857 1.3692196483865644 -0.7429721947374173 -0.6150163608200182
Ni 8.022134535468915 2.566074255197185 4.0089260775165325 -0.19756999467111133 -0.25976935101799137 -0.553964230703704
P 3.2618452608876964 8.355756246273947 13.209977154556356 1.5678029148135386 0.3612006562823005 0.9463883637766605
P 1.974323771257621 3.480226279652266 7.555042830357008 0.22172885130550202 0.38394900572240975 0.2872611286803569
P 4.512704311347156 6.543619990225227 10.308909937354429 0.9355961582571629 -0.3784044217550967 -0.25655341518385494
Ni 0.4663143539250437 7.912971821719056 10.105027120463546 -1.2725029749891053 0.15794980917632798 0.5160512577080144
Ni 7.393869855731676 4.924441014481594 3.4652953924338057 0.39933911502523484 -0.3849885027305176 -0.2969112501756112
Ni 8.650149054514314 1.7071150915304174 6.1981174996000075 -1.7229432795655293 2.294989564581925 -0.2332023991627403
Ni 4.584333656110368 0.9623681815043307 1.1195320994126736 -1.0945767226908503 2.5429277272929434 -0.11533120317485297
Ni 2.0757407687712814 4.834466552316862 5.707468996006603 -0.9189526361632109 0.9320477787842723 -0.043973834477788784
Ni 0.7637239148047711 0.3750659252740949 7.381508211470511 0.7710087891596592 -0.5538187062647753 -0.32853221951500194
Ni 7.59965945300702 8.031140320375115 5.208886692397581 0.7523556928348462 -2.4057053804719537 0.9278872196486794
Ni 1.7328816427898264 1.1182090273091698 3.3461123531941777 -0.9910306850763836 -1.3340672688551476 -1.4144931755123833
Ni 8.841577575035942 4.544113375989155 5.947952175155682 1.7431063847769657 -0.9691274572453891 -0.28882435940241874
Ni 1.2556862252908705 6.14112996747802 12.094999832777313 0.03446538076672129 0.7879392463664107 -0.7677378317178714
Ni 0.18505961461162523 1.2481906697465117 10.72699608945617 1.4784285407137636 0.11332959936379192 -1.1667535019654165
Ni 3.702118813313389 4.370270225582722 9.034487602765903 -1.70675715672397 -0.05975603701271 0.5930719953384431
Ni 4.086235923026648 3.268599599567347 13.168658020433213 -0.6277206957605641 -1.2913779575167372 1.14147930077966
Ni 3.721288534476898 4.7565368642036345 3.6705624318195307 0.4022868847996491 1.3646148026247016 -0.690965719763139
Ni 0.08303389274782333 6.269536524077858 4.329700647014015 -0.0665352647180725 0.5359919624959995 0.16716310024447986
Ni 2.507823874841952 0.14316325785509118 9.892600852685824 0.36583918349557637 0.755570343117402 -1.303781473387413
Ni 4.778847491831343 8.697698116385327 4.508496979118858 0.4090041489188246 -2.3023586033524865 -0.6651215050065256
Ni 7.647486471202298 0.3020996105911668 7.631238997527902 -0.20503622114116946 -1.116711606916677 1.2840585410371885
Ni 4.630391019041156 5.805933170835483 5.586264287768484 -0.17360268522223649 1.3334651164947746 -0.8713975120920671
Ni 4.408461424536797 8.251355850879836 8.649665410510092 -1.0033395843507238 0.03839274084558549 -0.03040355199252183
Ni 2.991013883734233 1.4134171741007149 7.315589942649873 -0.9518612139657736 -0.2389195041521756 1.354522708496022
Ni 5.982018502257657 4.840970730304674 10.139376036495191 0.6370211472258834 1.0792709455717153 0.22899556017024433
Ni 0.6280803020421418 3.8659184752030296 3.9432246146288223 0.6435352941953175 -0.10434410803572997 -1.420293327133928
Ni 1.5383492766472338 5.5925831615401185 2.5020748115350613 -0.12032299996248955 -0.7976611016398649 -0.2606723224482349
Ni 5.341727578890533 8.389639122201908 0.2643485091505118 -0.15410292462641204 -1.0270577539032697 -2.3658196000206098
P 8.963785705604659 7.914936046410532 12.576319195607287 0.5502163336254976 -0.2786839285343071 -0.5023598762638509
Ni 5.9453190022438065 0.626862853341859 9.984134649829686 -2.3856847143756523 0.3647999435977846 -1.0434482794461513
P 8.421446590908685 4.231949893417416 10.088197791550353 0.5932527438906815 0.4541198103105405 0.4229179307864394
Ni 0.7189423714023615 5.264937511706793 8.551961909488618 0.8270729791430788 -0.8132579276368574 -0.13901723393788315
P 0.5395632575376417 3.516397662650012 1.5781933892096078 2.732865659340093 0.4655252239340047 0.38964837010003217
P 7.862902622508036 9.332383587213096 9.942286472169357 1.8442085888366302 -1.2813218588323159 -0.8327551171295207
P 5.664360749676271 4.489485693060181 12.933694127362967 1.5023660253659672 0.9132812968100466 0.07688266939066758
Ni 6.830730342769838 0.7126642645582855 4.978330260109103 -1.810277226196508 2.2977362740891265 0.05162929414051753
Ni 5.531164079088259 3.3057716253324494 8.283394023335756 -0.03347319205678106 -0.5219879349074237 -0.5424361754594464
Ni 4.648782462496722 0.9364348564503624 11.89740902054672 -1.519262801121306 -1.7396132840220426 1.653280782072385
Ni 7.806977810065824 4.488846393514371 12.403828765978947 -2.9780005482743612 -1.8750970508853708 -0.17070093819440926
Ni 5.23325049074053 2.8614955018373336 11.081456185891385 -0.5119135813905571 0.8525456694928866 -1.089749476505536
Ni 7.712630168399315 4.5092113268722205 7.919198043382603 0.0833129983970436 1.3174617990879827 3.1185154498036938
Ni 3.9523999528928258 3.648714138211184 6.243748662833588 0.2884944868668257 -0.8243643219626642 0.8617569036785094
Ni 7.3905714406837255 2.488691214521679 9.249748098530054 -0.32126448220899506 -0.7738431732846608 -0.9714918437125075
Ni 6.3428336067866615 5.654687869591833 1.5013857181253312 -0.9085337548227321 -0.34055804033128445 -0.5001471848832483
Ni 0.6825171216284528 3.668189611331384 12.462789788003219 0.37434233587058113 -0.6577411533820543 -0.00807686347086351
Ni 2.351139894853507 2.0483528056203237 12.110689540761019 -0.24460704145525616 -0.7046447599121284 -0.4541707181531339
Ni 7.141328004714881 6.902813682862683 13.388881889627664 -0.3961717730408467 -0.23062461113323507 -1.4085094471251225
Ni 3.6508358714864104 6.531741989968283 1.6312552515118859 2.2472675759156138 -1.2389487931827436 0.9916148397146277
Ni 6.898681398841936 9.258845609023263 12.056379654562788 0.7603513094458131 -0.42882195497570014 0.34517342761610875
Ni 8.595567697639384 6.7735361964468135 1.9242045399082335 -0.47285621037777914 0.48866103862051974 1.7094681278972301
Ni 5.908174772111131 8.108236139515547 2.374604967747998 0.040315668899911214 -1.3281059090653902 0.932675127955626
Ni 4.210797417140814 6.382803726216035 12.660340759827333 0.050036238621784794 -0.36595179781404075 -0.32446550564479604
Ni 5.530172701531712 1.2193851293418003 7.344717912390733 0.111168330046415 -0.9850492706819679 0.5559360097180942
Ni 6.084602916333233 7.659512714832184 7.038167294526995 -0.3738728524333303 1.266818265899502 -0.945511874708978
Ni 1.518475399462253 2.323205284264828 5.637807582019191 -0.13453734378965862 -0.37220909157766224 0.5969620744214688
Ni 2.9830550676494316 4.476301298079189 11.477438324566457 0.16040675535725277 0.08071489865256423 0.020126595546545986
Ni 9.135683161741234 1.3319203798260795 1.8681991201319843 -0.43191807740252064 0.9347037283498806 0.5683678077235437
Ni 1.8045758440286994 0.2606933834864209 1.0779655841609346 -0.33508416170090677 1.323360423960605 -2.285058421511142
Ni 6.996781450886028 5.749832319387902 5.616192771723227 -1.0540412244706492 0.43871813104348956 0.34758537949171103
Ni 2.1036475837275344 9.021378255992463 5.138222782600652 0.9411026898976889 -0.21415052473761184 1.7384516596137738
P 7.908070525201175 8.503332524037292 3.1254409743176605 0.6892978451424129 0.48833990783567516 -0.520131341314659
Ni 5.809991333169759 3.399915432361163 4.555538307437546 -0.32564975576088434 -0.3922909499292018 0.8730808133317608
P 6.924475745733771 3.458925560002722 6.455226173024484 -1.3596266053814907 -2.098876099851682 -2.321250555160983
Ni 0.19105791208927403 2.3138752169803167 8.398727367484307 0.8205179516333805 0.4312704165161928 -0.7844613151201393
P 5.517775849469472 6.256926572167013 3.463288547772609 -0.6076887168103534 -0.9095861073466465 0.6488957871762825
P 0.8330916216095423 6.825087829387249 6.2715341035282455 -0.08226116009376155 -0.6758167799368426 -0.32940459481762624
P 3.7618238317656116 7.934022380676761 6.342551017856992 0.601231391220784 0.1441532696128679 0.1001354692710211
Ni 2.3496574611240915 4.849355746086683 0.3247298879917803 -0.3702738222281623 -0.4481671922715314 0.09014467660689637
