# total energy = -381172.67619887495 ev
CRYSTAL
PRIMVEC
9.20780974559804 0.00000000000000 0.00000000000000

0.00000000000000 9.20780974559804 0.00000000000000

0.00000000000000 0.00000000000000 13.47656030235579

PRIMCOORD
 96 1
Ni 9.083992478996537 6.318831919556209 6.846861144445333 1.156625155282163 -0.493376441818318 0.7408723747855951
Ni 2.208115683998407 0.7304104409957175 4.914848085726506 2.3495740846960245 0.5740815702788693 -0.07307666538101608
Ni 7.514291086514901 2.1723249269221427 11.544183008343856 -1.530103857600868 -0.33321856924707777 0.11587936236883914
Ni 1.7492168542667765 4.31868382992994 6.87956820598652 0.25802871417780077 -0.8574443923460846 1.3653370255027069
Ni 5.773738781362806 7.4390909030721835 6.261722320221474 1.398255116386966 0.40773453817778166 1.8314875417255363
Ni 0.5547760710828803 1.6529952408253152 6.567613131304354 0.007202688396026305 0.49626661888191953 -0.21580991471790578
Ni 2.988192130806746 0.43732585191995604 10.346925556111946 1.2026838973134384 -0.12086730250173378 -0.6588680678976458
Ni 8.321825222441177 1.7626786723386823 2.4712776532463487 0.4929578662236607 0.26182546221607167 0.026156346680393662
Ni 3.24352469929782 7.388733390736168 9.362516758279478 0.2474303698366642 -0.7224447642080267 -0.46601733307907484
Ni 6.323481863555054 3.648207944345879 5.073965486243048 -0.3882951985062474 -1.0636759193469358 0.5608478451974148
Ni 3.7386194297412576 6.340893832073505 7.002852493501264 0.42335373277227734 0.16288684146662916 -0.03258101925981486
Ni 6.41668331534974 0.08304155435245564 12.376496281488535 -0.08033334694342939 0.5138372807758312 0.5875675205804461
Ni 4.590535209379289 6.761267185188956 2.3622654710745974 0.8114288448479187 -0.919924256047861 -1.079509801055399
Ni 8.786340816211018 1.7222011400239778 9.078700750647752 1.875483487690512 0.08575554640026521 0.2741916970909084
Ni 7.2198713650038275 5.811039619262457 5.398777425886775 -0.7431120627493912 0.06705848421139418 -1.2384515418313509
Ni 7.027547839649589 7.264510827392747 10.972130323548036 -1.0514719210815762 -0.6116261041915466 2.486696158493724
Ni 6.682172098159085 2.5913631476022823 9.332517713629498 -0.21553763489312558 0.386546848356573 0.06412691238689601
Ni 5.02455453676462 4.026612099943036 10.639946611299406 1.6082761923372366 0.9384647380542096 -0.30931270916375764
Ni 6.15741901203192 3.5818104271663214 2.6463650792512032 -0.5595939181856556 0.8475926963629854 -0.5791178471511962
Ni 4.445502995664795 6.882460379075703 4.592757974688836 -2.8615254613030525 1.8312890525614849 1.589042026697973
Ni 4.199590016700097 2.634335996399536 3.861775728698409 -0.05815552529480952 0.22329645290293798 0.5761682776045689
Ni 3.4504886423909986 2.471136773754899 6.746648866193772 0.5058606903282579 0.766465649873667 -1.0734561386621513
Ni 8.44191347914008 8.081004162350462 2.40680548911661 -0.8513441929856177 -0.5580260594779034 -0.6543215861775441
Ni 5.921754325484479 6.775530082722049 8.764534880808906 -2.9300810988852635 -0.3780480668569425 1.0125695875894238
P 2.422878642075789 2.452592244618908 1.0976455231857458 1.553579572125305 -1.3113618568378318 -0.7442122377921053
Ni 2.3350453434520473 5.06719590440552 3.237096727207534 0.5038999670574612 -0.707853239547097 0.4941593427309296
P 7.080455915327545 5.801859432793449 7.453845497653867 0.38709500755055914 -1.4799961423111994 0.6511467879939883
Ni 7.0236161048228425 5.968041985845266 2.6239937843213106 0.2982816481605766 1.139752290786224 -0.595057144089272
P 5.474982181389442 1.6424430906814 7.170527632537661 -1.2489778952839714 0.622395684003225 1.1303358825683307
P 3.6487604129398012 8.745780413607225 3.587837859526013 -0.08433064102828056 0.6619207386810406 -0.4614693086970762
P 1.2513597808537273 1.4588485691111326 10.988437354878641 -0.8494284640201435 0.1073507560725377 -0.16949149126734034
Ni 1.931614360550212 0.1718665341022875 12.943778399975836 -1.3921371764146864 -0.11384921931268781 -1.0472820513699446
Ni 8.958692601894967 6.720172729611038 4.3226201686616355 0.11248833440941916 -0.5092365487790262 -1.302120283634906
Ni 3.386254960537637 8.41398619171731 1.3693937751642293 -0.9715257822742365 0.917424886664775 -0.3073617560849739
Ni 1.7276797869137068 7.422038039139782 2.966433155235118 0.5393367105985163 0.4018474832693853 0.10314057464593206
Ni 4.42315564104064 1.3324161313920224 1.9096555755037818 -1.430696010524491 1.4580636039041661 -0.4924248765383261
Ni 1.1659941752828387 8.25123815175771 10.1197513910721 -1.4317231662374246 0.08455946920963502 0.44136251064487214
Ni 0.8617847102874626 3.6715129111994997 1.6080905935113137 -0.972316653606648 0.30548716477008037 0.5519772821806623
Ni 3.2388563396791765 2.780915122177011 10.939247392837784 -1.6274098278428941 0.1913111582455931 1.687545616792526
Ni 7.480857528772706 2.5408767259276863 7.018687164184066 0.2468834961942587 1.2615246216007305 0.9163990165034217
Ni 3.3329049099845434 4.833216247069543 8.776973711201066 -0.12206055147888656 -0.9536113638876608 0.3119555461032434
Ni 9.067943266343095 6.292451544196421 11.089012420840211 1.2630204894199668 -2.575768170861732 0.1577520913432251
Ni 0.02400660196790215 8.749620070334984 7.78443902113299 2.0339344048729746 0.589174974276882 1.9875802430884675
Ni 4.920681233297335 6.440955102242725 11.182364880717236 -1.8141999582896822 -0.19832281367673585 -0.7845734152179713
Ni 7.367702752927528 7.015016010377452 0.2822387097960776 0.33428094907332107 0.5374510635400291 0.2537758524387178
Ni 7.621921176420858 3.9163117451664555 0.6974888374838899 1.271115093502643 0.6842759664477893 -0.22357387493404074
Ni 4.008481922252487 0.7114681344721029 12.661646500774584 1.0993972840079451 -0.004261089269199113 1.567605968311384
Ni 5.372904400852406 8.676353526970994 10.268303750510867 -0.48174554244760903 0.8156775928219436 0.9193781537364036
Ni 0.2915754290333639 5.557447326842239 13.419244842058205 -0.6833822509889262 -0.45487828574311984 0.5072925376787779
Ni 3.695646580944004 4.544532991125362 5.394006859578256 1.167446671377699 -0.10104949644485822 -0.947797071198729
Ni 5.0374270550030085 7.545395068352724 13.318682667030496 -0.41456750193921504 -0.458471659521333 0.3886034737752856
Ni 8.254912067907293 0.29358457315326114 0.5019628358468813 -0.3930689657458069 -0.18885909716067473 -0.7591076668466992
Ni 8.29118163109829 8.296135432823792 5.978471672117529 -0.9704086379506578 -0.609177385540738 -2.0847509733042093
Ni 6.69314780755834 8.388010959993064 4.084475818908474 -0.251790703687889 -0.6816405857074712 0.1550802009380168
Ni 7.936736196857561 0.04721672837956637 10.484669788291614 1.3469119860282999 0.3388719108781132 0.4233205655414968
Ni 2.086075371600979 2.9478987546900157 4.673375112694963 -1.1169273224719085 1.7103361323244803 0.558754967224128
P 5.675712437181199 5.421236195010705 0.878845861248772 0.11839878635658319 -0.13714032863014447 -1.2339451693205652
Ni 1.1819973488867872 0.5712543676776016 1.8248479632127548 0.6332673366104062 1.0358707242092096 -0.5186964086403454
P 0.06279634272817425 2.304806895744702 4.409638576109342 -0.07804609357114946 -0.3794765717733529 0.19772374664015627
Ni 8.973977566326816 3.992920723523676 8.379900721034286 0.33952471397076367 -0.5878151178148779 -1.5121467589018152
P 2.0293920938645544 7.483058195338496 7.401704432540473 -1.0010703287005727 0.029709868359606897 2.077664241660757
P 6.617192583703928 2.052540527949897 1.1013571913559135 0.059644708245826315 -2.4337394037910345 0.5465591964888844
P 8.619126988450546 3.8858523100215407 11.900841079303241 -0.08110622055371193 2.440797081968764 1.0050174862737788
Ni 7.4252239413647345 4.937568356651559 9.675590581864336 -0.9616838564831502 -0.1125613537391997 0.663966822576792
Ni 6.304872879749772 1.5646739282769424 3.7057981913573257 -0.12725392275436792 -1.2216239287510509 0.6245682661745114
Ni 4.847046377537397 8.673130793506447 8.145610760504722 -1.837003586447759 1.4298822563739437 -2.2009553231126358
Ni 1.742780595147582 3.8431096564717553 12.707102695901519 0.7960356502213 -0.2649436961300792 0.8659570578027861
Ni 1.4509482682180443 7.91436121880371 5.435123413899931 -0.27758246794001223 2.3846290194176287 0.7942613319296966
Ni 2.067972817340126 2.4816797160889155 8.740331231709172 -0.953293575536926 -0.03959807400759632 -0.3430239853732737
Ni 8.797371772469665 4.081684010947186 5.758736496694847 0.8490859930790603 -0.7706272374505244 0.31846840752109673
Ni 8.089447724027574 7.1415957730549415 9.122715002744549 2.2132117718824853 0.5723977548185433 -2.399373524716655
Ni 6.836513407681169 0.7066294303703338 5.956733874508668 0.14417923775479685 -0.5173311528617026 -1.8024518166148182
Ni 0.3632600706567575 0.04528400908182831 3.949494850479406 -2.2015219942493824 1.3221820873817873 0.6914580860185253
Ni 1.019921479049792 3.699384951762878 10.504938940221633 -1.1878393761014383 -0.2783813096922238 -1.1592235121369585
Ni 5.116908870048626 4.261742733516352 7.3146049963656585 1.5331593565977402 -0.2149275121129524 0.5263945486155516
Ni 6.991066496830922 0.29873726357257613 8.40473786745505 -0.16101996346121944 -0.12268610087802742 -0.6911701224644613
Ni 2.6121727979733547 0.46394931346107 7.395141105644676 -0.37891838527703775 -1.6068865110785617 0.8316989079508643
Ni 8.30055518157517 4.1882552027147915 3.460915566320292 1.0179519349472597 -0.5958153624115352 -0.07163401939721857
Ni 5.598191885644007 3.133620280346884 13.152193493909051 -0.8895021921125779 -0.5031106383869464 -1.1058978041306244
Ni 1.02284956259758 5.867161220595062 8.995091995205536 0.7900174690516781 0.6295037558029158 -0.794537982629851
Ni 0.7422498429634717 7.783076265267983 0.622670778151967 0.18131136672040388 -0.9563994681557594 -0.08642429033251567
Ni 4.399528400840564 2.2143125400602353 9.048337997506774 0.332751142692356 -0.7277926587835014 -1.2444725512144503
Ni 2.4432094863321283 5.475801676470427 10.801705732475886 0.9393137163180663 1.3111952493529806 2.0574381444218695
Ni 6.736083825115999 5.215542929683547 12.158579648520847 0.2714298180750552 -0.9511006816506653 0.4870751821906385
Ni 4.550370742601141 0.12028530383073525 5.654010550030942 -0.7749757442272073 0.6174727927803108 -0.8567782195169954
Ni 6.192915119191425 9.188620822875516 1.8195783336077263 0.8607994248612465 -1.6018031830183832 -0.720945811064997
Ni 3.8853458804771126 4.685615054393311 12.774135551964086 0.48076106704715266 1.4518834432353833 -0.068575692186869
Ni 2.61099419830632 6.032422992657008 1.0483377011781836 -0.6948866520841 0.24518553966654547 -1.1712878995006601
P 8.881365414365648 8.030821598402524 12.175776154287666 -0.3180266919979878 1.1856801636665901 0.6684500551591261
Ni 0.20431209384235227 2.128247140937045 13.051186581663234 0.4906904103457227 -0.4687411597681412 0.4425770997782636
P 5.508369700082144 5.321662938766115 4.010933962028512 0.28232358216942344 -1.9683401639119327 -0.16633134837180388
Ni 1.7619236319269884 5.900475076808574 5.316125361893035 0.7959184079171454 -2.4933735705138993 -0.38732486417317813
P 5.06911112886445 1.5010755853065911 11.105305640455969 1.4818082558192738 1.1250093281490947 -0.9576883621705119
P 0.4120789579586984 5.642555113735964 2.438165448069618 -0.4131148286530885 1.1348401981965874 -0.8826358040100477
P 2.9375767997935682 7.06784121576632 12.499361613652887 0.47278216260673417 -0.14716197453220464 0.1508273391989338
Ni 3.916173628017975 4.116590818273175 1.8000375194406957 0.2838981257453949 -0.7984005509090508 -0.7129481375715011
