# total energy = -340854.1372253634 ev
CRYSTAL
PRIMVEC
9.34761327922218 0.00000000000000 0.00000000000000

0.00000000000000 9.34761327922218 0.00000000000000

0.00000000000000 0.00000000000000 13.68117690536639

PRIMCOORD
 96 1
Ni 5.939809957482145 7.699778575556566 3.346716615469339 0.05727260846922394 -0.8666841657767976 1.4860906852447116
Ni 8.212513856195073 3.0671108086717918 3.5121768476491333 2.2565873106546426 -0.1777737858807906 -0.4226821606265495
Ni 3.355578152806998 1.5725115824526643 13.320787249225825 -0.414229401873506 0.15890291711821666 -0.09871699165693967
Ni 9.490164327066372 4.073119639213567 5.745109456372041 0.36505062615600997 0.027904439719751938 0.36260602127025937
Ni 8.424480333693776 7.767361819176059 4.109032234464152 -1.7915153722079724 3.669462233837313 -0.5232043238130278
Ni 7.977019436208092 6.464631702021068 1.9737148811312357 2.2723085780446417 0.22352810929776987 -0.14479424563097643
Ni 0.8341623090064013 1.9854797871366983 4.135929056758859 -0.022923955786025036 -2.602991525354059 1.4822173183322342
Ni 1.8411059008707142 6.983255978991564 6.512568132163458 0.07400174829844675 0.22003963652853717 1.0255091784692274
Ni 6.232465032342321 9.12352289352732 12.400523140039134 0.4090645698431149 0.3903708500883535 1.3350928819061845
Ni 1.866213589994083 0.3481481155339633 6.511433331917897 -0.9245738390047302 -0.5170804703034773 0.9096149037020528
Ni 2.2233017628167993 8.262411415592148 0.8053866164533936 1.713849287684061 0.6386681959110033 -0.10867256020775477
Ni 4.402744524380118 4.5137287362050476 13.19419532759848 1.3159170803086822 -1.4617212552614116 -0.013708350725028004
Ni 6.125079651609163 7.002465324169718 1.2006139859969798 -2.961187847592397 -0.5163104249066721 -2.0939483235327616
Ni 2.077834205803446 0.3925277788440968 2.6308352651715974 0.18454530027666927 1.6567407155965275 -0.8695206067843282
Ni 0.34642908946181605 6.167424339520132 4.492009556875879 4.273826771370439 -1.9330821120405868 -1.3184948683381872
Ni 7.59512269788522 2.9800845295435106 14.033603517146966 -3.178770537940009 0.32625602188631553 -1.6262708291424444
Ni 5.184279770927635 5.7701507774415095 7.478856149826629 -1.2092468952429367 -0.03081595693959209 -0.9461163410621964
Ni 7.16501097054584 1.1987192247961953 1.7114470273441227 0.14152637351298206 0.830828332420453 -0.42909937700680295
Ni 7.567248115247138 5.547219549629438 3.97038656558268 -0.3966304578448201 -0.7761785062860568 0.581134877581225
Ni 7.27455564993406 4.446921344483261 9.8885081908593 -0.22134267161067683 -0.9376095891427659 -0.11546155810513019
Ni 1.7057057233010946 4.287722143641826 13.656441344922747 0.9008371575094227 -0.24138416364258428 -0.7309507447965089
Ni 8.606366191833207 7.837936299027673 7.409192127503166 4.289765554087882 1.1570784407694976 -0.12269664240098868
Ni 5.45486513096269 3.589464783319215 8.039525056323559 0.06066312220801165 -0.39979317184351787 -1.9588448228269877
Ni 6.536206376487797 0.44910140360673756 7.684415773220655 0.4451402325197495 1.0594479973085174 0.27682065007332324
P 6.272856069089185 4.754897157419834 1.8014551950913003 -0.6675614819065858 -0.37328844068476996 -0.51717791511329
P 9.453615159355138 0.13136200865625583 5.22077846152745 -0.17519368385844022 -0.12146097022167471 0.4926053679802484
P 8.271114043504976 0.3893009827586958 13.258455494716353 -1.8922355103378703 -0.9355102834115759 0.05508357123770513
P 6.652425251718939 6.355900264983456 10.63837372379923 0.49194639424001074 0.5054667973239488 0.4110921417961049
P 2.29995219126491 2.51422752923028 1.3719071288294111 1.0062827261394476 -0.3925688861809368 0.03368736495011617
P 2.541270174291303 6.131221033498237 8.774751292191223 0.202691889278709 0.8926721052001272 0.46878409719093456
P 4.63625725036332 9.227412266914184 8.482192497747267 -0.077117411109293 -0.12554799580685475 -0.07081512304034901
P 8.439473905307285 3.1909199458419413 11.491244345914906 -0.10707153426922206 -0.07763008907965341 -0.5650084043330076
Ni 0.8536904077955413 1.1051309211836975 13.162126470906172 -0.012467536339391431 -0.3404333418279621 1.8553278386782435
Ni 4.588780722791618 0.953989362942539 10.971756349482385 -2.097156288947098 -0.800884493673169 1.4796999512270195
Ni 3.4298262446561867 2.9595665185138027 3.474895761822353 1.3386669724106879 -1.8581303411240448 1.3563471632992705
Ni 3.443782231201678 4.409549586808195 1.724334581697953 0.6437430393307494 1.1583313393399923 -0.6859124736099478
Ni 3.2095497390001224 6.329250219677898 -0.20207763746757307 -1.2057226841397621 1.3744423302380846 1.0552681548992149
Ni 3.9975254910599243 7.676633885210527 9.996357213208437 -0.6679327492030754 0.6586785775946591 -0.3173906010758856
Ni 6.796715009465894 8.834307740334081 5.534282452925513 0.13672535257991292 -1.5912791435586078 1.504156798717803
Ni 0.8364496699626516 1.1496162125232778 10.247749119007821 0.18602239904282802 -0.9094889196471497 0.339103567272945
Ni 7.293278919224495 4.985857984992507 7.744613467630776 2.400785317462517 0.2713020342479392 -0.8791571014328278
Ni 1.4718564832417795 5.978527771461666 1.6187570293625837 0.4184498677127567 -0.47781098327989324 1.5270815258347765
Ni 7.753938646584414 1.0981108636514376 10.971483399176204 0.5332385681205783 0.009422578865480546 0.5446411535305653
Ni 1.4430284440547099 8.374386474418968 8.88076631282554 -0.16740606949322137 -1.336689536969343 -0.2817114025067213
Ni 3.6647504602364203 6.6250928306479295 3.268720130716774 -0.22099891511801298 -1.1891089868424811 -0.7341137159055228
Ni 6.811297286097485 4.5490720618102065 12.09862047141509 -0.8451082393782348 0.14838710518855733 1.64203014885923
Ni 8.833223417199937 6.344720519565902 9.602489921389143 -0.3489465215052958 1.2377151778859588 0.8238974096285745
Ni 5.4862731113999645 1.7171378542757336 5.370436553549741 -0.9936092444368372 0.4910462510232446 1.3773535903476084
Ni 9.088572167677626 0.09277132221659977 1.638444037576555 0.5001078470048806 0.5806083156537936 -0.3166182416862354
Ni 5.3967697147669575 5.107358261695988 3.74907995294918 -1.8294370869544105 0.15944593410588023 0.13970011893752068
Ni 1.9302073501350303 3.932241760293875 9.751395530546791 0.47247825821307016 1.6420972546517394 -0.11702787415098555
Ni 3.238770377942658 5.82129156939756 11.303470426204807 -1.81113648887301 -0.8027050918216756 -0.22194662374326293
Ni 5.365847810217403 6.712296714427493 12.43988406980856 -0.084057589872552 -0.5604999749396927 -0.3384299382446881
Ni 6.124322494937907 8.78559732781663 10.081481253045354 1.5892454009580308 -0.8254228451341656 -1.2026702704666836
Ni 3.262625486893826 4.782827825737268 7.143216075549545 -1.1125348498311678 -0.49346180244327276 -0.33017978242075396
Ni 0.18728223525444262 7.405945701429992 0.43697661449209807 -0.5994429318617934 -0.016672575559674514 -1.2807035085220264
P 2.0652055803359586 3.758740711217609 4.931024885812432 1.5738745749289154 -0.8749921714218607 4.5910299390258675
P 4.027419158154688 8.426471375310781 2.407572197090025 -0.5317990074605745 1.4454978514240138 -0.7468576458347524
P 8.335191932164953 6.085772937996444 5.984023233276866 -1.1259223268816674 -0.5226577072809385 2.297523129637056
P 0.8417329409576361 5.7651404567527065 12.051913252411838 0.4349792328263476 0.6418591920444753 0.3330388491361039
P 0.6702659325192127 7.812305143563683 2.5734979404084433 0.8940468740604668 -0.41630428212466364 0.5749120365999647
P 7.817633283102149 2.4065710677135863 7.507860858903658 -0.879047572438157 1.1899754486078344 0.40746765766964016
P 3.6878297172898815 3.080421809904732 9.054668374509173 0.39239842204134356 -1.1141824127369198 -0.9485159516426244
P 2.4641149747290214 5.891697792211117 4.7649215378427305 0.5329608889791596 0.2136645862401288 1.287452654320402
Ni 9.177626878875815 3.2471925774587254 9.081168858003124 -0.6801277486073706 -0.6788501674465277 -0.07297330703393239
Ni 4.288591471671786 8.853376871313856 5.872932458661168 -1.153638561850013 1.4586662704851716 0.4645368918788064
Ni 5.446340107701143 -0.1220050478176511 1.1594330759325713 -0.09351230752754863 0.03372361750469031 -1.1099233803502497
Ni 1.288213273815977 2.840954654296964 11.615866725435662 -0.03245632075649249 1.352267079692626 1.5341075794436225
Ni 3.553027786966686 1.8224480648728572 6.705199071705462 1.4059691972017723 0.9769181569344013 -0.13923706325817312
Ni 7.6197443111208685 7.035181970458546 12.975980905419936 -2.313556528950835 -1.478479191446041 0.6852198184182974
Ni 1.8969204994394544 8.444119669080298 4.502598533137588 0.28597429154813325 -1.4528152110210333 0.012771440733055424
Ni 0.7739244198594117 5.131260108713283 7.984307770239921 -0.5639992463422029 0.9447284595757343 -0.917313043677259
Ni 1.6784480831358883 3.041227267650717 7.23649403840296 -0.8568067587620856 -1.0840128311320751 0.49848548091010925
Ni 4.784444962825258 2.0989598116928034 1.694317526108615 -0.23906657125300118 0.3894259696765809 -1.2091229680705626
Ni 8.752086134403646 4.9553847658777705 0.03217541948307822 0.3228403113365472 0.7212116631318741 -0.9692493275352337
Ni 6.510126535588988 0.5615905811609525 3.7498875867318526 -0.20815651193770604 0.3970762871329871 -2.6453293668903215
Ni 9.329254513004694 0.9703383384737274 8.256316771769201 -0.584504051163774 -0.3428414370488224 -2.8299338025397005
Ni 7.3070292582790275 3.8313903612052576 5.613865227642425 -2.2937487501962885 -0.39953323331391194 0.5307188870225182
Ni 6.637805584634446 7.325247756455293 7.450044001582042 -0.9637561656311467 0.6514414364162717 1.8131404066769161
Ni 1.343186587194433 3.8345965925415624 3.1048200151842944 -0.9951591054224603 2.303950630429955 -3.688343387012532
Ni 5.903316875450264 2.1299378019217103 9.660880722162798 1.428655068835062 -0.22691476638181565 -0.272567274113608
Ni 4.863497727872292 5.486572235023178 9.742721880234962 0.5468289052105034 -1.1336209810775058 0.037810900200186494
Ni 7.863445935519733 1.55552696922215 5.4743726650027345 1.2028417630475414 -0.03427177669867646 0.23692895608470813
Ni 2.8351030484178765 0.9526713494777606 8.759359512254314 -0.41492539949926605 0.814924516706003 0.6478917713918003
Ni 9.134310039189407 7.978758092268013 11.886261394160922 2.047249891034958 1.6667243091718005 -2.4752308381666017
Ni 3.9909167285095815 3.2651493424646785 11.157574748505732 0.06203557707550607 0.411456210003743 0.6993099779627763
Ni 6.139381499843993 2.8327567974983063 3.501724346540514 -2.1392766151559157 1.1931165653399773 -0.8433334068659992
Ni 0.14182572690074546 2.5852506945167124 1.2678027603383615 1.2307513449736158 -0.2100367596795544 1.2545687591081878
P 8.938084942362243 4.557382089967569 2.1808346211725786 0.009988478671279572 0.47516428968566554 -0.5460547460486402
P 5.42713076252299 7.136463359755532 5.825773749939129 -0.5688820283558009 -1.000358904455845 -2.350742393972513
P 2.173095732183287 0.5545247203238883 11.74589202540069 2.040203011490506 -0.4757476729929612 -1.2387773006018858
P 8.64821545624323 8.825782717072535 9.677612949836226 -0.12843997264266913 -1.208871514181389 -0.06651495300309836
P 3.701075285230244 0.8252886197715487 4.0825046428918474 0.2995854545736647 -0.1929000999992678 1.0179100259657305
P 4.1288407616500535 8.440520837988526 12.269840702864363 -1.0539275817109206 -0.22579710783760465 0.21696074049289732
P 5.12428678924715 3.919828129930571 5.546349286838155 -0.4602418640478783 -0.4842243430054047 0.9479400245344966
P 5.343020938721026 2.316712461778015 13.097592418720799 0.9245841234173754 0.4767953975311853 -0.2026062715434382
