# total energy = -381174.5218673132 ev
CRYSTAL
PRIMVEC
9.17488458243102 0.00000000000000 0.00000000000000
0.00000000000000 9.17488458243102 0.00000000000000
0.00000000000000 0.00000000000000 13.42837099793005
PRIMCOORD
 96 1
Ni 2.387029698491947 5.350517389666559 8.699530057274858 -0.4840183976421858 -1.8638497601063255 -1.8707233472977074
Ni 5.975106826398457 2.2885189636927463 0.5269007715832519 -0.1947502658341291 -0.23961138801287768 -0.9570885238029838
Ni 0.5494471327358602 2.017896570693098 7.849446731898052 0.18734574583994187 0.015784516527766364 0.9070299165836959
Ni 5.347645650820312 5.916222417723662 4.041926551669634 1.7328407411848996 2.163604650378319 -1.3371358804781424
Ni 1.5428761009628371 4.771380330711996 10.892489846509738 0.6049237524707066 0.1336713962449375 -0.09939550578120301
Ni 8.449279577803026 6.083755808562203 11.649286616317545 -0.05528488861523382 0.12512170690271357 0.1097951038479722
Ni 4.185664879576095 7.000335944277481 1.8901775911110665 1.7084543419207352 -1.5346616521748795 0.33838417260841724
Ni 4.233438503130108 6.135346184065221 12.959479389146914 0.6429709370514152 -2.3460365038564115 1.4299573325862533
Ni 7.973543467082325 1.5502710578640344 12.253321559320222 1.1015330994040256 0.7430362152061333 0.5555431451550497
Ni 3.9601095192050835 7.894015568298729 5.95713414516551 -1.2931216796807212 -1.4921708300005203 -0.10525427855482519
Ni 5.895890873687616 6.983325708427828 6.9458114407136655 1.3487022451595032 -2.5366668339848957 1.0358139028293452
Ni 4.602011962974896 2.657936512910872 5.039493392802863 0.3694356425975831 1.5481504306899339 -0.8676650416328282
Ni 1.4572285542225427 7.3676432700622625 11.76172207331147 -0.13743446283179556 1.7544053547295528 0.015373654242592877
Ni 2.6637625645638003 7.666817903603507 8.119907646930626 -0.08396477304842957 -1.3487832349090836 -1.5548124160911416
Ni 6.834655880106487 3.6526224403133627 4.363898020710139 -0.6691838480013571 -0.4156807896080519 -0.7328950130070733
Ni 7.313740823667058 2.5736927234979765 8.263027587622274 1.2291166375836704 1.914841163552528 -0.0986282885978753
Ni 7.723390241386116 2.911080750951735 2.070950340272718 -0.5085482644627499 -0.776392936289708 1.709410535186417
Ni 5.377574124035828 5.000339573229837 8.439073436293233 -0.727817855594482 0.8713833710246799 1.8328296575757275
Ni 0.683885797720419 6.888026183201108 9.68380249077802 0.06791209046094111 0.20041723431191935 -0.08346572192482399
Ni 9.002506762949919 3.8310188943913785 12.067391607585167 -0.8831507959732533 -0.4829290212327489 0.5079152588644414
Ni 5.0016424068278145 8.774630156802228 7.7919596581315105 -0.18923602088411925 2.011555780067458 -0.3414856943518764
Ni 0.29580928590928457 2.480420847744165 0.7554388869028728 -0.6743121703668581 -0.8782335611772939 -1.788368856159191
Ni 2.7445841220608815 5.347939247124082 1.2684186062451983 -1.3344583336459792 -1.163673320378196 0.4875392663112508
Ni 7.027979871254289 4.068519954372016 10.337119408345327 1.0174150886071833 -0.3287006267720662 -0.06629383813122776
P 0.6062754497958182 2.2906475368950763 3.8502090827965203 -1.8812234754980826 -0.17057983923551268 1.7703518507564802
Ni 5.006174799767258 2.342678306853749 8.896685480186855 -0.17792728073951938 0.19424375851135578 -0.16254694162870714
P 6.807002778245186 1.9154773350999643 10.366420319461534 -0.29447718681282187 -0.3287973002509305 -0.19650992883771318
Ni 1.0249538713442399 8.933144636184345 6.66260661112059 -0.4190404501089041 -0.10536817842487015 1.6757738209685786
P 0.7565967573258642 9.085759664837592 8.89855165169269 0.11425699627406774 0.3841719203664932 -0.4223096077784791
P 2.9295130938977714 0.431367286801965 12.869938938916325 -0.39131110251443574 0.557877449715181 -0.7766834709469334
P 1.5258383404597062 7.910567059923742 2.6014375742042057 0.10628297692965567 -0.7742038990581892 0.2684195704938216
Ni 5.896147770453415 4.314801378812264 1.9966108386698007 -0.5756278317200667 0.5591424324705339 -0.2637720444194812
Ni 1.5466194538358997 2.010391515177987 5.881934956885617 1.4421996402887163 -0.286681602027803 -1.2934919185359466
Ni 6.556978000931875 6.466963209173008 0.47881244949113577 0.4024630053661971 0.393487027119832 2.31717895619477
Ni 8.364586219049983 2.4139946840162883 5.919588682844071 -0.07352326600013143 1.2861848433515721 -0.7906044519033997
Ni 3.072448619411113 3.9400990961262856 12.815714454075422 -0.09622482136270524 -0.5973220288640487 0.03489655476686893
Ni 6.556106386905058 8.16917035423782 5.1685124535175255 -0.5582302050689095 -0.13717683829503474 -2.011933475121851
Ni 2.9655979146079567 0.80506767210133 8.168021658699322 -0.9628578221865933 1.763717376159098 0.7344896111877028
Ni 0.10177791116708697 2.1355736391977596 10.111012637416296 -0.7166091313628562 -0.016750222875145347 0.7187737431143428
Ni 2.1920175285974692 1.2574546192763014 1.364590662987184 1.0001177349793162 1.0844396342568485 -1.8585854263835928
Ni 2.6558813387844844 1.8921456038347724 3.548742563108975 1.251995599064373 0.058947425068485576 1.227736212296376
Ni 6.79044211173568 4.356024134838417 13.163147145071902 0.2523794863118234 0.0647555471098304 -0.8273874250597041
Ni 3.2868656700078644 1.677590929970629 10.825871927695962 0.6384131424774038 0.041220182992051595 -0.26599707709525805
Ni 2.393608090673285 7.52484574096191 0.5188562328599642 -0.4425277345975669 1.4170514231578628 0.27263437990611755
Ni 0.7326282890768717 4.6898523071089695 6.886511409771347 -0.039450235575822376 -1.378466106685497 -0.8162532628197556
Ni 2.853728547987238 6.491698697765599 4.18257477847892 -0.7133780260200682 0.28571049636378537 -0.10527613293169613
Ni 9.010681585033003 6.801681345239361 7.571439474370147 -0.5031072959528368 -0.008828911145539634 -0.5442164072883208
Ni 2.5297542016619543 8.700588838945327 10.082074134237555 0.08108205218399585 1.1863882454772086 1.8652188725397103
Ni 8.646374446477369 0.20975070434371296 4.81776395926535 0.8654608348926579 0.936048415303233 0.24876322971547477
Ni 3.891683230657777 4.487114884471554 3.2824039236790155 -0.4587719643705712 -1.55964403315183 -1.3308955559953854
Ni 0.28709681559492106 0.5222692898912861 2.4165966812584463 -0.4821425207757116 1.0165020898746107 0.3064736970530657
Ni 7.216753119693663 6.4319977243709445 9.451088885525724 0.016355301429571832 0.1707050519594673 -0.10159765563884438
Ni 7.351752370120732 5.6851988261949415 5.394391687311132 0.32399833620039037 0.5781272011031527 1.073125751905926
Ni 1.3856369305252192 2.037384025355807 12.105877495567118 0.4519821951422474 0.03248203178810535 0.27095005022515917
Ni 3.4212777278273943 3.5624792001715964 7.2500845575675585 -0.6463069434031837 -0.9944116857334745 0.6460832574281519
Ni 0.5382317539318607 5.979868591450221 2.9271835907250496 2.393890647225213 0.9215229679935484 -1.1584642653734307
P 7.701664114907163 8.641108062778502 13.05436420959456 -0.35891417424096894 -0.3517935040357877 0.09984262062095063
Ni 0.6910311977634122 0.14087301147935985 13.309771891639796 -0.6857623211853286 -0.2954323516372396 -0.44902054141076214
P 5.5759351267701796 8.001260793135076 3.087330282058436 1.341493643226206 0.8319598749217348 0.15675681730949131
Ni 6.322834948675602 7.262187147702012 11.90924595855966 0.4504904410880693 2.2581705959813627 -1.3472246321727122
P 7.620851732294575 4.945482938847381 7.48837098766078 -0.03815799912696009 -0.12425910179210213 0.7907669456231929
P 1.414134121759858 5.670408912392547 12.808113979761588 -0.5946519382310533 -1.9142019873066325 2.749590685404258
P 3.525807186853872 3.1101390449075383 1.4027948820152059 -0.11857387848186675 1.0238549306952562 -0.07060789212554937
Ni 4.819768671527027 9.133606687467546 0.6109133539069289 0.3331275521951682 0.20053859038113203 -0.05409343941029394
Ni 5.106538861234005 0.19511492860079735 9.965556771132784 -0.6959947975466142 -1.0063758000738863 0.2659148017940969
Ni 6.5144157117697725 1.1249325876622887 6.414248910319622 -0.9604155312936878 -0.13075602237035544 -0.14372672359841054
Ni 4.508116195075575 0.3385660826226342 4.541461395276209 1.078745926306181 0.8259226675887195 -0.6040866012813918
Ni 5.41446633458138 3.2036953420806267 11.811916948883134 0.0989728164214876 -2.0795941116936185 0.416556764455102
Ni 0.4062877400408944 7.246048525879175 5.073412940772747 -0.11453313275358985 -1.8002722924649963 0.09013053553950928
Ni 4.912242332329965 2.0244657879899433 2.565516983926442 0.2288045272053608 -0.3496844281125848 0.5608702137949179
Ni 4.3935494124139725 5.216683349570076 5.858435325234207 -1.1019946124214761 0.553422242157305 0.9260270265114892
Ni 2.056651282790688 8.910840491982347 4.60120457313953 0.2744462363038757 0.4734881875348233 -0.9281520432742918
Ni 3.980303439973738 7.963258421565896 12.016619631778907 -0.03337111926127802 2.6959029660728153 -1.4278713965915022
Ni 5.911029433100738 3.7505184578515456 6.7516644624268585 1.2404374619131282 -1.6440011565426718 -1.5218981818616242
Ni 6.829270222909213 1.2166355581678312 3.7713848976535225 -0.37073482102498084 0.5042887178554476 1.393340709804484
Ni 9.077594017638999 4.569220925797627 9.233495489917566 -0.317881167559059 -0.008916842873655613 -0.6649101603266677
Ni 9.133368140470735 4.481509030046452 4.421761264740885 0.24916457891895155 -1.9149725469240697 0.4607799959395355
Ni 3.7769971744977684 4.027829341646446 10.605056312653932 -2.1162840109154843 -0.5056668291498969 -2.7073261203080925
Ni 9.020581285400736 7.150703126229991 0.7336815658166452 0.049010368460431726 -0.1902894018492981 -0.01830445473614267
Ni 3.296370850342406 6.534683031614369 10.287663110975334 0.9730494180076145 -0.3044975471633014 0.9987671344886929
Ni 8.033831633084517 7.9865259286396375 2.931225127344128 -0.778026358128073 -0.8782474451343648 0.7673441958238785
Ni 8.689166107751792 4.665593912510005 0.9592332562338595 1.159710736186022 1.5873168164767502 -0.011867183751231174
Ni 3.4703541849793846 9.06868520479649 2.5330342228681304 0.04960969260732746 -0.9068957049986769 0.6406242911961096
Ni 2.455107341428528 4.062528754798218 4.9502612186912325 -1.2118110564256872 0.33849781536814605 0.6622742653657174
Ni 7.550104197970589 5.750900174047887 2.9569404936005497 -1.5602554414835839 -0.926958537186823 -0.34459801472861296
Ni 5.3628759590783615 5.404942804477853 11.098360492201447 0.7846582616222938 1.2830583819074484 -0.5857371522399267
Ni 8.786529981989391 8.847726461556372 10.672291701194073 -0.5826088910235901 -0.0706055781327042 0.897338914548177
Ni 7.080616183589487 0.5045837825429635 1.683850953660067 -0.5240831268735554 -0.44940132178894865 -1.9997837271331944
P 5.0593340805185445 7.12298580017724 9.173484405427057 0.26912173876716877 -0.21058363332195992 0.4962259954519712
Ni 5.908332017059854 0.6784973880577971 11.961374899782406 -0.8300312904404544 -0.4164230670907151 1.430727892203691
P 1.9599480002365692 3.13255328772345 9.252362722388563 0.508022473866267 0.10190695934914708 0.08899436505253706
Ni 7.260104448922146 0.37869794488259356 8.73053566192983 0.4057185361890174 -1.4723324551183545 -0.1566611722718915
P 7.916539909728554 8.46033531361685 6.772115279961311 -0.13884342736418023 0.7226928756630908 -0.032349105754666874
P 2.306382463800229 6.114592595342505 6.444302161964239 0.44056983954024764 0.3879427002628351 -0.47298990774216604
P 3.915097535883404 1.362965790943509 6.454937688068294 0.3182472926492261 -0.5037179329536421 -0.02512841963651156
Ni 1.4526227622071568 3.522715250779798 2.35674615724656 0.19601756258232692 2.017840070414273 0.1427391628741606
