# total energy = -340893.8591028262 ev
CRYSTAL
PRIMVEC
9.01383178338958 0.00000000000000 0.00000000000000
0.00000000000000 9.01383178338958 0.00000000000000
0.00000000000000 0.00000000000000 13.19265394707659
PRIMCOORD
 96 1
Ni 6.382964518610541 1.9610582006600874 11.406513443904123 -0.18974741330289904 0.6061355133906206 -0.06147841902045541
Ni 4.266561945428834 0.08135433643924059 5.891205925870059 1.220998122241594 1.0257809440733752 -0.2561070716750557
Ni 2.968164583244976 1.724499206087883 4.613220385177161 -1.3355641651156482 -1.013255557912855 0.5043283128441314
Ni 3.195394262187618 4.088322440830801 4.842336659058226 0.7788815070395166 -0.42282614240358146 -2.2002305291314688
Ni 5.338558901170455 4.568354038755765 2.8390720936601075 -1.2956729853476654 -0.40597101851945566 -0.4239754255166763
Ni 7.200239609254771 6.054509511629266 2.574652247223735 1.3452765073074056 -0.6462946021080095 0.3706129507351359
Ni 5.10509165081172 4.841671438291597 11.413413531937389 -0.6018736527904731 -1.4057966761796499 -0.5511033642161411
Ni 5.617104322991453 7.941455989481372 12.206238604566945 0.595425068951652 -0.3655177956004157 1.4861421073079373
Ni 1.9679447679460638 6.286822991552655 0.2416220637404411 -0.08894165743773069 1.6926788242540332 0.17142958883031767
Ni 2.8486501910397917 1.5489097679585377 0.390121332601104 -0.2275104909842856 0.6613949480845577 0.6748826981583473
Ni 0.1216046997360978 9.338870290979957 4.902482351299596 1.5371399385120432 -1.5706771510375401 -0.445693019699426
Ni 8.76268815216558 2.422665526945606 1.3003064917010958 0.04321664459679008 0.559912734977655 0.659903965361328
Ni 6.654325916705198 0.7955445456009952 4.879078839125107 -0.4541635190642824 -0.6753195285854499 -1.335809448357235
Ni 0.7730586414758687 7.266987031705891 2.5300473019165968 -0.5706666310600494 0.5133896517154514 -0.06627661174004715
Ni 7.645450775994228 3.8296705451880104 3.859642436395602 -0.2194020029445383 -0.29489499107653083 -0.15147500008526174
Ni 7.377388440238139 3.9474632955717004 12.582216334120371 1.5682024642448023 -1.565480437327949 0.7262553962033685
Ni 7.694395881181206 9.098561542492876 6.846775726704202 0.31112328000993517 -1.3129847371532355 0.7108321196697629
Ni 6.921090260721521 0.6661834438366478 0.36892711053367433 -0.8439018777749596 -0.3734419355434988 0.014222057136652925
Ni 1.863780930829908 6.512655526608745 9.172865259912363 0.5330277376613529 -0.28329160250964763 -0.525471779690966
Ni 0.10677514410928061 5.022813396641048 1.2723654167363452 -0.3595590069138194 -0.9764342753194473 0.3675253129487477
Ni 6.260277257708152 2.0243262841421137 7.114508156226433 0.04513057379005131 0.043071120157861305 -0.33060555710426287
Ni 3.2797366837777764 4.352743188650326 0.198854137298331 0.8111964171221384 -0.5484340449140942 0.9645645204650549
Ni 5.984201625725319 5.549752973828082 4.781993563906434 0.034438641293843913 0.2648755618963051 1.2705044565018377
Ni 5.1173955308449095 2.6283972176983874 9.29382907622695 1.0468400787365197 0.30239695588053084 0.5497188251637888
P 0.21225139509564342 5.606179559181762 12.33522382955665 0.5875767765518268 -0.6270007868754041 -0.7243244977292429
P 4.029831688057633 6.246999883870138 12.536992138587387 -1.1300432910285765 0.8512935422533404 0.09510613437722974
P 2.3552330532984995 8.336505183777822 1.4800179549873482 0.5399527469159604 0.05632027185828365 -1.0599781587803745
P 6.232622822585933 7.615822311767783 5.667207705529541 -0.4284146922349525 0.6477534460417231 1.0153260672886386
P 4.816829318605535 1.0985156480915461 12.790897350548509 0.2218296385494244 0.3415805680585278 -1.0847635932551705
P 3.9805530711041865 5.963577979193495 8.230025693342599 0.09886097343397167 1.8237274381641428 0.5312446776190013
P 4.731792831987863 0.9974165136942803 3.676251527080376 0.873578836014102 -0.5492025476490026 0.11190469399180729
P 0.12595747898007423 5.461660798323046 3.597729336506651 0.8008279294036208 0.06317971798227828 0.6094578928956342
Ni 1.4574554332942495 1.0674900399785479 2.562330339527492 -0.2646343924197765 0.1645197490843618 0.22687568561376412
Ni 1.796195222046857 6.460113902642833 4.896690964544046 0.06391582481735444 -0.018789879012993446 -0.6820954138567027
Ni 6.027080422295201 5.79694828960114 9.238723017191852 0.03333306693449098 -0.4039089937841044 -0.03324924897143306
Ni 8.78040033111446 2.1980949283031777 10.244530506653822 -0.6926562200916845 1.6824507187681217 -0.10904125640108317
Ni 2.6055471547796047 5.044942353037739 6.783860084034847 -1.5870357949012217 0.4039789277900913 2.0166545347466043
Ni 0.5485574493361914 9.219166608312722 9.168155532939952 0.43755727796616894 -0.863723540486577 0.16154935360212822
Ni 1.574166523894802 1.179225495576667 11.459482323484373 0.4659785094213394 -0.929753840543773 -0.5170218491513999
Ni 4.117175715545998 6.633386786069959 1.8651645539691717 -0.7431359740087912 0.45686574848679384 -0.5641481132152413
Ni 5.617536986904708 7.805635576045388 7.89254423547104 -0.5882594044411482 0.4713472299324205 -0.04673159972858403
Ni 5.340568985600785 2.868219219283057 4.835094045426967 -0.16473777863243885 0.401624825735618 -0.17815970846529963
Ni 0.6204679944854876 7.53298520004249 6.961459606594524 -0.02754731349064933 -0.5630420246352562 -0.29951526345736157
Ni 5.159634345376435 4.381839836816729 7.341791016775079 0.6952154961784286 0.27224614332876335 -0.4877231001872826
Ni 8.129232127834069 7.337538291061043 8.853854044221034 -0.15394814421610262 -0.15029640639612826 0.882520361478106
Ni 4.451075076769064 0.4589266127896426 10.58118088925867 0.7574495624179859 0.1745586213776026 -0.0838570438259717
Ni 8.090716025722841 7.061597866551102 4.811861796051476 0.757746010612482 0.2020257164496198 -0.34720845576826653
Ni 7.139513426263118 5.989618938472533 7.062819240722895 0.3660425577556341 0.05710728653595327 -0.8145159684136746
Ni 2.3367186433437936 5.253152847460211 2.5218284903310555 -0.88915072231043 -1.0079261752801416 0.8012629600585104
Ni 2.525982063898304 5.0312413291179965 11.111420430167424 0.41692828886190775 1.4145471686787703 1.02377496938694
Ni 0.9456951483972482 3.025086929332595 3.9784825940026307 0.32996972329247687 0.8988229552928714 -0.8672711486285193
Ni 3.88553827298707 2.746361230881074 2.5916442210336754 -0.37494551667221876 -0.2522948970178171 -0.2259482887034883
Ni 1.133498328244523 3.3910124339680623 8.272136511466453 -0.38276809804043116 -0.209312222808704 -0.8116777276339311
Ni 3.712671011978621 2.7138303129032098 6.799071826118373 -0.2890138497054055 -1.6898264424069027 0.7881801587326233
Ni 4.091251936076799 6.750061821344406 6.115969420507148 0.46524523079974067 -0.045321606754934844 -0.43581149891965587
Ni 0.8411076611993635 7.504330229620869 11.209824428938372 0.13242261143950096 -0.0379008888108315 0.4339052830358785
P 0.3024203573843033 5.547815000049959 8.021780044977174 -0.7376021886747556 0.23053642229480295 0.5046270750314729
P 8.43586464869054 1.7304032657375095 8.070461044900437 0.013136537381958023 -0.524856000483838 0.04634207759964923
P 2.026102008952765 3.1011546535817502 10.352802848179596 -1.701066019876464 -0.5299691533406873 0.8684528276414463
P 3.846571479299536 5.874332033253112 4.06299447562548 0.6388548580005127 1.706327525385719 -1.2490861387270618
P 6.816646994828055 3.996597691220728 10.279030045436997 0.41192543633067763 -0.6818015367653677 0.14700770834252747
P 6.463485075633612 7.684291376040396 10.287209196163824 -0.16823730714526508 0.27012986831670893 -0.9233764762625194
P 2.1510427277366895 8.469882848870219 5.645532144858615 0.11387518745461679 0.08406221785824232 -0.4893963741246475
P 6.967619659059493 3.94278511700963 1.612010194174178 1.3426092448878877 0.4284620005331201 -0.3674769762093155
Ni 5.297320621938332 3.157500114451696 0.5713975970402955 -0.8098920964884181 -1.4500448473647478 -1.075856777683844
Ni 1.4578520418813998 1.0058444461712277 6.989824331641004 -0.526821351740325 1.6017211648275382 -0.42777782998190195
Ni 6.731240941117812 0.6451586818019097 9.202324264106116 -0.11620794935285149 -0.1750939250557823 -0.17721405672257867
Ni 2.783155691170807 1.4966295451068845 9.113260397562563 -0.2127757558772723 0.30825649998510135 -0.41068590749662176
Ni 6.34646751476117 1.979094877543908 2.439229343758054 0.6841031883153509 -0.4435782873492683 0.9481081746812446
Ni 4.111641222988943 7.035403672136119 10.313686424888727 0.35100366114464066 -0.7108658011211757 -0.18253701159738886
Ni 8.228871021524098 7.225442282201878 0.1412521483136406 -0.6250259225372203 0.6524824760862763 0.6219691379887675
Ni 7.6572859367880595 3.790622627016741 8.187189261780889 0.25499455533716725 0.503895339071771 0.6791502151854496
Ni 3.237759270360509 8.367864303657287 12.498456206046804 -0.8721318191549302 -0.3470127948176927 0.25370437577083405
Ni 0.29717070190347517 4.704129383034118 10.275770643957143 -1.1271479717586526 0.2325189999424705 -0.1202713207889477
Ni 8.439055545050797 2.3023489037345946 5.889979143399351 0.4882584038654624 1.305619812147732 0.3794164079593788
Ni 3.8739554994759713 2.781641367474414 11.471856511403468 -0.11634113249660608 -0.6148520673280121 0.3451867973525474
Ni 1.2845431031281698 3.364538810775768 12.550461507036909 -1.310972077598581 0.14994107993923855 0.3316406832369966
Ni 2.939076948910099 8.379456090999911 7.838560398460945 0.8892522808853007 -0.9136906164333232 0.13600955745981091
Ni 5.556819817744581 7.692674239359713 3.4294167645683644 -0.16374301881933737 0.5636989414929646 1.9984295270981454
Ni 3.0699217273436505 8.448772455435984 3.537609784376708 0.15131919123368778 -0.7016280845729916 0.7476382327545188
Ni 3.360662863219525 4.0730890655516125 9.04525284146409 0.39038113450099865 0.6276674739251256 -0.5784671009410748
Ni 7.205016939963628 5.880758895131255 11.515154451139315 0.6078920910704111 2.2698061233377618 -1.4964280626149777
Ni 0.6193610959740768 9.191854698788497 0.34338191198857343 -0.040533955558304385 -0.4986950258177541 -0.005602948009074221
Ni 4.633469957700652 0.09705462819148358 1.5711135391568958 -0.19327316706797038 0.2773315282714708 -0.08315873220736646
Ni 5.7462004181089315 5.547328253147548 0.5394147200192204 0.7655081710564042 0.5859775503855069 -0.8556960421964103
Ni 8.004633934648137 0.09875553820046754 11.224850486092459 0.2199578754480083 -1.695010043490371 0.03209019566632538
Ni 0.12324341430755134 4.908346750090507 5.967828902141225 -0.11580120083273604 -1.050840201034848 -0.6328523605601746
Ni 7.625674429625861 8.694174018735337 2.415970954271137 1.9227997562779724 0.5668282311505658 1.4487045312867695
P 8.371821375697266 1.5908421122181742 3.407649262815872 -0.7541793763071464 0.11527463890530469 -0.07145687038940597
P 1.992345209887344 3.2117453525760484 1.7603751569451012 -1.2227783540704682 -0.17723436843755283 -1.0437485842953895
P 4.629783300606457 0.9662196427822852 8.027439829792442 0.08066347658933849 -0.9028238489221484 -0.21142695515886167
P 8.377382909748897 1.752000406074158 12.470158183353616 1.243230194166917 1.0840979346467137 -0.5210754503954833
P 6.294259402561727 7.5147231773705165 1.3590415193086227 -0.922263959924631 0.5090545146752071 -1.7569121803118064
P 1.7364785881861327 3.114576248724183 6.012327484236356 -1.2866337579635325 -0.7722274920581088 0.9112295564873403
P 6.901953896391512 3.890414755842716 6.057209154171348 -0.15929166791620308 1.0437516696191833 -0.6474719102455623
P 2.5405033464869273 8.506289714404328 10.014794081163757 -1.399078640729526 0.22811649999940067 1.4808525767742238
