# total energy = -340857.8938872486 ev
CRYSTAL
PRIMVEC
9.36563246235034 0.00000000000000 0.00000000000000

0.00000000000000 9.36563246235034 0.00000000000000

0.00000000000000 0.00000000000000 13.70754980128918

PRIMCOORD
 96 1
Ni 3.419495352231333 3.233521992871419 8.155649683643311 1.7147059792574018 -0.6404857087357163 -2.1208646883076314
Ni 7.105227532106533 0.09821925841160753 1.1100746729534632 -1.2141566738397283 -0.9230386333071264 -1.4483764585233896
Ni 8.136027747540428 0.5079544300873393 3.024269418019487 1.3588035952595632 2.1641918903403567 1.0264221772018
Ni 4.22548293141225 4.913988019793412 6.1212292540948745 0.12753725832274163 -0.3255646522462458 -2.7023476932568946
Ni 5.673662547554942 0.46496617811261987 6.2042424720040525 0.21403816752946364 -1.1851556586216878 -0.9839113004227829
Ni 0.4969544950232199 8.758533225536873 10.288969316503872 -1.4039940757532723 0.1341478216607238 0.37746776887344025
Ni 5.572616741333754 8.94943290745424 9.580905041755825 0.15773640761394123 -0.938665798321422 -1.3855672365066525
Ni 7.311056031812069 6.3591331710908285 2.2277917018135427 0.039178469971674464 -0.40445869563998726 1.518156969651637
Ni 6.174798797372652 1.3621094558708677 4.135855704016244 -1.0019712432482872 -0.47630843059243777 -0.43261998856555167
Ni 3.6551533906164946 0.9295099662112833 7.034193894393622 -1.9353986759889057 -0.9094506102100467 0.2112742316310813
Ni 8.634063973087196 1.6791642040408414 5.368205261785904 -1.9004136752732885 -1.3690000761765908 -0.1747738227122022
Ni 5.2783111138711 3.6111817472567322 3.9716255964612337 -0.9910882777871963 0.90968149527393 1.0119039289809668
Ni 4.0802219753931 6.377836338671115 11.78773833174605 -0.6975832250796568 -2.121931439009249 1.4334517188927571
Ni 7.4352630465590694 3.1302097036485144 3.465734415156036 2.4167724369193926 0.5028352732383727 -1.0568059316999798
Ni 7.6115336109198966 0.596314487441477 8.879736682024985 1.3482821269029488 0.4931049333244863 -0.4831015422548712
Ni 7.6396398732676385 6.66689721208021 4.892292532712924 -2.984192021797054 0.6391559341806993 -0.4059388797299396
Ni 0.6422163876055941 1.999543751655483 3.2867412615034763 -0.4830565479495487 -1.2872037715343896 -1.024906768998538
Ni 8.616063227924796 1.9163956686420713 0.9702879289777165 -0.6862415748145924 2.8677246481352285 0.31242862908492
Ni 5.67979703667116 3.437711506935217 6.800753637722538 -0.28703307182995086 0.8119842031307564 -0.3053059019972097
Ni 2.55430761167085 8.535312746764442 9.369260484430178 0.8930233178919588 -0.13181325999027624 -1.0315638693037397
Ni 7.508436731238477 8.200098037684013 7.323669665310883 0.35589929867404513 -0.09772608849858008 -0.21022316465874763
Ni 3.2134327117198342 4.440695794620765 13.812823099079148 0.3680475040008048 0.9910268284216415 -1.1301299372051117
Ni 4.55168790227924 4.491092261696139 10.123134876146406 -0.09644696467584035 -1.9701083115559492 1.5033484438838949
Ni 2.5920230126952934 8.485562508313523 1.4141121288751444 1.468142071186091 1.0971264856958978 -1.1987647647646904
P 0.8362685413344391 0.9536742339498397 8.204763059102012 -0.06174581374922914 -0.34985334959028136 0.7830783187296836
P 8.526462224299056 4.379912841392893 1.8393202615721036 -1.8236680456811174 -2.5447282708367918 -3.9773585222695176
P 3.947023953697139 2.0560840734793135 10.243131102638976 1.3689360557078747 -0.5900064690392419 -0.11789047926159697
P 6.984364048068677 1.9015230446473317 7.0143312615422095 4.3926251071582865 0.04496242364330321 -0.6484820966776316
P 7.582481419716066 8.946445270770157 10.856749532204306 -0.2944548182153187 -1.142905491703225 -1.348408368068168
P 5.360428977338278 4.497039438167587 12.833679028256705 -0.5139213558492053 -0.6696569309830338 0.18181221761622238
P 6.758952011352436 6.115673561050996 7.2379291752938535 0.9408746330472828 -1.3378077097341863 -0.4397663698023458
P 2.069458196315893 5.366647757144642 5.035508971214409 1.6942212290404888 -0.6321730751049629 -0.566762668019953
Ni 7.1284262031612995 6.864736827486305 9.340186752272201 0.5906420457407118 0.30150966817957103 0.6087017314559001
Ni 7.632269120695937 4.20017699310382 13.111202379311191 2.3163428334467207 -0.5550096412490828 -0.8671274239618034
Ni 0.1608584799491498 9.029921150911916 6.565107774659286 1.7553080690494802 -0.6379521436805852 0.5802576171825943
Ni 5.754731460211406 7.4901362858444465 6.051019792018953 -3.1262783815785644 -0.37044248659554263 -1.0580809417576618
Ni 4.1028587085135575 1.1289333100289085 2.502778839657842 0.05739422164875277 -0.5823129570497262 0.1264512243474145
Ni 1.041374014231163 4.598506697839506 6.838587045713186 0.6476616576588652 0.9750073130649337 0.8578403422329226
Ni 1.07650450075778 8.259625996191927 12.699742994740351 0.3444671455777035 -0.42836944081931383 0.38104365915015664
Ni 1.9223428451135194 7.026293983600447 3.0953152310543075 -0.0171140339724673 -1.6808165255988088 0.9747288625925666
Ni 9.15616987348691 2.7884015894721825 7.428957166372887 -0.6966473435289486 -1.6391255736179255 0.03221155173553807
Ni 6.638959531112762 5.346998660708266 11.206387314932027 -0.20221237853912916 0.0568540328745666 0.23633425992350265
Ni 6.4138471946281514 8.48109510173576 3.2817933979918767 -1.277390899209026 -1.5355227146235941 0.9311440360230803
Ni 8.613965326303372 4.954447551063736 8.269984385447708 -0.8433845718189088 0.47826915386323443 -0.19418745135212365
Ni 6.109988622282225 7.632212926902507 12.15241451015913 -0.2886667507786319 0.8791547874399827 -2.483902140688355
Ni 2.789965650056012 6.104912449608959 9.763764328396437 1.8603530598069766 -0.08513693897965983 -0.0010582660611852743
Ni 4.082301145750048 3.3811805507436254 1.872437137167443 1.0869731993119796 -0.2837410313422404 0.6790522561550048
Ni 0.41161110781310356 0.054085589614119335 1.2780697646683505 0.6097944502994466 -0.8838002566317941 -0.38597143546907725
Ni 4.872011256100451 5.7959589733252885 8.393282933867573 0.6258360771433416 1.0255719133863628 -1.5659447785588771
Ni 4.817699954749384 5.767805882816353 1.7487817581592908 -0.2921477673486968 1.1773942695087143 0.22958408568386268
Ni 8.220037468719783 2.7754582857185746 9.758390328617985 -0.9756691150186488 0.5414054202020869 -0.2161341308265439
Ni 1.85217552838267 1.2292954250966852 5.668523625145677 -1.5497195749492665 0.55557965481994 -0.570803670858546
Ni 4.147841840155078 7.023128399903833 3.7272743782322952 1.0169476620524616 0.41805803159097676 0.147646627478107
Ni 0.9296223537981453 1.6712408791670694 12.97965083576276 2.0725487748110627 0.3302548586330635 -0.07472062874234228
Ni 6.228267191822255 1.4506521430536559 10.933717234503533 -0.08409332820649389 0.39194256545084755 0.5602276951149125
Ni 7.844438153426939 4.196842828026914 5.736362645702036 -0.45091313044778475 0.6450170209471666 0.5349995166757432
P 5.91721581391716 5.840698598528608 3.960754907122005 -0.6482465836280578 -0.9457615288259389 -0.4418916436754648
P 8.541821861170199 7.507743674452828 0.6915648404334795 1.0251296836426218 0.8542521106610319 -0.21142824071044233
P 6.021904851079124 2.07516186634914 1.9105309097343222 0.2876663345385755 -0.47763846225777096 0.6067096407265358
P 8.266771973589902 8.85652583564831 4.9128266813958374 -1.0081938271192312 -0.7729767115193074 -1.1617948724085603
P 1.5927100528472387 5.9465958022493375 11.940344753129857 0.36710930845725165 1.7054258395070563 -0.4138666192174485
P 0.21904059710438947 6.849470846937549 7.463486379309792 0.4010116176316513 -0.00801824231878619 0.7026770946627963
P 3.52054115845252 2.6807342812583754 5.79463373636354 1.0434300246137063 1.371912107617063 0.2907177197703896
P 2.1490567047109126 3.92333826976597 9.49920863173938 -1.8050686854123752 1.7084669403262251 0.8700386840713275
Ni 2.808294192346758 6.085150965585721 7.116671398138758 -1.7452591694539104 2.189097652443101 2.356405762905877
Ni 0.6471174229560016 6.0791944234820345 9.793701571846805 -1.8568519886322536 1.60012913775007 -0.029755376885561662
Ni 2.7035583270236017 7.715876119689035 5.4068197635052435 -0.2856703871544693 0.7039073675254717 0.9974234759766046
Ni 8.310256604073263 7.049043104307766 12.155690608316158 1.8204598231564648 -0.0031753124041880797 -0.6089434151530609
Ni 5.2151867525836035 0.051788200026015044 13.151721850627842 -1.228092310084214 0.7714379062772778 0.3130302672246609
Ni 5.3899307188895555 1.5924852776735148 8.189287288391112 -0.667427784542199 -0.037372012890554994 4.410518699609256
Ni 0.2717606775381353 6.418754785921126 5.14352468094749 3.536430528058903 1.701120527263483 2.7261671642739955
Ni 1.0142979714296565 4.353838921240906 13.133984279731346 -1.1487503805197765 -0.9148794945351018 1.9029577818513808
Ni 2.637699201122463 3.2372495145023423 11.523950616932549 -0.4154529898679619 0.9363669749849164 0.18040119620130865
Ni 4.168858318898273 2.110498396785004 12.6305337821875 1.190946297161536 1.088761401560654 -0.6168277029971441
Ni 2.192663088413373 9.331466412094933 3.6460303282529707 -1.39673533730833 0.638295900173249 -0.6672022987949542
Ni 6.3569884413082125 4.166563738999841 1.2341121697569464 0.0069098397459558415 -0.9160092372641708 1.4174370886320558
Ni 2.6151280274276756 3.1916107886041267 3.908076972033333 1.03123708209194 0.891851923291677 -0.8386434575894975
Ni 1.1140513204019307 1.7639419070637523 10.291628219496381 -0.2886896335967673 -0.3611821443395392 -0.6027138893035813
Ni 9.194166243478508 7.81968478742058 2.985586547184806 -0.8359301724233927 -0.36604281486595025 0.2213043621735737
Ni 2.759855142409232 0.29713030214578684 11.369412065617942 0.041402731316502885 0.9987190548595768 1.1113356873167441
Ni 1.358747193897246 6.5048343118251895 0.8291450414538353 -0.7832259000511415 -0.7753907202774388 -0.4967512718278218
Ni 6.717209388465438 6.312941872890542 13.783763415369528 -0.3438932753521045 -0.9079863669596943 -0.0992209278765517
Ni 0.6143601876386205 3.3342774644932125 5.013796625995893 0.24581468861011216 2.131893692428283 0.29142760135322066
Ni 0.5077446399251969 4.031127331198878 10.929139313465353 -0.3490496227420634 1.2490480864002746 -0.9746247329145344
Ni 8.428553904877768 0.4350841918924586 12.55286646716006 -1.0524584533645616 -0.03821764872030192 0.7277759466129531
Ni 6.314637052325711 2.1586471121231376 13.431890992789702 1.2951867897398663 0.09587515133277037 0.08717659511750792
Ni 1.9326731374725863 2.6059403422017064 1.4779342297644094 -0.1703435548549905 -0.560070600711758 -1.1690888349668125
Ni 9.312266866006006 5.296049621330821 3.2969394984479803 1.674297493533368 0.4161505301556188 2.000918612068586
P 2.904835129461227 0.91887154455157 -0.011957102678894205 -1.0645292684861665 -1.3412537593012577 1.6922857025806728
P 4.127846215325878 9.184088823189882 4.391254622033718 1.8711684052549256 0.04620863734557848 0.18317438807107164
P 8.678400876104257 2.6268818958869944 11.947746412287943 -1.4568004209210266 -0.6487476916341924 0.17011524089426833
P 4.327558957179672 8.226209420364954 11.02491320529949 -1.6394562174844667 0.8549087704084245 0.017339519719712072
P 3.8884512896775543 8.18969282026704 7.67027860257267 0.4770278252569655 -1.3159692737028563 -0.6404810807500259
P 2.7719180767324207 5.1438393661907025 2.272026519439207 -0.34596764138263 -0.33826333075983683 -0.6903481407837981
P 6.703310790223502 4.587745586397468 9.136081528898549 -1.0271048050911216 -0.9308743273014614 1.2247241649429295
P 4.9701630819599405 7.57914725463916 0.4711493685164782 -0.41551958143983925 0.004312254222108702 0.5337535600837839
