# total energy = -340891.02631980524 ev
CRYSTAL
PRIMVEC
9.09558925194356 0.00000000000000 0.00000000000000
0.00000000000000 9.09558925194356 0.00000000000000
0.00000000000000 0.00000000000000 13.31231426647447
PRIMCOORD
 96 1
Ni 6.805247227984338 2.1602479615959806 11.224503970492968 -0.3342434109671663 -0.11321569949374696 0.19837217885743255
Ni 4.831940915425987 0.8458024969916208 5.883976806582898 0.9331456398341413 -1.4105843273762804 0.9265906123244428
Ni 3.0608386509265824 1.8676883283893757 4.887816030698845 -0.5790520269102672 0.04696582722657718 -2.0329483868106215
Ni 3.8765038219842136 4.958169505186324 4.851034376704622 -0.8964847940779981 -0.8133083212588186 0.12760667810809634
Ni 3.88819165436943 3.245815652652767 2.887453977896863 -0.9629586094305158 -1.118251183489655 -0.5837216644717946
Ni 5.445765862000864 4.829785260737039 2.4112462085761206 -0.18254138247276305 -0.5002235466471384 -0.18773243975539927
Ni 5.730512383908714 3.0170888658893125 0.02149469688151248 -0.7236274716622183 -0.876937982294322 0.7264690548760714
Ni 5.801257878299541 8.032460532842661 12.313305143583172 1.587938252110833 -0.1651902927888252 -0.19410080517558828
Ni 1.9880047850365692 6.571172234650839 0.2749414765294344 0.265869036157826 0.9663666066708002 -0.9502987545746602
Ni 0.8359992707310867 0.05166931473206159 0.26254054993487863 -1.2457465328308674 0.86864848859202 -1.0789955804231417
Ni 8.491924231628039 -0.2229365345483343 6.72072191564518 -1.7157858425851418 1.4762474739020446 -0.38753003820544873
Ni 8.893449025904598 2.6388396848997315 1.257337896967146 0.06665687789760133 -0.3842745073826285 0.40618416297152626
Ni 6.95250482044866 1.2075031626180401 4.7317693701926276 -0.017549321737673002 -1.0668340053599434 -0.2864861981875453
Ni 0.803586228328007 7.629580495744779 2.5115278104412773 0.2857755452737659 0.29426944167738994 -0.9550259848470004
Ni 7.905131376764338 3.8507996863261424 3.83644957492213 0.1262488785286213 0.8086325130497042 -1.3113374313577995
Ni 7.974303334188129 3.9112944514577177 12.642425407961465 0.2857097250328369 0.7468645878132879 -1.1913245064365612
Ni 8.591293545875889 7.598191616708684 9.117763542247767 -0.5062077892550314 -0.3719198424720175 -0.3282594254695895
Ni 7.313181322708094 0.62774210792322 0.2237869721576866 -0.8011678292415427 0.7189557772181617 -0.4736180282444682
Ni 1.9437547425820336 6.545349856330504 9.152828858521296 -0.24711618103035504 1.574758005975133 -0.6162826291269515
Ni 0.4198587738398922 5.117269555055746 1.279391972597056 -1.4944151459500068 -0.6909284387673004 -0.13328650210169304
Ni 6.5774300001613675 2.5026423291516915 6.978674650284259 0.6099926823531817 -0.1762681478695416 -0.6404507417327228
Ni 3.587564233360734 4.437628923547462 13.53875663277378 0.7721662998028701 -0.02543129558891104 -0.2701841185934121
Ni 6.108779756077104 5.9698901058652325 4.414323294815446 0.4481826188904991 -0.29313635651421127 1.9144076755595352
Ni 5.524169842670566 3.398366878150705 9.076921617143224 0.3957776229262216 0.25419211404052994 0.7803092406249788
P 0.3577186165849814 5.681623590857711 12.295107597860914 -0.02850093565317027 0.48871271779406156 0.6572816972471325
P 4.120302000391484 6.204883753728619 12.296784824547165 -0.4240466450742439 0.05640640381418673 1.463819532551337
P 2.5061259398937445 8.67898412332793 1.3060456877889923 1.6768811951001443 -0.6373296796052378 0.7536196471489344
P 6.510140829744378 8.17877218400888 5.682308488739896 -0.30303433235421356 0.9105227602283028 -0.8983994946022077
P 5.148503809071958 1.0185968662689657 12.489107424276696 -0.02404469965402956 0.7096553257528424 0.5996275370687737
P 4.07567903877135 6.523838787388064 8.069113029467335 2.5024637057406256 1.7463719429021147 1.46779214404584
P 4.810766383291525 1.297349394759027 3.5463202832044973 0.792034756592023 1.1082328800217043 2.197368119982009
P 0.48896615257890863 5.743755562082158 3.4636377372787606 -0.45112678912048754 -0.4560432525854985 0.8148209012486032
Ni 0.8362193839946838 0.04505227344004215 4.439177902423106 -0.018822532023141776 0.09335778422755535 1.2972768394996754
Ni 2.0024940589584754 6.914085050802625 4.718749943518543 -0.0652607688810231 -1.3202894983447648 -0.25109393473118047
Ni 6.627683131623096 5.898326008427969 8.98852795063019 -0.7914871116186691 -0.04244582786903657 0.42606573238680173
Ni 8.904718461177193 2.5748522134366985 9.950249186791764 0.20231033756957414 -0.07301855844957102 0.07316151178533851
Ni 2.7901630058280165 5.515237973875014 6.9820691242501445 -3.125593439696398 -0.9866641805775718 -1.9656217365395048
Ni 0.9703902424233258 0.3931304748148361 9.174340837022678 -0.6522719027373669 0.09466493307475309 -0.808128576830092
Ni 1.6663483613238883 1.2823143854728303 11.35672200587639 0.264027612073713 0.23927611616064595 0.36412811434174064
Ni 4.193776171603763 6.953796394144147 1.1946947536181476 -0.35772143948444846 1.3148917243679612 0.47653597322221153
Ni 6.036588062970908 8.024674708312121 7.7671367325499014 -1.862368804685425 0.7823548103000978 1.1949019393751743
Ni 5.600463646598344 3.280369796801745 4.721891560098974 -0.3368047439364393 -0.3233861565376882 0.02454040834352548
Ni 1.2637139051399373 7.767196763439975 6.83422304715133 0.37445495018904545 -1.383640966018217 0.45257174909713027
Ni 5.217484759118247 4.876909509443504 6.924414002130759 1.3212947996808277 0.9923889988764909 0.17656099651961205
Ni 0.8899470306090601 7.62283156840639 11.448989483916945 0.4481581934104669 -0.1593225211541385 -0.3452415618498828
Ni 4.907188726572209 0.6417420391351463 10.221248634873142 0.13880203260328353 -1.2791166236508809 0.46024572070262026
Ni 8.122852500347939 7.408775967352939 4.451664327558067 0.9059073729434785 0.33040038307199227 0.5045630545627569
Ni 7.531548233139438 6.591000619553385 6.791716629185701 0.6802871570033704 -1.949131966414598 -0.3103277806918333
Ni 2.543654341778105 5.402916540314673 2.3758489032893135 -0.15083428117746925 0.4386823927095477 0.8452131403872154
Ni 2.386264262716793 5.428193183270718 11.122053070554756 -0.03441755824792137 0.05375816755806225 1.2988827505342146
Ni 1.469701718391297 3.5907931675994518 3.8268773766324786 -0.7484180483433368 0.2941938512444482 -0.40499065688405733
Ni 1.519636504223856 1.2851249225989252 2.5048452809055433 0.9160100085951192 0.6859554110327413 -0.5709862191829973
Ni 1.5527353540680604 3.437641633200794 7.8564890741862055 -0.8112684080106545 2.3175697638752863 2.0955156680198814
Ni 3.9454211029046693 2.9501362322803026 7.018145870065493 0.13448772149864582 -0.027818050653532735 0.4239119192685925
Ni 4.282248969744619 7.319029786695405 5.908537626652781 0.34621086774168763 0.41785928531660943 -0.05586390104715541
Ni 8.328385534129056 7.4193814245989795 0.19683765031009293 -0.23174664055282027 -0.8624156203084308 -0.034145535533457325
P 0.2889896143652062 5.835866595984949 7.901417647610343 0.7139015026237059 0.793442178462511 0.6198227810697261
P 8.640018618317606 1.6862040329946488 7.793362045480871 0.6735932899229625 1.0998156024922865 -0.45310653855467775
P 1.8788031386420874 3.377401544572554 10.286785085211818 0.9922198202884782 -0.04160893379003802 -1.0535802256738307
P 4.201580187313113 6.3731703488969265 3.3804358331980078 -0.22556647988403736 1.634977869998139 0.3508547942716022
P 7.093440978276621 4.243383516217747 10.441380999207963 0.4842192007990822 -0.5681232958129055 -1.133603240465693
P 6.436985004161269 7.991448520216248 10.082533619977843 1.8025572318444312 0.21828383017969502 -0.4287841597592293
P 2.7491873755592224 9.022160711572457 5.733746775501074 -0.5854365902803724 -0.9886634703957877 0.3635647856391029
P 7.057095003014889 4.0878944153420465 1.2567412263021887 1.5002721189514163 0.4717881741245811 1.4473081651598751
Ni 3.043866281097155 1.590536623634566 0.28455460497140733 -0.33745111927118654 0.571383454621416 -0.22596885752877854
Ni 1.604934941662424 1.52782253468821 6.8765693827434315 -0.021006169938021887 -2.952669782819057 -0.8054723701541675
Ni 7.158001471872159 0.8377529003683395 9.068561860921237 -0.7562252030925816 -0.1205222604574892 -0.3103123540728656
Ni 3.115994305077518 1.828049749763093 9.272665977606856 -0.4533078559322064 0.5699942875833732 -0.35477366971003416
Ni 6.554163482463792 2.1431937314619103 2.3494635079848196 0.18068607443157914 0.4469109512669271 0.17109560252966663
Ni 4.4934212689567365 7.007169312771734 10.341125774552081 -0.6824155162002828 -0.05462128688930593 -1.345141267281122
Ni 7.429040940546917 6.381774776473903 11.296803901113082 -0.2606095875310996 0.19002277845147275 0.9791002521873847
Ni 8.13840595823021 4.051184616504122 8.007051094281305 -0.29490758948202117 0.014904427915658202 -0.448336370859544
Ni 3.5837258946318924 8.390881328929696 12.2948938515099 -2.3370448418807626 0.7278631070101206 0.6751354375991018
Ni -0.05952244662419847 5.139508271150573 10.122297717737911 1.29493019364437 -0.49245675821752605 -0.5633451576979717
Ni 8.86447957365019 2.5846299720468986 5.595791242321079 0.28973684391435905 -0.14788188341736466 0.846396104951723
Ni 4.143550326910249 2.6775141310491013 11.564021403119929 -2.0186103729213944 -0.618001154479955 -1.02852611091868
Ni 1.4190029030487317 3.57911443080364 12.35659651091444 -0.6853362893915036 -0.4002390011316849 1.542222495241273
Ni 3.062002886370401 8.66911540882368 8.034128663939509 1.597541579528552 0.03511561275621049 0.3844729965466798
Ni 5.721507750397924 8.091781966941014 3.4043845201009453 -0.37453362594578077 0.627776488699164 0.41824443657016996
Ni 3.279651245238763 8.470049339109403 3.5854722477976213 0.26577313400991004 1.0408635494381107 -0.9672749774176825
Ni 3.511406863274028 4.711024149878074 9.171345659431665 0.6131687660883183 -1.1543528143082185 0.07660370469766808
Ni 5.33757382603032 4.570087992050113 11.556340177867542 0.16576082058031452 1.126181494080325 -0.6702963643392456
Ni 7.754126401465222 8.938681392014857 2.4691150770465193 1.0451740038880064 0.38937943270936165 0.24060949026008885
Ni 4.6952614934394905 0.5568519936608554 1.6715737774369677 0.2113444227473844 -1.3731531791130158 -2.0542054964171848
Ni 6.058408381953113 5.878033748465777 0.2401808625009661 0.9810712598708264 -0.8948721981752394 -0.5396254454835288
Ni 8.247571222267073 9.153073529876288 11.135298067846081 -0.24174591785737717 0.0036095717281292676 0.3301563853819862
Ni 0.34320114633591997 5.21733922968777 5.819957500556947 0.20105641055781504 -0.614641751089419 -0.7337835862596137
Ni 7.4331976249049285 6.3505223312788806 2.471763712681208 0.8624341322511921 -0.9188292232114692 -1.1194017521543302
P 8.703587692668016 1.6247997089225894 3.475232794652048 -0.22195767948685644 1.0677518891885223 -0.09193853528252552
P 2.0437607480882245 3.5030116342533626 1.428357716751607 -0.24954073131144763 -1.7572484806053026 0.20178351853182666
P 5.059567135871455 1.4991896192417808 8.14336942136843 0.03412702359069607 -1.6551551162769624 0.4408531751086214
P 8.8690091771738 1.8146610421591718 12.361202517389048 -0.25465157017545176 -0.17021499969692622 0.34164638829945676
P 6.287544470239785 7.821879446941858 1.2031363701447777 0.9953709643229504 0.37501005136156706 0.19883549164709627
P 2.3387943816129453 3.6032541250840793 5.8431075947101405 -1.919628557638842 0.9187034962668823 -0.5985983244733111
P 7.165432568415912 4.526329111423439 5.831819058699796 0.10377589423708579 -0.6713759705566695 0.38408218886616435
P 2.5612634028658707 8.618007291957898 10.35763335976292 0.5551322828698761 -0.053175812692031 -0.9686754573096348
