# total energy = -340857.23320845404 ev
CRYSTAL
PRIMVEC
9.37654586256937 0.00000000000000 0.00000000000000

0.00000000000000 9.37654586256937 0.00000000000000

0.00000000000000 0.00000000000000 13.72352266565111

PRIMCOORD
 96 1
Ni 1.8288952952024455 8.359021971585063 2.3099430470525335 0.4404767656058091 1.2377007797082555 1.4399635518693459
Ni 4.025276180815423 5.666762451330808 8.048173531913374 0.18459389412641758 0.004206581882179852 -0.2282406842820908
Ni 9.287918876555715 5.981983174397282 11.558239453221491 -1.1076338129851246 -1.6832670440218302 0.5292137632319015
Ni 8.65694296730138 0.14995722469681452 8.432185284629952 -0.3431797942248477 0.43117374303732836 0.7517298863253893
Ni 1.0823534566306523 1.168458278449899 1.3749738908992468 0.5728497547542973 0.033280102209368494 2.3048957679520434
Ni 5.158291115425972 7.364132935942099 4.5036900608971315 -0.3715066661939989 -0.5415481164275383 2.253888937886873
Ni 6.6800576467506625 7.600965734538476 6.349571906813695 -0.4079499966226974 1.918728414422076 0.14555452083576867
Ni 4.124883228859185 4.370529980685452 0.1701702448858323 0.3992848647485317 0.8971311694127453 -1.0430610713100616
Ni 7.908778986273446 4.857819699200582 9.510044562767959 -0.9351490434174153 0.9397888561822719 0.2014492751208595
Ni 0.7270264334043757 3.760351250435265 9.836527455222116 0.18124014716283626 -0.8595334136646293 1.36969016026508
Ni 8.009258053094207 1.693985551509173 1.590213441736989 1.2971788804692304 -0.8454324554868731 -2.3580790368432423
Ni 4.126983575160775 8.737937571556486 3.0073864778608375 0.7389031668743661 3.273005839676512 -2.093323031243937
Ni 4.483779903143566 5.551355923295167 11.551157348035813 1.229751700064508 -2.63121812429992 -2.8678436902115965
Ni 6.124487920341843 9.258457769057504 10.357307383047036 0.9654240402518729 -1.7163687116718054 2.102278697775328
Ni 1.4283292505418534 1.800221817567331 8.273815422871587 -0.4060921174783523 -0.331431652549984 -1.1488074590099568
Ni 8.883977275338994 9.186942852797523 0.23777514146829642 -2.925272107532394 1.3142494627982722 -2.084743774215358
Ni 8.531775454890933 4.056237535671913 -0.003795625816446808 1.039256352851991 0.391293619012939 1.2810611489717616
Ni 7.136198479489516 5.955785104903329 2.197025991977038 1.0329967450955242 0.9488483952813789 0.027128737895991985
Ni 6.4145138643352135 8.67582733092372 1.3636545245810288 -0.0632607077318588 -0.6324445835987946 -1.171635512648066
Ni 4.107011532203681 7.83236013646109 9.131961600080382 0.06472777919568853 -0.11186072812774928 0.8604975773501117
Ni 1.791679784171128 8.573951158750562 9.408710354952978 1.5865868802892609 1.8459404839260725 -0.12686928572143957
Ni 6.0217303528456965 1.7875916101198168 6.8856956144954165 -5.26674310350531 3.0190914047774005 0.3239872804567969
Ni 0.10141859672888333 1.4313766279883586 4.547316316421297 -1.2936664964405977 -0.0893355504420397 1.186769282965711
Ni 5.240373399015832 0.6720020485756829 4.929036441298103 1.1220962682673576 0.4932077774509377 0.4520544431410795
P 2.8871228990027675 7.148716168385159 3.691023882354576 -0.8328751876471527 -1.1919073755232246 0.576244382258143
P 2.279625860905504 0.49631370637517935 13.438197542572173 0.8149520275098286 -0.4774654270150164 -0.7530398633860644
P 8.603402889702783 3.8301690118711913 2.205342988269499 -0.1994718396795145 0.27582306204674434 0.062449781794789216
P 7.251942563180769 7.300850627060677 4.246826147103928 1.4908030031187163 -0.7532203548279867 -1.0460396943224113
P 4.17940784378665 0.9207083673582424 9.816655741307107 -2.21711984868764 -1.0455941221445604 -0.3847311353040729
P 5.965564842370112 3.33121487014544 12.848538445564852 -0.24179142638333198 0.11087548139634454 0.062086484918099524
P 6.66553337701332 1.2534285382044466 13.62224320021289 -0.36665396608738793 -0.9554551019646191 0.3162464601691134
P 7.369768240081635 7.065152390528999 8.41980636861495 0.04448368423467178 0.10607137513948182 0.9194396031019585
Ni 1.9946351221083591 8.675592917273988 6.904674681232249 0.06769946022950275 0.38754752170694545 2.5348110117230798
Ni 7.521949581487099 2.358004408829612 3.5592093364923536 -1.0592520792476274 1.7879142851202756 2.660410686703476
Ni 1.950884158522537 1.713910711736321 10.553237812729122 1.13828419088113 -0.22679392453323519 0.48484706419106827
Ni 6.384912108647164 3.8987396926905475 1.418806430435175 -0.13462861795188427 -0.8446672951860743 -0.37542117075705667
Ni 5.617469949065341 4.718774898726051 3.8986881216876066 0.40581906632262366 -0.46809504154370996 -0.48930124330767993
Ni 9.14270430882026 8.205387265551266 4.918304984413411 -0.8437535251225533 1.8393111515350131 0.6361585421152721
Ni 3.6700082298288788 6.673934762219685 12.999085455004389 -3.9285235030446857 1.1213149100166429 0.8991625980204773
Ni 5.713823335650833 1.444803841844959 2.186513946268494 1.705311168306063 0.09020869707561238 -0.8497028007274529
Ni 3.812531728865419 1.531002429124098 1.1572664331571347 -2.7863859998557365 -0.1458386277350908 -0.3243392644795769
Ni 8.330479765593799 5.053264423800427 4.252562717940148 -2.0123733908727472 -1.6656842979430604 -1.5923415233848512
Ni 0.6230086581272732 1.8909586531052651 12.9679468834287 -0.2950942515715305 -0.28979263685295903 -0.7986561185632827
Ni 1.1693115441349202 7.8422430159337555 0.3601240641543748 1.9362561388931945 -0.8268426082998277 -1.5724309005038535
Ni 2.4481036392402773 6.786247030078875 5.909609366524688 1.2940796727186166 -1.1837263823743291 -0.49404312886803947
Ni 3.8453871460117375 0.8912678882612076 7.405460062389701 -1.800113398289629 0.48210292578702785 -0.23353561413244295
Ni 3.3116929013958294 9.020734198592148 5.128576841186051 -0.8001586712507381 -0.44980781319874796 0.13023228865640152
Ni 9.278054750175029 4.2102097973613235 7.759375915444596 1.3749722345996254 1.332048695763222 -1.0090857428058815
Ni 7.762223572461529 3.772025050191876 11.677757596673416 -0.5765359453566329 -0.018293141882233008 -1.635333967785977
Ni 5.977126123574853 3.712108921320594 8.326665386685374 0.37552015822876617 -1.412807046059212 -1.8070486919568816
Ni 4.858222890678118 6.737723404584526 2.35844229352731 -0.19602064790612045 -1.464253534764962 -0.42433178041483044
Ni 3.9728800418275165 3.573598583967451 9.816559162883419 -0.7709771645907755 0.33335200950114846 -0.7556461906606599
Ni 0.29922808622721625 5.906426966815937 5.682457851662207 1.5110419558734105 0.7006878321469093 1.5218495880118759
Ni 2.3409109654912164 4.399137822498643 6.8232806361180005 -1.066873086127995 1.0446461564089946 0.4548813710669134
Ni 0.4206431049327657 9.396986859502626 11.267094887291602 0.33107838297562336 -1.6820856221192193 0.5521060944490428
Ni 5.711357304055661 2.064330988446425 10.519230955735326 1.45692306254182 2.566718659064954 0.887405200374233
P 0.3358875680813716 0.34165039324636226 6.528018828844235 -1.6431627198017764 1.3005933054674184 -0.053723200555068774
P 0.5476962407416489 3.872138431719056 5.706117690156871 0.002901489917511132 -2.342523605607146 -1.002246351286545
P 7.983847613463349 8.107908693447065 11.297231106101039 0.4600963396089495 0.4295297796760022 0.32920122055756856
P 4.251513482443952 3.549463354591132 2.009782932153986 0.017091408264647983 0.43020906513121393 2.0910434911811406
P 4.533091158501012 7.819148583162242 6.987962788636327 -0.7305504240342967 0.4650014902200508 -0.31900833918496674
P 4.74877046934565 5.313557340461898 5.836106622514987 -0.18769695853177354 0.39552025549977693 0.22527697366807653
P 3.9208870943171465 3.0902657678597834 7.132512559261143 1.6500165094988164 -1.0742958609546274 1.3908799069688176
P 1.0485978910693663 3.73304674851458 12.079156278617853 -0.7201040318899921 1.5539806642184655 0.03220589530858324
Ni 5.6971987196119 0.014767122278463633 8.243048162517074 1.8032010360760173 -1.596977736605282 -0.9772631989786459
Ni 1.4554180919047854 5.740921553559755 13.344987174202274 0.3217144252622201 -1.7643835489881874 -0.12136686784597164
Ni 1.249556024710888 3.733009242330623 3.1073207673596235 -0.5340880606050673 0.11937066335154925 2.2524336934975855
Ni 7.490697553704942 0.7493041690202253 6.017517470732728 3.1159672294605434 -3.4664348155960556 -2.6580619839656414
Ni 7.254624255333694 6.144206796557229 12.815245143720835 -0.33691401582079394 0.43174349949786933 1.3026956965224015
Ni 4.055768708372451 2.010453355192217 3.498057378859689 -2.208664775941751 0.5439173879906632 1.2971585687542564
Ni 6.384283880065884 6.787812913259078 10.628168604692986 0.3396157310226732 1.001354949820527 -0.595564936963626
Ni 3.1899103220875014 4.941627267252463 4.249255610169742 -0.08723315938705621 0.02401153242324897 0.20479865120906662
Ni 8.019356593124625 1.4223001314707682 11.32931670882164 -0.9172317968173622 -0.5532111545877634 0.2620609752656455
Ni 2.226263937680705 5.570831009314831 9.926443842985993 1.935943235638466 -0.8470198545786509 0.5564211768846288
Ni 8.753746428094356 8.440972983531074 2.4158342562182873 0.0026973443265050317 0.2592085934185149 0.46367043011345305
Ni 1.4788969630618576 3.59126399661119 0.9472017980508572 0.3349072698034103 0.13922857861774085 -1.902370541889343
Ni 3.1340542376295626 3.347952004736244 12.088763487638435 -0.5525794345410354 0.24990968461509216 -0.5493084770992476
Ni 4.4549001414966884 1.4562807341357962 12.685955701693516 1.011360397772671 -0.14925202429201392 -0.8827077948985637
Ni 0.5561773265889219 6.744230727501062 3.5258616506816 1.7202731889325342 -2.0352173853504563 -1.5353548215871622
Ni 4.218911232039344 8.664209790443044 0.14069882318703295 -0.002798388680743567 1.2074332390729656 0.9598390899649275
Ni 9.003565742885838 7.445868287330357 7.144191984945349 1.331386379588875 0.8363505477902627 1.5547242272527095
Ni 2.636947275463693 2.4424589585547514 5.499811174683083 -0.9337146249637339 -0.701902678390617 -0.4820404479802085
Ni 2.6741721630410002 5.656054435811089 1.9186166508097444 -0.11593104154238099 -0.19853595812880648 -0.40380872076081425
Ni 3.402701656767452 8.744013573357517 11.482841709267365 -0.8500622409494005 0.39058168054757897 -0.16864791232012247
Ni 7.986744966174026 2.418501883552228 7.399874453943907 1.3629973216259366 0.7380307915717419 -0.05319226775226323
Ni 0.2210492587326793 7.134885763051021 9.667014506210132 -2.522467402556062 -0.282136662969598 -1.194527072534259
Ni 7.344573461008531 5.492405578660777 6.733227350782682 -0.04091679281901985 -2.0731036188732688 0.1383315207247682
Ni 6.925891929496715 0.007201187319740981 3.4923892568091897 0.4075327065796207 -0.6163088543791967 1.4510334365302624
P 5.3428871763162595 6.70422100576495 0.3708714611672487 2.5611298521232664 0.04859873484430985 -0.5216642330194177
P 5.619570295366932 5.166786266092228 9.626667228818404 -1.7708141351048794 0.2802343037405625 1.0364857320853893
P 1.4530458257695062 6.1219281232867795 8.112962651735268 -0.4815048871917127 0.4067318079448801 -2.5785989554423074
P 1.7572116011146592 7.010130818664102 11.339911268134891 1.3870271088816304 2.2045972907405966 1.5555541793531726
P 8.602399599281934 6.962451082308786 0.8568606527536692 -0.10996891042167511 -0.07212381454944353 -1.0146318694350913
P 8.304994313595028 2.45205116510175 9.443224483084794 0.3440164311935301 0.4395375416209914 0.8701708387738175
P 6.647999236013431 3.3973945317375387 5.355207020091529 0.8056726590904317 -0.11930278622809132 0.5246174021104707
P 1.823316250338844 1.6118751382813454 3.545883389332437 2.277320429436936 -0.3844439430809573 -1.7453776973096458
