# total energy = -381173.8051552452 ev
CRYSTAL
PRIMVEC
9.23926861483756 0.00000000000000 0.00000000000000
0.00000000000000 9.23926861483756 0.00000000000000
0.00000000000000 0.00000000000000 13.52260353740019
PRIMCOORD
 96 1
Ni 9.045373138211453 0.06872629818223834 8.198686579709022 -2.445482146149259 -1.8194133841698215 -1.2735689543597744
Ni 0.9377580273714654 0.43422159389526493 11.932480062166798 -0.6336203490744508 0.19112475326639985 -0.05232272066311634
Ni 5.133134273239445 7.42098039927053 13.387701796238892 -1.773538476014578 -0.47045659979735105 0.029378967382749404
Ni 0.15392621196694103 2.9803570123190877 1.8967746874629028 -1.3640753851814635 0.16043735148487206 0.13533361443870887
Ni 6.2728349905845855 8.439665178779958 10.271282697453348 0.5150865798019001 0.9474602566846007 -1.177070567620708
Ni 4.273438824794072 7.60214397455551 10.89387634385908 -0.29983536580094167 -1.442205296715671 0.3704802818120136
Ni 2.2483482535125567 3.0112716044704313 2.9276164963664533 0.7899909866891169 0.9097403735363235 0.5405081051987982
Ni 8.901212832970145 3.406952514056038 6.1842784505809405 0.35448442060438945 -0.6630944472741677 -0.13582263825998545
Ni 2.6957228699382023 8.153950041993301 8.577522455101466 0.10171952592868932 -0.6679744010742884 0.9676850683719076
Ni 8.367746713356748 4.024967179030149 13.380737235699835 0.6379989377581206 0.4070871344017699 0.7662219092939772
Ni 3.054308116795882 3.8222761083140173 9.68046659086989 0.733978218768923 0.061450651106313516 -0.42057642713745624
Ni 3.956605831950714 3.6067609330234496 4.770964190232715 0.06268375218246625 1.0465508296308752 0.11659824281273468
Ni 7.72581158242931 4.873335284385999 2.751700825547092 -1.5140594025434957 0.8695635442071218 -2.241328327613043
Ni 1.1338430211634454 1.5678299376407057 6.9705642156792464 -0.49351965226440175 -0.03884576922260406 -1.6196546093775073
Ni 0.3130753823747531 2.098801454779249 9.1416315323745 0.8698304247152634 -1.1492939117280723 0.5422867943657758
Ni 0.7156127530588398 4.500493846347948 9.454260658084307 0.30921397880236423 0.009287595949513037 0.27213892832693776
Ni 2.8685618643719097 6.258320099888303 0.1555800410150852 1.3650048389742686 0.19866374195592237 -1.1165627400436382
Ni 4.223703842860216 2.1208186314369453 6.816988171985628 -0.32248498487965754 -0.3970374634752517 0.5640038743278931
Ni 7.916020401502744 3.094341866883082 4.164799810941005 -0.9838202833708735 -0.21759991673879298 0.07224568483928848
Ni 5.042460092912701 0.19244102632500765 2.83715019957928 -0.17784886209310016 0.14052544305229347 0.920368542674131
Ni 5.25597034695496 4.815063218427085 2.703371136340737 0.2281884908879167 -1.017024538036984 0.37920660594141786
Ni 7.168877721015431 2.093729096413712 12.812517607904345 -1.215807836289906 0.018712745918154867 -0.4589069472865387
Ni 7.27854783722477 0.7456865717834731 1.1057685801260657 1.3094880368538866 0.5047528019760599 -0.4700429092987002
Ni 7.5673950860076316 5.666101472357872 9.76138595159311 1.3036248932048904 -0.21968688117480875 -0.37123027260416064
P 3.910335575676377 8.380293639878422 1.4503397046361193 -0.49100562759329636 -0.5330876443650109 -0.8823617244130546
Ni 4.5609556189236775 0.43712919166873415 8.710801673918194 1.295632361917717 0.1186641242028279 0.24058017968405018
P 9.148501852375617 1.6900839374454213 0.1483170521058888 -0.34956127227115924 -0.4840284249445148 -0.4914576275290503
Ni 9.191529125432643 8.88449899638862 2.759070989970023 0.41359099695855867 0.9232044694610294 -0.38644786088486344
P 3.1571504136388606 6.075807591413216 9.388891910047855 0.015691956813960073 -0.3496684872729849 0.8108783716610873
P 1.0697964124386654 9.019706450525728 9.709080605183312 1.1507180457691084 0.725652215401731 2.9138129578528593
P 4.310368180690342 2.3470698366378127 2.8638849466949785 0.6583808438485822 0.12080559602586291 -0.4264267152706463
Ni 8.019001287372104 1.0730486349244015 6.1683351689860935 -0.2823796322183395 0.16846459266472277 -0.7349557521908439
Ni 1.491864672647177 2.57748795189853 11.118730571674028 -0.0973998155074129 0.4022120656976557 -0.13542360304935386
Ni 4.351409011035909 5.425972885982074 12.02941015114437 0.44993662546712837 -0.8436522236579986 0.6836745854183645
Ni 7.237257546631716 1.125804857633359 3.249130102594112 0.7945932613478186 -0.7223766299742527 1.299853599087916
Ni 6.468494978028998 2.9071080922426225 1.594761481173865 -0.5318830825339486 0.5862526584237645 0.2259243774440883
Ni 5.283771305646948 4.846014767652131 9.95128340732061 -0.5644311916732989 0.2704769672434826 -1.898037718841944
Ni 6.060110074358485 8.807286430157665 6.91943502814 -0.3756307156647014 0.20901731727610454 -0.04748570428578919
Ni 6.850002849850062 1.442259040471276 8.444148995746795 0.3196562571816108 -0.23033639046885493 -0.03259798854067934
Ni 4.227944667067468 6.867465067174043 6.227699316472886 0.18745836015840617 1.2245650136572457 -0.5752599068576867
Ni 2.0144469340554694 5.063229968332971 11.375024182086884 -0.4377441971659945 0.47853063505473714 0.27621284128599527
Ni 1.6343341917666383 3.864222386965273 13.314409451600826 -1.1510294063619404 0.0588360963016019 -0.17857956961153762
Ni 6.816538219613312 5.5857475548622855 7.490535459830525 0.7120608498705414 0.4801213765806247 -0.7140130885009057
Ni 0.2722156416903233 5.292650242603745 7.204018354544546 -0.4252728041718611 1.6459153428462494 0.19911779877420546
Ni 2.9956295230262517 7.692670326587448 4.344055477296144 0.4995198357118946 1.041992520836231 0.026882169102824666
Ni 3.436610565701529 2.5348856851890718 12.271410613303154 1.3024154462778215 -0.3513744142204981 0.3560188549710449
Ni 6.258800541846424 3.299065576652799 6.826020480798286 1.1828725190144662 -0.19327573817113167 -1.1004789471078982
Ni 5.093867382431553 0.4336949555950179 11.900079795652653 0.541447586293932 0.8096270157524895 0.5946426822596727
Ni 1.4536972547819047 7.648562059124653 6.616163433491425 -0.3459259895114171 0.7998578521808677 -0.5853183195349532
Ni 6.600930651638491 7.997510749014655 1.6589263525344902 0.42308762359508423 -2.2192145264331393 0.7649525556632504
Ni 0.5034117033524577 4.79616891449717 3.6657610533342835 1.2561204198660236 -2.899418122583768 1.88401363664871
Ni 0.18876287356486127 8.448608790615731 0.4263599003921035 -2.0650056723564822 1.9914497533462028 -1.3257998866400327
Ni 3.078071515185976 5.5227911798116995 3.303801625647652 0.27604649091146005 0.09363057827296778 0.5033289250453397
Ni 1.9327810404434769 7.418513514600952 11.327763476237346 -0.7250654896603255 0.24941577569780915 -0.17619692831197398
Ni 6.937480243301623 8.59272289951491 12.861929215443315 1.6421887859242814 0.9965657559619998 -0.8390697464936389
Ni 4.593237622801978 4.906587411448966 7.3548623465647776 -1.1864029007652277 -0.8075637054655577 0.6790298875575015
P 8.568987218930094 5.557992792512423 11.807504173883963 0.23723877401564303 -0.13082878458981984 -0.7951082533110242
Ni 0.5496237522357139 6.264685955833396 13.477451125796254 -0.6879529010787443 -0.6604930050955786 -2.1430134564905288
P 3.2545323028424353 9.141655554472406 6.757461413374547 0.8415464901689055 0.3481533361800391 -0.5338492051213838
Ni 3.169531033328879 0.35957939214025153 10.725182085241002 -1.6978685959850888 1.1653841324217156 -0.6072822254005541
P 1.7848973100267387 3.3909962974853958 5.1618887244329335 -1.4946858831128904 0.7875515240096888 0.31478350247034176
P 0.33760286826362695 8.963023538735982 5.1817670104501525 -0.553554139749479 -0.15832493312755958 -0.5192119148241833
P 5.014234127873145 2.8743733642114777 8.688786345114183 -0.7390252942745272 0.7104415690995636 -1.2983592739305767
Ni 2.454282307445999 0.5255203487675653 2.807873729719758 0.5732253929261611 -0.25935488918839206 0.14532929219884003
Ni 5.8192515857770815 2.2704947799282085 10.458516472093807 -0.28114730247313513 0.06872995837654615 1.4706111015518737
Ni 6.66343430253623 6.652568922867975 11.708221767165288 -0.8188760451545833 -0.782901169721871 0.44307949333597885
Ni 2.586302213976348 1.6091017496969078 8.656629995286467 0.05021235918833288 0.5332928183972815 0.8940910970348408
Ni 0.6281926430715166 6.856507294821535 9.15608729175286 0.9995891161693561 -0.5817010344973401 -1.4896647757492152
Ni 8.175671562061385 7.550542660399727 6.356285910856363 0.3850967461736078 0.01742925122004095 0.5849395960392958
Ni 8.39904011551353 3.159718930261118 10.89037466112586 1.2555221241603924 0.6964689089695554 -0.4664947869361256
Ni 1.9245765700817334 1.7466005424035111 0.8210614475246197 0.7595930911235499 -0.8632059774202101 -0.7699618359523837
Ni 8.13640467125349 3.508972516009157 8.433398183007016 -1.820687880006871 1.3954958084742741 -0.9651707865904862
Ni 1.5025545062153491 5.296216600215944 1.739020646587324 -0.22263516516985526 -0.7848076427159646 -0.05164137832537558
Ni 3.5594004430749178 4.032284679623055 0.9844985624086536 1.2364170278998254 -0.5734436795845543 0.5665981174176307
Ni 6.274812194027619 5.348603252187887 0.48854572045601063 -0.2632979329965401 -0.489203541387551 0.11755649296094592
Ni 7.714262496897577 0.9950230130720116 10.920529785412636 0.8258123672631004 -1.3434741639913443 -0.7050684777131083
Ni 7.922552564279493 5.384599441973192 5.000523053529871 -1.1803500097029285 0.3695400293859313 1.6389625656774998
Ni 4.966716570361381 7.245452777725035 8.569246842372845 0.4004495744805942 -1.2575939190877568 -0.17106140685762156
Ni 8.513551608377773 7.909959441415691 10.61007835527069 0.038802060468862205 0.2774348866185544 1.2276313112873953
Ni 4.626406596449116 1.2214220465676853 0.6590388646365124 -0.0934904531506777 0.7657974201620489 0.2071077589582175
Ni 0.5496828835536364 1.641873434801754 4.014374357780444 -0.4048291916055286 -0.30010096075750253 0.8914035229003487
Ni 2.713018780430526 1.4237343072783761 5.201252627559294 0.4491709509456974 -1.1802741621596706 -1.2263681283042558
Ni 0.9171313606117898 6.934043235447379 3.7013664220651954 -0.5595970035094492 1.0256367051860271 0.6902218996185789
Ni 1.8463661628608359 7.744983064411988 1.5913937678328116 1.4364524533922938 -0.17349264200693348 1.496218260597017
Ni 7.658632861708325 7.747801041281731 4.014806755542752 0.2927877149255409 -0.3880432303964414 -0.20335291990147558
Ni 5.43341049706451 1.7543707671492614 4.733060091517567 0.5573061505927435 -0.31201622413784974 0.342162665814243
Ni 2.2192537972410142 3.888004263892218 7.290116325220197 -0.03494154907219143 -0.556705540894267 -0.037292051582239
Ni 2.992525128835322 8.863498139257716 12.974613181013014 0.15146111612819077 -0.1986020354800515 0.9875553249332735
P 5.62518999177026 5.066140337886967 5.045255895538222 0.3827644984960053 0.3024627761214597 0.720409736055869
Ni 2.1203936250893776 5.7216571933997225 5.582252339616961 0.27737215170141905 -1.4089282798300962 -0.47177814682225205
P 5.27029121301431 3.3446983234057837 13.22282058369997 0.2609530869134474 0.6920777218803953 -0.29956462863805833
Ni 6.673532822925178 4.252474924736869 11.6331305369648 -1.5505397568577168 0.3898887682456124 1.695254041180377
P 8.797575959042582 6.581777648192663 1.8719071964959746 -0.4978108234405878 0.9722711450806932 0.47067411512479584
P 5.972863662617558 8.81484415172963 4.7545339991918505 0.23530890398278184 0.22129716308472208 0.45632530260229154
P 7.24916696363204 7.567007036733765 8.473763622830688 0.5146425502859459 -0.008837652896288005 -0.19765329841353702
Ni 5.426194628424283 6.874228211661426 3.790750800519756 -0.7103160992652927 0.54899351696199 0.3226004274115993
