# total energy = -381164.22188191273 ev
CRYSTAL
PRIMVEC
9.30363392949235 0.00000000000000 0.00000000000000

0.00000000000000 9.30363392949235 0.00000000000000

0.00000000000000 0.00000000000000 13.61680868155151

PRIMCOORD
 96 1
Ni 1.177244611169565 7.50417149823136 8.001577256226913 -0.48158587694129323 -1.3460884616857398 -0.18902287643204865
Ni 1.851655724363206 2.098416004615864 8.737347695300821 -0.24602500484870535 0.2611166090745051 0.7376618382680973
Ni 0.7251401070520148 1.1091978332874268 11.342434016486893 0.3561700358369285 0.2974000168865717 -0.13705291112266074
Ni 2.579199890398642 2.777367291121849 11.360503534124668 -0.9721906695517448 -1.0134159947501191 -0.23121622197064695
Ni 3.580615125687085 3.8852998302074755 4.270040443166506 -0.5208504788688707 -0.023725368641397848 -0.29398379211617115
Ni 6.369825942683144 7.676316635113121 1.6996910996367838 0.5974477558086356 -0.6265665275514628 -1.0101306391306282
Ni 2.790541236634716 4.915230703205619 12.396333841338707 -0.007961163828605644 -0.39354641960285774 2.8820456927435916
Ni 4.198702039632919 8.442703472417072 13.677267451619077 -1.6359831713342017 0.1271503072969681 0.08516984910012429
Ni 7.728156482851604 0.9441420653892852 13.227790293697032 -1.0736859952847702 -0.010342005355956382 -0.47128423790496893
Ni 1.823372677499424 7.368226800608473 2.4342902112106426 -0.28222510891834623 1.3372510658997678 0.2905881361710609
Ni 2.5140186317382294 5.161311818188193 7.189538418049311 0.24976621705869242 0.01004530005114399 -0.7378541567845616
Ni 4.33737270196998 1.4512273240286129 12.753353346917697 0.40402160810256865 -0.7525783503686136 -0.9133152353717755
Ni 4.142191767708376 1.702164935873981 2.2338508631044967 -0.2902724047028549 -0.2671497026424625 2.0374946114204073
Ni 9.28673843772271 -0.07801748226500457 9.36784658714829 -0.7524287121646268 0.7435182970488744 -0.0675361951787611
Ni 0.4614714026644102 1.1930235741567272 5.357942258601566 0.32722995576381064 1.246263324566286 0.4216213234622029
Ni 4.5862821216389325 3.6295615433023336 11.629053855186426 0.9110647487747019 1.3290356199685112 0.38430073263487363
Ni 4.582988635260715 2.1995651116892305 9.785556487334683 1.4962629977920232 -2.2962175234517552 0.490083372889343
Ni 4.886491778283836 5.741291047938617 7.606798952721389 -0.79454800993218 -1.0733579225213903 -0.9248767149571298
Ni 7.082372650973706 2.8061899487481634 5.315089721149402 -0.07244725932713329 0.6137845452954461 2.904608665645772
Ni 1.9994997696633225 7.297361021673794 13.032524696367512 1.827129007646524 -0.47134131639514953 -0.4826289734938269
Ni 2.1339186713369798 -0.01937388710169044 0.9625772158368455 0.57892167197999 -0.45319832693753564 0.007497079707993539
Ni 5.921027950031181 5.789865320200393 3.168345060205051 0.6973387131690184 0.5568996591829442 -0.9156940200165972
Ni 3.3207925435276016 3.7281893656059357 9.043453995071468 -1.0701479002245247 2.949723555706539 -0.9603378839782171
Ni 4.144322299856997 8.241689159739813 10.944510154381158 1.3612116904804232 -0.9844882559721755 0.25725044125087954
P 0.4785417100281164 3.797706117634283 0.47958557774460203 0.3038519431595025 0.2301947226846681 0.8477832151072366
Ni 2.941408962931783 0.31552064685007636 9.650327239153842 -1.47241910129489 -0.32585955777884523 0.48239088934109187
P 8.601274607530986 7.955174452102636 11.276991325715667 -2.100013298779919 -2.130276211429518 -4.3550862296725645
Ni 8.071823413148062 9.018803086857563 4.53646674462333 -0.6046964669512489 -0.19016470334597574 -0.9830872618595907
P 2.494481000681012 1.849422852242381 3.84075682248717 -2.613850836666066 0.752241535854485 -0.5726368674125428
P 9.030832685408507 3.1566950499146476 6.126801071415948 1.120733069371244 0.5071799233603136 0.7394677811285846
P 4.3694330241714905 6.343180335374632 5.494818249971514 -1.012971708123849 0.8341183160256344 0.5477300768685341
Ni 5.746491779253371 8.383467235778356 3.9308597251061395 1.8996438869867993 0.29939442160878116 1.9683072537914683
Ni 6.692094515155029 3.026276710790801 12.103082372440323 -1.593746631262494 -1.6373353144867222 -3.4625699333240108
Ni 7.136538407171383 5.2944003002231925 11.554161463527192 0.8988905753060131 0.5352694825076781 0.38434238450608643
Ni 7.519187563243907 3.94258230374047 9.358124289788863 0.8592235957336944 -0.3253576784417623 1.0793892163171348
Ni 0.7794965877433452 0.8561092212989975 2.943027795219381 0.2728644936390527 -0.5525542377300549 1.0441460768441244
Ni 0.0019463201986523434 4.8707500298320205 7.857429544650144 0.5551947606766955 -1.8464608752059166 2.405826736541166
Ni 0.6493275860063249 6.138249192852094 0.8829846283632758 -0.04662489894739067 -0.6862942824293987 -0.5675748795086032
Ni 3.7914912902313205 6.316553335333797 0.8800288638933339 0.619452799324817 -0.24191535355570595 0.6444863452546771
Ni 7.085117222955553 6.701128343610533 5.189665572669135 0.4178320316230998 0.9183013757324573 -0.48663706621195546
Ni 2.8006915011506326 2.312501922833785 0.633633286087077 -2.59262380896649 1.1695014970241986 -1.1083511507671235
Ni 0.7208046136840799 5.520701889668793 11.977249794434623 -1.9497554589312098 0.10652491773713267 -0.09101165259288196
Ni 0.4764046653358103 8.187793208923404 5.956876711931025 -0.5680212230174024 0.5456120020842667 -1.21625186580586
Ni 4.661892753830364 2.9952118774098255 6.722618807410089 0.22097166142450334 0.5015430367895104 -0.09716867333321329
Ni 0.6827881051002691 3.7438752922547303 10.187442767091497 0.3193796064814564 0.5494750845840989 -0.8319758157613348
Ni 2.3090688819480167 8.962813818427879 4.513114623693037 0.508412510215834 -0.0921658208019832 -0.01959309164057916
Ni 1.3908467404279736 7.5887787443429495 10.361914742795834 0.7777749042388993 -0.42445725024910125 1.490916645878445
Ni 7.2069483080480605 3.2093350101630937 0.48379454169235686 2.287475258482751 -0.31947242330557885 3.604134102053464
Ni 3.3471590418210084 7.067319371425811 8.867388306890893 0.049914111221623716 0.5004171507151832 -0.15164160757011302
Ni 0.10989824433346532 3.2535086636200785 2.983783293604737 0.3393835604072091 -0.30595664820733115 -1.139186133870109
Ni 4.2155416168774735 1.4309081877291066 4.726366936319183 2.607522323344877 -0.67916281359094 1.660191393149289
Ni 7.866920181527033 9.319915195984631 7.393968094708049 0.759343437006589 -0.5301586436436739 -0.7144082670567955
Ni 6.0048257799989715 3.318215436954816 3.1767332164722832 0.10763794829565335 -0.600217862354605 -0.6495156801484685
Ni 8.056816651769353 6.657019815590405 13.441315202794595 -1.7097933724471328 0.6282809391394083 -0.9227175025222819
Ni 8.669144616370225 6.489396244753315 9.422545441564813 -0.3220237289725228 -0.06699420663236205 0.5217791613307272
Ni 8.67008428338774 8.43593973061774 1.5424438716178435 0.32304445692755335 -0.45134096201382273 0.8068494530073523
P 9.052603188586549 7.010697455895228 3.476139969517073 -0.8140344007915657 0.70665561969457 -0.2945198671252992
Ni 7.128313994859678 4.7371963661051835 6.874677398838262 0.7463274843628953 -0.36203857880256357 1.9209249078527626
P 8.239419073083642 7.141655405781606 6.907820664018373 0.5638328959676676 -0.45259077526052377 1.467510351139363
Ni 6.476901464510533 7.258788155786544 8.026278404063538 0.8365132986203722 -0.35217736973776764 -0.5458881385637889
P 6.2631504771107345 5.068266176186653 -0.02416525852762714 0.33620464845859516 1.2127978458189888 -0.6223092949370056
P 4.336888913010468 4.5481837410773585 2.264243974122458 -0.17692223651377273 0.5633220177695202 1.2123077935564477
P 6.462713422909458 1.3142406194160072 4.240056692037363 -0.9129781637473308 -3.775001647732724 -2.517508001668258
Ni 8.96203231318559 2.2537587787884177 8.261630568505547 -0.8762250153876975 -0.11160876001794327 -0.586947370497944
Ni 1.73589991216611 0.27947185682274256 7.34824259512709 0.6772116034018402 0.91558757634572 -0.6910410530857647
Ni 5.551161986850379 -0.2587052157356876 6.170552339896744 1.151122737406695 0.43912050868823077 -0.1704613113797774
Ni 6.1119106054601975 8.344159382818003 12.704972590239725 2.7247779972359525 0.6620739764294532 -0.446268946807554
Ni 1.1233765712546648 5.393828235036756 3.641870250868381 -1.3346565656997142 -0.19373416586478892 1.3063952568611759
Ni 3.7325155553400338 6.533579201844137 3.473797314516975 -1.0956943812350615 -1.4502546493827086 0.6206370494409054
Ni 4.862879155606113 6.536221433853779 12.41458012801938 0.43482753773983174 -2.467035446840003 -0.34468183269167085
Ni 5.565675655635741 5.365656831779016 9.895851996832977 1.4968623219389188 1.0464132756117461 -0.2660837232717934
Ni 7.696449698735892 1.456158249962101 2.189882819955304 -0.811593138339925 -0.39397219428636665 1.0409005733236332
Ni 2.38865216578775 2.8538152503585907 6.2782065477487805 -1.4426842932346187 -0.7224457926492912 -0.30013644198112827
Ni 1.9490368597326806 6.61111568623978 5.44054178053118 1.8975921466640933 -0.2939925338669195 -1.1588815554165073
Ni 7.889528011750385 4.564753512940646 4.230919593246271 0.6485877690175603 0.9149625411672113 -1.2221736306069337
Ni 4.310047929391386 8.434795383655818 2.5157602719924728 -3.3470700657817773 1.4570639589950585 -2.7215980568460743
Ni 5.64022567356978 0.5249789375975878 1.078573992150314 1.6874430297763907 0.8959973129186182 -0.44909741739528464
Ni 4.907834314305387 8.766479233570516 8.557388436359556 0.188553650105114 0.37255413362190676 0.9933901864474955
Ni 2.2622250855798787 4.920105807336087 1.8805081536177979 0.5259368922528426 -2.278250397450373 -1.0932207228835882
Ni 8.880848804325932 3.225681494814299 12.197147692710375 1.4711569467530148 -0.1531981534239555 0.2646631887751829
Ni 3.5587050680014913 7.988174441321661 6.568857650989786 -0.547711822036089 0.14453790664579622 0.5860320577725262
Ni 6.121837582764031 1.4235304060965477 7.824762625522475 0.39962502169676983 1.2881435097398395 0.9272914950462094
Ni 0.30935885015998343 1.2622146990007879 0.8502153692634035 0.14889901182796939 2.258086263797672 -1.8693609197325418
Ni 7.963780313401649 5.316449912416338 1.8277844606648208 -0.3678729260961535 -0.19353259137694412 0.6292798127175678
Ni 6.143626693209748 0.6514004356251573 10.927665925319685 -0.3180837704881683 -0.047944903310394846 0.019476877777689038
Ni 5.714282598910472 4.84110865242807 5.243315907552254 -1.7748870196226723 -1.6720488067085075 -0.5658077603058513
Ni 6.74100371823493 7.619983132231477 10.288615133249458 -0.8945161003874013 0.30317240059397466 1.2192975946107194
Ni 0.006071551441876288 5.421748440180904 5.8588089683843965 0.3617920100093963 0.7221197767684402 -2.6434568324579573
P 7.795170557377861 1.7382351242591394 10.225133648491022 1.3058987768407315 0.6302010389802566 -0.063365094520207
Ni 4.920961741649069 3.3429258884252784 0.7013088489791278 0.12381584360709644 0.0015377768007650934 -1.5048635949768405
P 5.609858612726563 3.788681592812616 8.535560250651725 -0.43495686422884444 -0.7539477199123144 -1.1667784416660807
Ni 0.1447291886915659 8.594538776633165 12.800426012678221 1.7811000904119194 1.8512230724812504 4.264157109491159
P 2.71278146502699 -0.11545809591431923 12.16731279972262 -1.262341203964755 1.3046985858850433 0.09680537645652361
P 3.822704981753685 1.1544414046356408 7.820976976914294 -0.4397488863008491 0.6800912389424804 -1.2784188262529081
P 1.6311130842625663 5.541253616814219 9.06879430255268 0.32060216603464786 -0.06929045886570646 1.9724385023510225
Ni 3.5765587413342534 5.575881741954678 10.538879162005042 -2.244925558045998 0.9406234362684253 -0.0403542354473305
