# total energy = -340871.7939965587 ev
CRYSTAL
PRIMVEC
9.25098129596051 0.00000000000000 0.00000000000000

0.00000000000000 9.25098129596051 0.00000000000000

0.00000000000000 0.00000000000000 13.53974623015992

PRIMCOORD
 96 1
Ni 1.6442971574244387 5.116578955649987 8.988293145898075 -0.35324823420444323 -0.5828418329700027 0.267406555848275
Ni 0.6927847073361771 4.749222490859113 11.215959955215034 0.699833197456098 -1.1094269003298054 0.13196675484900497
Ni 7.024011023286252 6.674305430689308 8.785440404699514 -1.6571808884577395 -0.7973679958794784 0.24945717045870588
Ni 0.14828952878397902 4.349025042688544 1.7665710767829608 -2.623410198219727 -0.6047694862810294 0.43789357825966524
Ni 6.286125007141338 4.712144558074377 4.416137211146663 0.7556071098926084 -0.29592188967914845 1.5877793579354653
Ni 8.212678852987695 4.724115327790806 9.408620729233208 -0.09599316496787338 -2.318398944644801 -0.7868982066964061
Ni 1.7478433903734254 3.393999995025841 3.2150804673770272 1.1373909896428993 -0.575816293581789 -0.11526615426487245
Ni 5.438069055484097 6.094065385748154 2.743991824914368 -1.0013580351443208 0.20595821873480658 -0.8884400693966505
Ni 2.64653921330403 -0.12891704898245368 0.6382992031639583 -1.2843624454308524 0.45473944617241036 0.72147160166148
Ni 0.44223483199469804 2.176644872518644 12.016009789956152 0.5463668779724205 -0.17578503758553596 0.304844646090075
Ni 3.664470933356005 1.8224618050045813 4.104438349850319 1.0283548754481386 0.027650671837733024 -0.12665357016620765
Ni 6.917939272460461 6.7458617705321045 11.382011367967749 0.034914552488997934 1.7727082668037988 -0.13297796972233872
Ni 7.334483204471006 7.104984862024971 1.6631007018800905 1.512466347024763 1.3141877563224014 0.2471570615706195
Ni 4.896414853268773 7.63338240813238 10.182701209455038 0.22284959517350653 2.490495477635156 -0.9414801278417656
Ni 6.668653081155508 7.343456656267711 4.476402728393707 -0.3218278109116328 -0.4511550712552617 1.0511924421679444
Ni 2.952126876397381 4.538078095180771 7.158368574332255 1.7724629835622119 1.1235707959303554 -0.7608539601138444
Ni 5.66721586064325 3.402806929160339 9.99852064877861 0.3212133172560855 -0.49080662420861276 -1.446387967338451
Ni 4.726835116273519 1.0405873730933457 13.557618280391969 1.684126049588016 -0.12424418939376666 -0.7639734795794326
Ni 2.9495736055768753 3.4055914745116875 10.918031179485078 -0.33017001222874104 1.3121730398852178 0.2649398394753372
Ni 2.145210038286476 1.2553026475279014 10.48322951091167 1.473496907740101 -1.4148071072083763 -0.44810317180281534
Ni 3.286614604864862 2.247350122087938 1.3992784437625987 1.2739211954928704 0.8020129508506574 0.4785545463141371
Ni 1.7655775213984595 3.773910041350869 0.1811776921679639 0.2951544153855046 -0.35352745600775887 -3.2145268696040126
Ni 8.222910438232185 8.514797398118404 7.485421289182197 -0.9809133941367236 -0.5105982050132433 0.17374409589610723
Ni 4.901808175328029 4.061116004732826 12.352364366436596 -0.6381719730008751 -2.1200568476943555 0.5922582411878962
P 8.345550696447562 3.6261626200671855 4.337741620877781 0.3765863947097514 0.1720232565502586 0.06913130758002288
P 4.479935678126864 3.3374487467441334 5.5763305206107265 -1.5662977910229219 0.481781537891867 -3.1169817867679868
P 6.694518824684979 6.372464414995612 6.613408071424001 -0.21305060680521373 -0.758209580512462 -0.5395549972569095
P 2.195119082042375 1.048404452235836 2.7873733763117574 -0.6120169118720621 -1.0642209932171285 0.4456562529242196
P 8.618149360461482 5.539459809805628 12.676099679416128 0.9265492175635461 0.49542741081007585 0.8759365376130013
P 0.8659760274050737 5.021867409779199 6.71235656669983 1.687978076344254 -0.5639120859450353 -1.5631098802132433
P 6.352547052399421 8.110076220124547 13.074168476804818 0.31913355190892134 -0.9688076120121251 -0.441060406023421
P 5.770003513131072 1.3671932655497003 2.331124232846103 -0.23723980245690754 0.4330779020385767 -0.6615705544304735
Ni 8.016789325363753 1.581908539984256 6.613123141202002 0.8594359688548167 -0.6098826391378788 -0.2328236756670829
Ni 0.35652819125680985 1.6966114563011045 4.003067022589379 -0.6961526632807172 -0.7883781336760423 0.6949568432004031
Ni 8.035309789793653 1.4358262953226417 10.173629697257256 -0.4004290056553039 1.1455467859808144 0.21443257475440486
Ni 5.535028589794678 8.508062683780258 1.3071257193010568 -1.8131874578647675 0.2803502604931365 2.5734932587846258
Ni 6.645618137883555 2.116383980762216 4.523128509507086 -0.644463976657174 -0.2685553247407375 -0.2058386624378068
Ni 2.849579749421636 6.173929106738827 10.597112790291211 -0.4916129221599921 0.9588715838453358 0.401143001003193
Ni 4.141923325809338 4.585026824941882 0.9560223034396982 -0.5577136704438073 1.3154108300962248 -0.6212379162496978
Ni 5.033699414777122 3.5631634378655774 2.769826115107644 0.248785598312978 -0.8697021266675151 1.2728832411466595
Ni 9.086415528549733 9.037320571142402 1.86285251416911 2.2719864188185324 0.35573911894709703 -1.1085092736115425
Ni 0.9254866645834474 8.643127009792515 11.240466729601273 -0.6983650975510037 0.5352134324587622 0.1102429900186682
Ni 3.448423517623794 7.327609725414354 8.228712653661972 -0.03119493754556563 0.21677870638907829 0.5155892304699313
Ni 1.811416133411524 6.782606667992425 5.392596782327888 0.36479351583988145 -2.7445862902111315 -0.032472004485776335
Ni 7.565147170552488 0.7448242520702015 0.27632865964735304 -0.7237794238590503 0.27098578855910105 -0.4299241869009434
Ni 0.5793112464252895 6.585264736314788 1.3996577339931808 0.433774156774653 1.0374126147750327 0.04564428020167623
Ni 6.232265794398642 5.710547456741977 13.450248616899088 -0.034421414902663296 0.2685352701360795 0.7361274039014419
Ni 4.297478575254277 6.370799238373544 6.335653835568532 1.4412588736420018 -0.11838284551698322 -1.2474527168886969
Ni 5.034828034487636 5.56084807841798 10.81071517168335 0.5198336075685822 -0.4398134209901974 -0.37911995976488255
Ni 8.248776181761658 3.9593182072370112 6.809002492746589 -1.2431111520905496 0.21598269285034416 -0.2910414216583955
Ni 5.849552700759798 0.9435445799516616 9.022222969768977 1.1334124646111254 -0.5620002136343031 -0.3845781546659764
Ni 0.4319375647834484 0.48696610155408654 8.784330286951468 1.104139426678621 0.3133557688848797 -0.37140047963343775
Ni 3.3691426084508453 4.938571574750817 4.360637799431229 0.48446654092319785 0.01412486943715632 -0.10192469996095994
Ni 0.7943253275536942 5.486849479529483 3.731134429224288 0.28384258991711114 0.09641893965138233 -0.5687776415674528
Ni 0.9300844022566045 1.9108549306927405 1.2762154157048406 -1.6149746874033346 -0.42229726648330496 -0.24905967790997108
Ni 1.4928030887411003 8.2522175467806 6.892719247421104 -1.492119922157927 1.608806353809094 3.4139506296544107
P 7.679073004445705 8.468523989987354 9.723717475936697 -0.0639605620123608 1.5031435269619402 0.2516510927862311
P 1.0975271625868697 1.1416820960153975 6.457010057588669 -0.43901509345861806 -0.42060188105875307 -0.3979026396890244
P 7.1478076541558435 5.07541208915995 1.8738056759498303 0.2217843871337858 -2.857515825923027 -0.1516539488652872
P 2.189892277645326 4.943539351673323 1.7949096075962039 0.9646372826845193 1.9475291407038526 1.6136670243355047
P 6.5069736821338475 2.4907619403094814 11.909060121011281 -0.02266453147705129 -1.2712976418270943 0.8728779532923354
P 3.855956993912699 7.081524373616267 3.759621900835394 0.062463665751860166 0.36000457909167033 1.254641521327652
P 3.8419140043999174 0.4599652626272387 8.881275019692074 -1.061970249509739 -0.4912966764711539 0.1082462713036136
P 6.5878180071352945 0.09967007181205957 5.675198532349824 0.18206187173318322 0.14868741003779554 -0.5506647340168259
Ni 8.936068581539377 6.773966251520134 10.312452696944774 1.8418493445758344 0.21444697293210807 0.19186265987368892
Ni 4.45891744876386 1.54883628207372 6.70985140098174 0.6263520975478116 -1.8637129774181451 -0.27960232658351847
Ni 4.516236528487967 1.4334487931455766 10.983929619205332 -0.5307713375270084 0.8043747662146147 0.4624761526950358
Ni 9.1290718030184 6.252950988437232 7.948034182638526 -0.19592217465504322 2.318853515683716 -0.47802438484228
Ni 8.524103885239521 6.072085054336844 5.308839323335943 -0.43702865915620864 0.13749822619019544 1.090918814223289
Ni 3.236844325827468 6.965970367025916 1.5720053645735625 0.05313416082081817 -0.5864945992312416 -0.5481823339146044
Ni 3.7381364969200876 2.742897433834419 8.605645734225991 -0.5667644677921658 0.05219236573283914 0.8692614395856707
Ni 8.946818221732954 8.77932920649652 5.294392991041372 0.03614508246198936 0.11277269841905739 -1.0106129780836852
Ni 7.899431377432828 2.3898614879933375 2.2625319073905894 -0.4252152114610483 -0.027518774245559062 0.6220665827985803
Ni 6.308715903314074 0.04506430488380228 11.38656100053849 0.603356922204219 0.3972866033715803 -0.4524125978114466
Ni 3.338780888041788 8.757339624103977 11.908518013510985 0.30585123297771843 -0.9034846224345987 0.04027401702869838
Ni 5.591209798827037 3.8541067976659553 7.129285339529697 1.1203216928654383 2.1381581852807563 1.9574584840024223
Ni 2.238274909497662 2.9440877737052817 5.557944195408716 -0.6592478198345678 -0.5639305978877965 0.16436908243911047
Ni 8.317510972328169 3.3746191893412054 13.558160387892265 -0.4188406753932722 0.3484839800465805 -0.9813507387844584
Ni 1.2395482264868825 3.0494564499573107 7.672500182279149 -1.1819739184595968 -1.4353905877866826 1.2506059178056979
Ni 2.0254098313098496 8.15765401660955 3.567533601400385 -1.4021048291503593 1.3840983652706098 -1.8549383165493085
Ni 7.300208319000087 4.450610067615984 11.453826735285089 -0.3285725858346341 -0.8816050487526881 0.47414047640684154
Ni 3.1989708086566337 8.634949142381911 5.512869714445556 2.1677582675353766 0.8390646042873162 -0.06625964245918266
Ni 1.7011721900493266 6.9073746518915575 12.651132206164451 -0.2835047469617182 -0.6266614012581142 0.5168233599873486
Ni 6.03341595277991 3.068235941861755 0.697225178328361 0.45175928049816383 -0.36711933575958067 -0.12468487647561108
Ni 5.023948880556786 9.116564476390415 3.9266215391645645 -0.13505722084887062 -0.33229580032249223 0.10955547703334034
Ni 7.298034338410163 9.121245472894675 3.167745046600348 -0.3167501392784093 1.5641473203388223 0.45210869341778265
Ni 8.509774115308495 7.66245824214995 13.034510445354002 0.40924274729219196 0.6844196911145052 0.41713783376955255
Ni 5.820421360854825 8.26060818675958 7.391022426477109 -1.4801447520739217 0.4126034362343088 -0.2563868076990036
P 4.430951732494336 5.1873767150316175 8.808390238944117 -1.0024458688918607 -0.02590103613647797 -0.5566350926676479
P 0.7782693245244562 2.6693428820451413 9.865424931572887 -0.836106807210573 1.4000410046427954 -0.45660169619212976
P 9.043333708944317 7.602178848431055 3.385843404872073 -0.30382648923820577 -1.9381374150763073 1.0106993671499045
P 2.9977989707482386 1.9746774502241495 12.74247176937555 -0.5946367687224017 0.24846960973445592 -1.2467513199462978
P 0.4250622355305504 0.35622753436671406 13.282369210254592 0.5050019418723883 -0.5947743227415305 -0.6207627763854922
P 1.6778319643966604 7.748621881360784 9.349777087801787 -1.1834957544207616 -0.10390470650546621 -0.2881497019328973
P 3.8076853738351675 6.332564932934595 12.666893102892335 0.18603371189673767 -0.06437965182765042 0.18397837202960574
P 6.927310516450216 2.5892016316174566 8.212126569408042 1.274900014466372 0.7246795670758165 0.7009012337092961
