# total energy = -381172.6893261908 ev
CRYSTAL
PRIMVEC
9.25760277099985 0.00000000000000 0.00000000000000
0.00000000000000 9.25760277099985 0.00000000000000
0.00000000000000 0.00000000000000 13.54943742818312
PRIMCOORD
 96 1
Ni 1.6710528560934303 3.50899251836946 2.022036352116112 0.07678111081579679 -2.6646535211402305 0.2840436501843237
Ni 8.946751040361677 4.3277626852972695 0.9416315171009806 0.23957050747261321 0.11745082062101708 -0.37879548654592826
Ni 3.612436972370922 4.312626504673286 3.2904131095151796 0.7630975047323826 0.8229628136294472 -2.5393505514646457
Ni 7.183279535235081 5.543174845396072 13.304098247016785 -0.47064814698286683 -0.46032696756251684 0.08506263409829867
Ni 4.8249607603873494 3.2110365713462747 7.332982379048117 -0.37590119571726877 -0.3254324975437557 0.3463332522521648
Ni 8.632853501268462 3.979852713413525 12.075122773014497 -0.772537824209676 0.13499782836584492 0.29206703470943246
Ni 1.441306926707866 5.590157179748802 1.8683592194089635 -0.4258749565322343 2.6629640492529494 -0.5859371840658747
Ni 2.9199682808272143 8.923644063702678 9.934704824733744 0.6457929798812426 1.563614587763804 0.593215462894843
Ni 1.2829000847158287 3.5130010603940374 10.587340828588882 0.0049789412718301345 -0.17261126784324465 -0.2964767337413539
Ni 4.859306466879691 9.04565926897736 3.5415385468720144 -0.8999118174816759 0.7956605262700684 0.37565436981378525
Ni 5.588287143977522 1.1181610423893542 5.5834111645679485 -1.3745132926853358 0.592499924885057 0.4857793461973505
Ni 3.756059422646445 4.117642873907329 10.62939811823705 -0.4704298603244737 -0.7302933137181681 -0.3120666177598109
Ni 7.233613121811594 0.10576440927019048 12.740685167698546 -1.785754044244163 -0.6994377617898921 -0.5010208457374533
Ni 9.173238293551742 7.506656859624297 8.571820903103486 0.3065976242254397 0.3014837000376421 0.9725904760933249
Ni 5.027304185401666 4.951651055090232 8.948116536778826 -0.39334073134995484 0.391203630402294 -0.1365327769531326
Ni 7.082325376394385 8.208577563655519 3.815196063752221 0.5018032324294326 -1.3997872367607764 0.8199494807244202
Ni 2.2304064765715372 5.356856330877239 12.050706771315602 -0.5772771943980315 -1.0542096317277136 -0.46743889601694977
Ni 2.052521638229126 1.1905369812996311 11.979749097158594 0.16701937557776397 -0.4743916731856991 -0.7705030531678343
Ni 5.54722967543479 0.27154770919567733 10.202170856842502 -0.4506567914626045 -1.284407439736175 0.7300297756441363
Ni 7.8538632536931035 6.225784189927827 2.4511475356861845 -0.18094935539529483 -0.4906263898770067 -0.9436696792939167
Ni 2.1919503944235084 6.619519295810788 9.094816214234418 0.0012567552252365452 -0.5652482882579555 0.7575781175760502
Ni 8.952361147675521 1.3696438232153547 11.69587488979727 1.2037215945493336 1.2973701705444303 -0.4650927643822765
Ni 0.09909523219280963 0.16000285271960596 3.999265906544102 0.3828591150923406 -1.1470575661983857 0.6469864859687114
Ni 3.4030299963987476 4.704926682117887 5.602095784355952 -0.22842734637160017 0.3911141560122813 2.01385486051428
P 0.829899657047781 0.20137045095708003 9.459025121657358 -0.6952221810466479 0.5901617636701837 -0.6993665422323245
Ni 8.60394200763623 1.2496282601515494 7.986824648551758 0.4708052413860214 0.15875199336264917 0.9595061321055411
P 7.057348363964104 2.2938858591639866 12.212676864636185 0.15623951135344058 0.31248390780288765 -0.7034314563303176
Ni 6.29383682831737 4.473866173130729 11.045393130120237 0.8548133824811407 -0.7510608852828227 0.15711522909017459
P 5.407625024786673 2.42600110912415 3.1203814956518663 -0.03404474828953492 0.1525324948154986 0.5695302034627611
P 5.289618361536571 6.622296576659225 10.43480145526931 1.2163341411070212 -0.24085785882546906 0.21784931374543773
P 8.997066111732535 4.876201592041017 8.448006945599301 0.5257731129814688 -0.3526067439657024 -0.3746210434532645
Ni 0.9776584042669098 8.054595855815327 11.044715473593218 0.027983372586803418 -0.5943611464635119 0.7638251269270264
Ni 7.772822198535702 6.900219071162349 6.858319160762258 0.30435202272437256 -0.6683215000010619 -1.3409254294275614
Ni 3.8942754328703426 2.6907037467887127 4.714933225014808 -1.83410723873657 -3.475369399081524 0.048474036340987486
Ni 0.9931834042096743 3.120580534112671 7.334378425554598 -0.24218686204953774 0.23779541785006145 0.11879242225057604
Ni 3.5166485559083185 7.250184230873937 11.416092542885977 -0.3034449375290709 0.27643935547450454 0.30549462096924807
Ni 2.318316673027407 0.9915262933034401 3.3195578947386806 1.384048742979597 -1.0349523261599982 0.363217172491697
Ni 5.42151142902886 5.920255523791236 6.825312103638862 -0.16532476148416045 -0.9953583659174601 -0.4490858474310588
Ni 5.967089736498718 2.442877719079821 9.537164844088425 -1.3363264972029696 1.0647035892805017 0.1901230514747629
Ni 6.052361516148572 8.086960435302448 1.8237403510582524 0.11016405715161673 -0.3319520438298283 -1.3731284965226673
Ni 4.471449938792589 0.2806655222210971 12.342778585981232 -0.5789769506979576 0.27985917978933095 0.3250164930522596
Ni 2.119398561059497 8.672735254252022 7.770914206592826 -0.8585196276881343 0.22708214519761538 -0.3699449781338338
Ni 1.0644854611918888 8.061344648277029 2.2052119104747963 0.28347697904757635 -0.3163498185161971 -0.958032375773492
Ni 6.966188748915563 4.319838177276395 7.441418532494503 1.2223294394585078 -0.4295606329139376 0.26652261058142485
Ni 1.4456394848314282 1.102145389496699 1.299542477319948 -0.5610309077424983 0.22155221651832166 -1.3985693051932753
Ni 3.3106854081882062 0.15612576865518743 5.560174581469356 0.869834024259689 0.9524060307256501 -0.07421257875767219
Ni 5.891982804754144 1.2264194498614416 1.4571337245028275 0.5188699581037322 0.18949930184783492 -0.6192113727379722
Ni 8.086728995231747 3.0776252569901734 9.878407490415354 1.4212922007120876 0.5194649113752539 -0.194688045137626
Ni 6.639811961210036 8.18434115945149 8.454564105682463 0.8220495577865583 0.7704254058523634 -0.2567830146961578
Ni 6.696977658673704 5.77921594470476 4.791243645127038 0.9885346581274072 -0.1366497621469711 -0.45852256736392644
Ni 2.8452131379901093 2.924143459702698 8.852823402067527 0.5853489156625725 -0.9023265975707557 -0.07200194425959858
Ni 7.8976980030842725 0.2439156162742915 10.119032028884249 0.1190796144736917 -0.9122364004852999 -0.54804580833674
Ni 0.4622376637699502 6.414694833238535 13.079678216538241 -0.4090321739432827 0.025867097574748997 0.4855070663725703
Ni 7.21171889112308 1.1532658723136022 3.877957056365208 -1.487319158335174 1.387964018873603 -0.5139514377561922
Ni 4.6231450187342364 5.272991706857259 12.32746836242408 -0.1271395086636907 0.605918255173492 1.915035281841205
Ni 2.074017791996031 7.8444482716169 4.2583852839430225 0.4043630506023875 -0.7292499600553182 0.7317562714169398
P 3.111332188887374 6.662826361840753 2.64088025412803 0.10865790491973544 0.6097579406345564 0.1505334621075988
Ni 4.4865305737996035 7.556323898797184 8.544180478339555 -0.5093861869830131 -1.0489111023329356 1.5067764957288372
P 0.19100008426901502 8.348200729509292 5.9500594503360995 -0.04679973396235811 -1.784626615507939 0.6877207304632801
Ni 3.599541131631345 2.2405620668739896 1.3301629244342525 0.42885949308185495 0.4920870335829331 1.1499127762589938
P 2.266187111502238 8.614264234789589 13.092414826509176 1.424375724733418 -0.7573112370679087 0.315921729839843
P 3.9950259244488207 1.884181388402511 10.714257934561054 -0.4622324121153459 -0.688796480025962 -0.8518347594687908
P 3.3194986460805804 5.532195328441916 7.575233478333911 -0.052729983403864034 -0.9034367999157988 1.3901211744259219
Ni 1.3862056746748694 6.38297828594938 6.555475199445823 -1.0288696103010282 0.009907746032015195 -0.01339724724251241
Ni 8.391109718617649 1.8073340273262501 0.4161681290560717 0.14046939300337744 2.170907097577003 0.4027720519661837
Ni 3.8494408623737364 9.218035833637037 1.1234462078439305 -0.4129682757728952 -1.3433934313520801 -0.04111425354180661
Ni 7.827451312824465 2.5990627363931087 5.966941614853468 0.5993256895576388 -0.6548903141968204 -0.3559417218762063
Ni 5.735390452916419 3.423211570564059 13.41077267864498 0.5815706795670629 0.27490517821816524 0.7125007656214374
Ni 9.010943258371892 4.640873328150095 5.9343687393027125 -0.2970835140874174 0.7252994600480026 0.18422519793308917
Ni 1.1556080458291176 0.9412852827552087 6.204531511115301 -0.5985908682741433 1.0063228353487637 -0.15550366162868057
Ni 7.2563127639461555 5.808257044776586 9.350791709712906 -0.046459577014119985 1.054074648811746 -0.10590399632368212
Ni 0.20584279888334694 8.92808771306018 13.39025875653814 0.8307928511968272 -0.5414720117739643 -1.0374707217064778
Ni 4.353276638691581 0.5785057492089306 8.178318163051513 0.05604079294465188 1.3105786988149042 -1.409516034012766
Ni 1.305164619517468 3.2253673405242114 12.993233498610063 0.2859094997484689 -0.16344142841851853 1.1849116609316819
Ni 5.763552080719573 7.884866965564492 5.777208896411623 -0.5323970460558894 1.1204978134319865 -0.18089819044238523
Ni 8.946751040361677 6.752625109273561 4.423322438970018 0.9468347072854597 0.2666637641449795 0.7578550253865206
Ni 7.946494827591317 7.242009767576703 11.38735416642663 -1.4441472509333901 0.6199657344054935 0.6563010785014181
Ni 1.5899655129218884 5.021249713152072 4.26922408533419 -1.5713458949697905 0.3675317407066509 -0.5782611555778556
Ni 8.1948115082501 -0.07646409631917664 1.6692504008227944 -0.7097224315453519 -0.23838471469462819 2.0788124963325876
Ni 7.091694070456447 3.5101774915314596 1.9464711690315466 -0.6690750903376348 0.07149697959872203 1.3387837004942107
Ni 1.2120886806835047 2.5568202946883765 4.439825041771433 -0.08300600867958607 1.608932594974313 1.3846503811193378
Ni 0.14168946280501019 5.723512948487935 10.561312152477328 0.895003067326149 -0.7687282206555988 -0.8547938420971151
Ni 7.539928684188576 0.23522735602009673 6.154452508616563 1.4560625143137376 -1.6614782302815125 0.037662804658096426
Ni 5.34623786043338 5.893704718880175 1.7728892644836474 -0.5369170454134301 -1.1668455474585904 -0.10931610732902464
Ni 3.3436795046676417 6.71314143321161 0.3243197483571179 -1.6903470907970632 -0.38830908246331836 1.2465800844757564
Ni 3.51659301029135 7.31072895336987 6.523255038562818 0.3481224829421037 0.7436391388974548 -2.315866150920618
Ni 5.793120864152603 3.564602938558003 5.304320360587916 1.647598901196259 1.558173876364207 -0.9753158454442882
Ni 3.6502820527322952 2.801072887705612 12.61910599551707 -0.2013978530576338 0.6150387294175215 0.3643001211432306
P 6.332653956975696 1.5695524986858738 7.656407842972037 1.2553400900565737 -0.6383282960730814 -0.8471841480706571
Ni 5.348774443608287 7.354739597214774 13.143008551725156 2.0402904289979893 1.2404222924044768 -0.34388350516009164
P 3.7986536532586457 4.392797345164844 0.915478789111529 0.010133488889576096 0.36792743348317275 -0.6748744706282314
Ni 4.42346778333442 6.3645278835129275 4.325536231817106 0.31671003006909326 1.1127562218133547 -0.3165598776444742
P 7.918259138965537 7.413553147981849 0.3810262687205113 -0.9242704488316985 0.2691837023533557 0.05170822700756901
P 3.1041853195040625 2.07441586891764 6.729829188069587 -1.357179686502895 -0.5968754282449333 -0.0476548828738018
P 8.588472553310433 4.009745512945539 3.9189173200782443 -0.07443549340175568 0.20426334753088693 -0.5201531956915301
Ni 8.964701532245412 2.043578793897158 2.8293122793725227 0.3369914060259486 1.8203634067879166 -1.8861095999457902
