# total energy = -381174.39134491724 ev
CRYSTAL
PRIMVEC
9.15829806139543 0.00000000000000 0.00000000000000
0.00000000000000 9.15829806139543 0.00000000000000
0.00000000000000 0.00000000000000 13.40409494780963
PRIMCOORD
 96 1
Ni 3.1267253490388844 7.62703054307175 5.036762571307151 -1.4137524406916169 -0.057868590182010016 -0.42904332695788694
Ni 5.75540413828751 9.089702310643784 0.711175722481425 0.20427414616416434 -0.1555280871087128 -0.3003413589030828
Ni 1.456032001549306 3.565975635910651 3.9336190226741454 1.1400384545680755 -0.2700373086029027 1.652323046144806
Ni 6.890465271149213 6.550903057597974 7.297711885791435 0.5049780306129884 -0.3171579162397893 -0.13065266402327175
Ni 5.990900612092201 5.10602586296685 9.599758146552112 0.24896557553426799 -1.7795815968848643 -0.01794347185229813
Ni 6.314838769319616 7.058172023436352 2.702520314059719 -1.1687890443382065 0.2939645088424615 -0.6108396037345093
Ni 0.5813541013752711 6.274835323819931 0.1978860915625771 1.0790112641524257 0.008878019215920192 1.7059791409073652
Ni 3.06515411183779 5.77709098786243 1.0975395861098243 -0.43436808160491 0.27025790925414106 -1.5546185549127807
Ni 4.783195859792883 6.542321732407222 11.048056881301985 0.785496698363189 1.7967930756671444 -0.04060800332934942
Ni 1.0583329125328667 9.058097024375602 5.9147850818970475 -0.322885819862502 0.523078596868441 -1.5651060847076659
Ni 3.649948069927732 2.4754238311461245 7.122976139818167 -0.6586693216232785 -0.3761544493786554 -1.1617033411360187
Ni 9.216453154443151 5.980625001778409 8.48913501597323 -0.9775015402416971 0.21939840340011244 -0.8711743403376675
Ni 5.693494044061807 1.8457725296364356 5.386288097211664 0.2613654918605176 -0.29521612186137547 0.7040881160777099
Ni 3.766853743417538 1.0142723410358467 1.4734849699762176 -1.473115356030966 -0.8507443546180896 1.450730817688179
Ni 3.74367409127475 4.999176000639738 12.170958541959033 1.1199558248855872 -1.23265910351929 1.7030910207262926
Ni 5.711911381264157 8.938764401925765 10.408064945562971 0.3781023171336456 -0.3589645678629302 -0.5445961592252427
Ni 8.251370031763257 9.275341010341267 11.005874676717049 -0.22613160835888796 -0.12210940243895098 0.5216583194821467
Ni 7.310712089749037 7.209164881942145 9.648817317077002 0.4467775110128564 -0.03528402001327472 0.5101068671991215
Ni 4.9626710249616846 3.0216338799205507 8.808581028050096 1.2240042560577693 -0.00022779974008993028 1.6300423803697348
Ni 0.7487934313619092 8.763135721901165 1.2182120675515584 -0.4094800601139787 -0.6240928691999896 1.0208943054050355
Ni 4.070808494491035 7.65821454763366 2.788923360356016 -1.0033259575039688 1.0667920963784143 -0.5902049582032933
Ni 1.086174138338508 8.495383722672964 12.465567249961918 -0.44061097719082826 1.1643081257487173 -1.0376748672974838
Ni 7.165049360657351 6.539620034508319 4.801520698185814 0.7857355538468727 -1.2326279931710384 0.8026773239075337
Ni 4.394700860228638 8.821611454390974 12.21295300143574 -1.1337788468116088 -0.11175788400129787 0.5021166499047933
P 8.195073974188494 2.525785311641263 2.4245330010287596 -0.16164037065403775 1.0294445089678916 -0.7937890202789684
Ni 8.700300639581261 6.7883685654645785 11.63456618860028 -0.7886007912098096 -0.2846913110706516 0.03224523318695092
P 7.623147424735699 4.330546983002153 8.123189577651962 -1.575935314112686 0.869447844564864 -0.7150644125835556
Ni 5.673098514499583 8.553841138566849 5.036039065768122 0.7391859882221076 -0.09773714424217361 -0.7900827750719748
P 0.27670881463541047 0.9902409671825564 9.51944078925182 -0.005709391679951457 1.465233125069412 0.22464808183482599
P 8.705282753672797 7.250175740217691 6.298651477671106 0.35114918558356945 0.7656112722931718 0.03292888951753684
P 0.17245624561043094 4.529144674316406 12.480043771551056 0.3310765832034105 0.3329262348176395 -0.8700502540355531
Ni 6.398417396524314 9.043617755297076 8.256010541340796 -0.38884695724465934 0.29042641378221595 -1.3049233003013396
Ni 7.671109431164695 7.444954421281632 0.6972486987700307 -0.3945370656509012 0.22141697649203804 -1.3725330290305136
Ni 0.027625089973729134 1.6145255060862895 4.094307771232711 0.5398514454514057 -1.428537055199959 0.09151301770933272
Ni 0.6377976075472277 7.748387149371274 9.96870567494545 2.2944290640927645 0.542287308586408 -0.42547052200496405
Ni 2.439917109945969 3.3297922897587813 11.558980923857149 -0.011377388599006213 -1.440091592806778 1.3721697321538238
Ni 3.3419636677507865 4.6257372429256485 9.61288107170241 0.8965282457214238 0.9974890391072176 1.7843065131643594
Ni 4.833539023692098 6.18578919273169 4.583986394174742 0.7171704031829649 -1.1348052311935939 0.2614989321145883
Ni 8.660132344718255 1.0705867152065338 13.339876070728069 0.5035096735975779 0.14316416622672118 -0.1557322326997189
Ni 3.9345421791087536 0.802680856572565 4.080139884284907 -1.2172805641806907 0.540751588668172 -0.12958257088754455
Ni 8.506987286191302 6.834150896978526 2.766484614518384 1.6263430771412763 -0.36804467578732747 -1.421190899247533
Ni 3.7401389882612697 3.1425417296199183 2.8577259896282072 1.1154574227946017 -0.7130293844313977 0.9665082744549869
Ni 8.15948482830668 8.447907106035975 4.236095624456514 0.5701290133890246 2.072786087632849 0.41892295069443336
Ni 7.6509337007535665 0.5128234735525626 6.164556594735704 -0.18241976929323422 0.21354554416376123 -0.3086707047043845
Ni 1.6959702498657525 0.7934941678864995 8.004710508572218 1.7642405956524199 -0.4955521093133981 -0.4776382051474548
Ni 0.6885006925563634 6.608234002842486 4.603462430621543 1.8553381230908885 0.23834074883057021 0.050751519521254534
Ni 9.038342575670743 4.988360050746166 6.112964238994421 -0.007425860150425922 -0.20729596370962364 0.9601213970920368
Ni 1.808122766713083 7.21210469558807 7.111837817836318 0.004863498739888399 -0.5112782617994033 0.6511514159796785
Ni 2.061010848348338 0.771331086817535 10.795041499325052 -0.36051288618665656 0.19322868698328013 1.331940709430448
Ni 7.70131349784463 4.945398475004631 1.63484410594563 -0.7603037440373293 0.233763670982849 -0.1257068899822222
Ni 7.918108727210138 3.061408367971176 5.269471259212093 0.6103276970950973 -1.9574602837746355 0.11450870727355762
Ni 1.71810585604083 4.30389633593162 7.702221085172702 0.9895304463817732 0.11531911898999495 -0.5546846538094964
Ni 5.901066867379196 2.3302464918464443 1.75013242401528 0.9308625002269194 -0.5581561572978645 -0.9510610866619813
Ni 1.6888450940510193 -0.23442678460268515 3.2777163758850842 0.4486276768477177 -0.3476283169145046 1.2347890053780994
Ni 1.0738104360892922 4.4872729360323955 1.9117452448382506 -1.07480905314562 1.0565171968149676 -0.7956237594948621
Ni 2.6023395243088143 5.30749010154333 5.676231568232514 -0.39619748407245964 -0.04771016159176945 0.18085139636484981
P 6.76903539846599 8.116147762348685 12.179442789191384 -0.7075922725762265 -0.8565388498126797 0.35098052121618906
Ni 7.845254466919388 3.3082336563553336 13.418571493459227 -0.44167181435517483 -1.1559384136277835 -0.14740622933252678
P 2.0960230214585245 1.5818944904463221 13.321793927231143 -0.24029298746093458 -0.6364843008858071 -0.7131792797457008
Ni 2.936379284188736 8.048577839982231 0.5102847933573903 0.09508685110352011 0.2713138613224811 0.48869754828540996
P 5.358410238214174 5.01421392589397 2.6694790066710374 -0.8694884679948123 0.8418786766973436 -0.2394632924707876
P 4.370147463391492 0.9402824517977624 8.627357543800278 0.533729648824384 0.21537385562175168 -0.6746109325541995
P 2.0859122605080547 2.5224333745870315 5.711779501773499 -0.36733273732196736 -0.028174919772319215 -0.21704018758058102
Ni 6.534784453184182 1.3324774037388103 12.248769273107023 -0.08547786725884633 -0.2617794394694847 0.9092428650746147
Ni 5.589080288992689 4.522862081914212 0.5957115650908973 -2.48189410911939 -1.786669614079897 0.19245761314521048
Ni 3.339261969851884 8.517354479484718 9.517764820724704 -0.21720422396227107 -1.503280823870753 0.5608856404138857
Ni 3.8147516417607963 0.10099038329077904 6.446002081077259 -0.0508870166578543 0.8248258349801149 1.6864523837283472
Ni 4.372693470225034 3.8415396633007637 5.074334488697824 -1.177927516304365 -0.43182860301250797 0.31735743384510506
Ni 7.744146857414691 0.30715374455175704 2.041014620577273 -0.04971176540283051 0.5814452097327921 1.226442947406249
Ni 2.3542778656997347 6.746872317397025 11.885598799068356 0.28064825134952953 -0.1348337919841549 -1.1140895959127974
Ni 7.075453731691367 5.499896783435013 12.747455082095057 0.09784873011937341 0.978253073695741 -1.1071735855192546
Ni 5.067231312798199 6.78341392626693 0.5247558199677501 0.5363179783768506 0.7020859980460166 -0.8399884016531662
Ni 0.21185707510419088 2.5733809861517623 11.36778496895609 -0.3540365344336935 -0.9888814999438647 0.11648511427363811
Ni 5.087306301931742 6.92082502889451 8.725435588339018 -1.8825365378825512 1.0938735259762387 -0.7912544267825729
Ni 4.492804548001675 2.165690194058364 13.155461835468158 0.06702583120124586 1.0159305336418567 -1.495524834074418
Ni 2.9597146273968855 5.314139025864019 3.2607341439734396 0.0073839511688969595 0.8250487496241985 1.3290867849214207
Ni 9.201158796845972 3.2733496994166207 8.922931536408399 -0.6280117446384216 -2.0561716190046204 0.06976688428149275
Ni 2.3809010378763795 2.5703312729302894 9.325711649134368 0.07992351309952042 0.1346862106626971 -0.1995975666241014
Ni 1.0626647874690733 4.797327113548839 10.275565438132615 0.6173681488816465 1.0699141869471638 1.5474158665167543
Ni 7.001729433094192 2.071799323348024 10.125480166954894 0.2580361703769685 0.4054251733183147 -1.1931785289261645
Ni 7.8800651574744025 4.40209160668428 10.750901250635758 -0.35720310508713315 -0.1494065475920072 -0.22084156360454227
Ni 6.782754528813638 2.2791157143224656 7.629409868882377 0.9516413846454836 0.5196662287527823 -0.7831055724231932
Ni 8.566104099538478 4.581273706318285 3.669464402885568 -0.3715030666495731 -0.014108928597556346 0.9514601218726131
Ni 6.263314184983255 3.437493873796394 3.714382191071867 0.4411984742631821 0.013628646527028141 -0.4673843886299306
Ni 4.3954152074697035 1.8701977103021084 10.759895615064615 -0.30935616080718337 -0.6498378393745776 0.07117559170356129
Ni 4.284654751912655 4.735948200604955 7.604960876642001 0.473973611811674 1.906691023641568 -2.5530437326810227
Ni 6.530415945056126 4.511276834991799 5.790006019648981 -2.0170669396936747 1.331162179393211 2.1478594717289203
Ni 2.808804193572755 3.4530263471405935 0.9081533108861337 0.9600512059757337 0.3214930532800334 -2.4137596182349976
P 4.79048586497094 7.258793698600293 6.542096438277348 -0.011319795888193407 -0.5733300368248255 0.4842289709910951
Ni 1.4415069409809682 2.032986456583449 2.032154883128465 -1.1929265608163586 -1.2377388320350426 0.20028585094037765
P 2.3238906330605515 6.405918042555505 9.093163231443768 -0.5022675736603608 0.4490503662074331 0.188751625048533
Ni 0.17513871108361265 2.145377089177801 6.708092420505115 0.7637469653909233 0.07844590011272941 0.42745309965263156
P 1.4605195675508733 6.856414719325077 2.4253233621429136 1.2905750019994675 -0.03559923726084836 -0.8291591722481462
P 5.833075663306471 3.336294681312072 11.588966107215784 0.30399926737064414 1.2485127827220948 0.30956750548704104
P 5.598833876322627 0.4486320473044308 2.8144713483518773 0.06820211089753415 -0.892265613790328 0.6365971723145875
Ni 8.855542948341599 8.673796525278128 7.998250245189554 -0.9903681117917202 -0.6889774856885167 -0.07910178852917343
