# total energy = -381169.4806202146 ev
CRYSTAL
PRIMVEC
9.22549428178850 0.00000000000000 0.00000000000000
0.00000000000000 9.22549428178850 0.00000000000000
0.00000000000000 0.00000000000000 13.50244340864760
PRIMCOORD
 96 1
Ni 5.501060873113266 1.1413320485824958 12.756217595474133 -0.689823892849212 0.18892234629844237 -0.6189547766424759
Ni 5.459057196783023 5.237359339130467 6.501710588846479 0.0782479251693104 0.048305114863291004 -0.7565219083973939
Ni 5.652515815857306 0.9193002280300595 5.076851418661221 0.4659060043121911 0.9825105634205143 0.8057803883128897
Ni 0.5943478686004364 2.188600955530209 6.854596822987358 -0.7025935338100545 -0.325009293963408 0.9191660377255977
Ni 0.70371795066288 8.825384776587098 2.9633136989010596 -0.42499563925107453 0.1208127951147145 1.0081637452122443
Ni 5.087408151985336 2.577935273230395 7.800173104372085 -0.09948472306089964 1.9810118458423303 -1.2784435088432562
Ni 0.9959659321898644 3.772000248213873 11.176310152448057 0.5951466184792847 -0.7540299952134756 0.6743324820818323
Ni 1.8110106922926632 7.091573022034711 8.377536837649881 -0.20765463260062303 -1.5376567302474615 -0.5601073674869644
Ni 8.48639398221969 6.462920152240774 8.323325064485065 0.17766014312106176 -0.5921224869409802 1.0042872929759736
Ni 5.469518907514079 7.9316373231451145 4.676678990055529 0.9214126676679293 1.1262383154601894 0.9487344954113338
Ni 0.6113476872636783 4.094652691871668 8.418665937104196 -1.9184311948966317 0.9874414250632284 -1.137322855409125
Ni 6.1317525771854795 6.746474950326953 8.313953807200578 1.2518004523344313 0.3017063575714094 1.887424462102472
Ni 5.465487366429889 4.049290935553678 2.2350190309652236 -0.39949698075933776 2.9016873782339188 1.4897961591207567
Ni 3.492670726595793 0.8195006739326929 4.3283031001619285 -0.4620802028081978 -0.10198434955430179 -0.03294740146029809
Ni 0.7738529272860761 5.861869961906553 10.126670293421084 -0.46877278433702496 1.4646980785015484 1.5090897172430462
Ni 6.630980985034109 4.349479300172567 0.01965860617002336 0.8697576624957989 0.9585867056150651 0.08932218070560101
Ni 7.846033959941001 2.095976991033032 12.487937448584965 0.7164245261558758 -0.19029917204131097 0.01787096674314987
Ni 4.3294230751908085 1.931486424600296 2.327753701396062 0.25911834769755376 0.9852444174119097 1.259511962046076
Ni 6.747978705925862 5.120223235821636 4.347746752310758 0.17918352174412366 -1.3744865532124586 0.9975044657261853
Ni 7.848063568724804 7.080936026908692 3.79603635151078 1.9606037144996233 2.0217247501806597 1.7063138985389645
Ni 4.522180556685232 5.135085507415755 12.111138732773101 -2.900678220243114 -1.81196464120126 0.2088679361824338
Ni 3.229947095027007 1.4968733800323668 6.763225680639455 -0.21686278146245233 0.4167549965088371 0.6159648407762166
Ni 8.255332247678227 8.139063340849749 1.5150688227791578 0.1224161350460924 -1.3755041958436955 -0.7798852657136827
Ni 0.9138009107754015 7.312754251996846 4.590736128654851 0.5536217597626207 -1.3399080439066409 1.058084027081455
P 3.6204345995361717 4.116498662780963 3.4903412892416554 -0.553822305809201 -0.6387512425431128 -0.11275855735167033
Ni 3.238120883129049 7.613348538372494 0.8457887204301735 0.35748592643487465 -0.9017653257506469 1.3679361536884505
P 1.2765777975395292 5.748590115286948 6.3908690404157795 -1.2259755208515273 0.05590760980089726 0.4781732517153184
Ni 6.377326014531132 2.3653429786215354 1.1020720343081742 1.9639093818340887 -1.633624184183722 0.6689123395075254
P 2.197494332201053 5.578250585359071 12.178124125583615 -0.036832338337001086 0.3497803302605008 -1.2618390675173559
P 6.387031234715498 3.3773520456979127 6.204615532523995 0.8804508805435869 -0.8181283683552814 -0.5800393305242011
P 8.1310556116482 0.42616987202731016 7.241144118807603 0.12467716316612722 1.5184583029421397 0.14026756140521648
Ni 1.7556669509561527 3.1015558884625434 4.945917665820321 0.9407638185010314 -0.23565626001987156 -0.3373963547738512
Ni 8.898293859397974 1.3087839987406888 1.535497757737579 -0.8609084396352851 -0.12767121279744462 0.7120153413445867
Ni 4.46294365668161 7.414705191405043 12.452439590956255 0.6286087547924722 0.3169149469910478 -0.6043560528926946
Ni 2.0037866247760308 7.863433242514873 11.879679379419903 0.17658825021312166 0.2359735341499742 -0.23862536995052455
Ni 0.07057964545673834 7.876837885982442 6.768613369411004 0.9427628512089312 0.33837363108545593 -0.6101767733395297
Ni 3.0645985576083907 5.3967020796479215 5.179955544878397 -0.2533642188225959 0.3196835108751204 0.6729991079823894
Ni 5.72793423316452 8.296182737199493 0.8685950653139854 -0.38543921711469104 -1.2973213195843656 0.0466539524131132
Ni 0.3953096704695903 1.979412868381455 9.248120919571994 -1.5330860801576438 -0.9060734662076975 0.20021000339711972
Ni 2.989134012828819 8.32011366985942 6.429067200276393 0.9937064321363338 -1.480690854385379 -1.6503533240129447
Ni 4.487372766043016 3.4295314424305854 13.839194701324512 -1.8901038087068482 -0.6146612914734447 -1.408635688290342
Ni 0.8724273357175837 1.3258511635135752 11.642994705997857 0.43117065771353486 0.024850997605408813 1.3540383126604358
Ni 5.714059089478886 0.3755532740581656 7.407575729277213 0.6728103890103508 -1.1068784228763389 -0.054013478101977944
Ni 2.54706676872765 4.600172886950086 9.222831071576364 -0.03185082596200966 2.3056529578330425 1.9527374243776694
Ni 3.7447204610606706 0.06394282473370357 11.412413619718377 0.06580070054489312 1.0092729191160232 -0.0742233773909496
Ni 3.144971065446977 7.657289568541823 3.8209082846068343 -2.473596387886972 2.550539221091614 -0.44624040756246375
Ni 5.506402434412456 8.14466321599415 10.323657664130842 0.2795359921219573 -0.5697991408534316 -0.29182509390195543
Ni 8.20836525532214 4.698046157801735 6.599562641060843 0.16088832297936162 1.719355562214271 0.7834675837483023
Ni 6.870031997788177 0.612127241546548 10.975839235025736 0.6042077002402885 0.2439979471163475 -0.3462329792288747
Ni 9.06833817350275 3.2912136038144326 0.4892187463466933 -0.05702166880068244 1.9164756138321575 -0.41808142862974446
Ni 6.501335111221476 6.312037190153989 2.437879351455749 -1.4455649572165232 -0.143169822653676 -4.189632141699391
Ni 0.4061034990016319 6.649957827162663 12.929561868951485 0.07646795045075218 -1.3260443985506711 1.0584964320285253
Ni 4.636604364619345 1.6148213268547182 9.833248828997283 1.403527677639815 -0.37515506157986356 0.6354646013720412
Ni 3.404032175710446 2.7436620559223557 11.59518265834815 -0.16404589477173684 -0.10492312046765156 0.406175678331094
Ni 8.587413146686233 5.6378472796470955 1.5994451952185187 1.504162712255074 0.5552071019718696 -0.5613420112250139
Ni 8.7178339620345 8.745528896438934 12.517778233003547 -0.8412243309427963 0.5672650615776682 -0.8516473260483332
P 3.0921551095957485 2.8058049866846053 8.747679359200317 0.6977650020731596 -2.7785719031279568 -1.086513743177058
Ni 4.644326103492266 6.298521840752756 3.6367886335863853 0.721173867915403 -4.973037247640875 -0.8164023868031103
P 1.6430236634551039 1.7175472077985496 0.2848140780815835 -0.6505973432484216 1.214381902476657 -4.279409921885172
Ni 4.009925750642378 5.939908419643767 8.184451851101707 -0.8801068669406068 -0.6929233577101421 -0.2749393738902104
P 7.188366910033157 0.4640017797573922 0.4052187740817833 1.2578374025571304 0.17766399977580372 -0.6681309812568107
P 0.2876675235217206 1.9846990767138137 3.7495066475926557 0.5754416838511897 -1.2975442342284493 -1.2554629887876831
P 4.5567300334822365 8.967466616947759 2.5303852296236866 -0.6140288000957683 0.04442583441354284 1.4803946633011988
Ni 6.9380884705068695 1.9628438803100476 8.91080270735233 1.9390596697802607 -0.6379860822423141 0.8890121398500368
Ni 6.908945133470358 0.3171706548426342 2.8951133084686065 -1.050841229476113 -0.2051516636731112 0.13336774896158965
Ni 6.119990071733896 5.747012555732264 10.82661040409775 1.518818514495036 1.6301038297352892 -1.2435351270018455
Ni 6.954491399677784 4.409361984789219 8.611224147918028 -0.2974722648854038 -0.13483919130079358 0.6708841185219157
Ni 3.890224959870379 8.767614730204496 8.675009216696264 -0.1575453746490577 -0.4575105811596443 0.17322164773373394
Ni 2.3434970077122412 1.1204086271203844 9.865195793803785 0.7184600685286658 -0.31323492703629924 0.2990951452008075
Ni 7.192241617711325 7.047973335160841 6.1582352816163155 -0.3864830849981731 0.11290151068743781 -0.31089856559363876
Ni 1.9756304156480047 1.3324289410719903 2.135276674933582 1.22956426664405 0.42424847667240484 4.286845038006978
Ni 8.446936542363673 3.1254960466169432 5.131792928438759 -1.8167468930812518 -2.589198328224709 -0.30694960824821976
Ni 6.058539053057033 3.0959560133181427 11.39388882681894 0.7714438198145488 0.00017972011097388405 0.3007069697726176
Ni 3.1208556228976123 5.414248970133343 1.7166200456041307 0.9719482145236358 -0.3423958648709716 0.326334954753367
Ni 8.07894079337683 3.7142578783146867 2.700435079025147 0.2619411618583295 -0.6959716576181627 -0.5211942353615348
Ni 1.6545647570393636 0.045624682910437156 7.935264787571439 -1.6396395371398667 1.978114469689877 0.7034707942086852
Ni 0.17089582724452757 4.940612083949571 4.336080192001681 0.8723650182116588 2.2540329196639055 -0.23157771907512376
Ni 6.394633042160286 2.56253792295691 3.643148689475265 -0.15977040732483452 -0.2550778590795929 1.4070254063804286
Ni 4.751895369033808 4.199620367972154 10.035340665798305 -1.4320029022613725 -0.4806487098390045 -2.920401409703654
Ni 3.4659444691109003 6.864967201323142 10.161723482216251 -0.22655455482891948 -0.5789211577593578 1.658719693699769
Ni 1.3775139325558254 3.8353793952353477 2.3803454777316255 0.04593969995490798 0.06630360832324064 0.8936601801450094
Ni 2.0823232592147227 3.9665013481634728 13.62963667184744 0.26607215330756756 -0.5725813315842591 -1.0371223372281235
Ni 7.573678912143624 8.68023084656732 8.999243832655978 -1.0302862881428967 -0.3947083011214428 0.020966060728705826
Ni 3.7137320251297923 0.6130488684442839 0.595177240553454 -0.9492422882856877 0.18523846968895197 -1.5986967761789175
Ni 8.145899432253376 0.22886514430772095 5.144835932523033 0.17146198473014987 -0.06903849075590046 -1.0334950248881813
Ni 0.33078010428747834 8.740150433161858 10.038472721171491 0.9360939238291878 -0.9001082497631983 0.6165423105462414
Ni 8.158639840118973 5.017497354877806 11.865771946503619 1.1913250206571935 -2.246542524824131 -0.7277985723207723
Ni 1.4660510030019815 0.5061272326146641 5.5806141570427545 -1.538659717590679 -0.04658478973807461 -2.2452040085183658
P 8.278497464296994 3.412796395458685 10.220917944945304 -1.0990620121557135 -0.012213768457372513 -0.2711133152759008
Ni 4.305870387804225 3.1178204352163807 5.4288603082778275 0.331815518251964 0.25893374249057344 -1.0849284009678088
P 4.804425334556411 7.362931716429131 6.867734849664692 0.7645568628867284 1.5107357374869015 -1.7523595279441175
Ni 7.285465239349171 6.785157448647338 12.972162434774056 -1.7052880283776113 0.8437542964535016 0.9113146600019789
P 7.9690098012504995 6.870594752950958 10.79198989099331 0.8678416764200085 1.6455240209451014 -0.9514259262005679
P 5.163140236104592 5.946569226652428 0.4008698759877625 0.4756345444538647 0.5783148916339266 2.4337509737552603
P 1.341414572687553 6.559483402877423 2.3793601949220347 -0.5859459258166232 0.6100039952070915 0.2676096729980165
Ni 1.300250416354246 8.710250605578656 0.6078881268367419 -0.4813994719621 0.3098536692688922 -0.3315221553812613
