# total energy = -340861.0692958788 ev
CRYSTAL
PRIMVEC
9.30110484331708 0.00000000000000 0.00000000000000
0.00000000000000 9.30110484331708 0.00000000000000
0.00000000000000 0.00000000000000 13.61310710828262
PRIMCOORD
 96 1
Ni 5.983233361568761 2.828354386494137 7.961503034613314 0.7522754744162141 0.9198656348957835 0.02438125705784188
Ni 6.765660907873317 2.573773844306576 5.301842787670374 3.8019864038516844 2.7704464458073446 4.265301764618563
Ni 0.5137697818525226 1.1201599662882074 3.115985474829419 1.6647111353965138 -1.0663074434325117 0.41516939718927204
Ni 3.775197564096399 7.334023524929883 12.676906507856126 1.7203634346534955 0.5889939686143276 0.6289748798826393
Ni 1.6014828437009467 0.9105790997119737 9.197328751092668 0.9235749654265706 -1.1263100492383893 -0.26457628548833145
Ni 1.4168094059334546 4.937844977562743 8.656030489070895 2.7986825578349026 0.11590353073855524 -1.623412790868359
Ni 7.526388976448759 8.72162746148082 7.244038125364578 -1.8358892703376577 -0.11002393202932664 -1.1460509793107423
Ni 8.483286648446724 0.5941220270740468 1.2196808585958572 -0.6806216575246536 1.5116677623828676 2.585084048946019
Ni 0.7618469914947785 3.1858888588075285 10.52824059306388 0.3619305924697896 -0.3852818656012203 -1.0918837492397195
Ni 4.944811505132013 1.0456209116284905 6.8417430158357595 -0.05260297090769651 0.21398905945908306 -0.6656020441873698
Ni 5.368774468633288 8.093337825560694 7.6717754772338225 -2.4526812350008598 1.064775837279334 -0.837466663672577
Ni 3.7107967137764737 8.278327500894747 3.529797212444044 1.258464494618168 -0.7009356864916574 0.7638284693611361
Ni 6.386696689872879 6.150216097818562 7.786411595112661 -0.8161439909354008 -1.0979921761303026 2.107501122516532
Ni 0.9251753236298043 4.319963278024478 12.941014171791624 -0.7387841247979986 -1.325274353153866 -0.8158074335315885
Ni 1.4016579060531604 5.698042883158949 5.094623471627969 -1.3223458666531613 -0.5259991129493458 -0.9295769486462764
Ni 3.522040090958368 8.321224196688437 10.740332757962815 0.6780297284277613 1.3609059863145465 -2.3151464991457744
Ni 4.659258283631143 3.0732338762721536 12.799914550254458 -1.560211475619526 -1.2022936038535552 -0.3473835478935501
Ni 2.133329322924465 7.259131028284009 6.707259270213177 0.81439872610952 0.3963070130671304 0.011012291950103614
Ni 7.47644204314171 3.2020541791218022 12.691268343930505 -0.794004221613568 0.3335147603312579 1.613953702337988
Ni 2.443976925442544 2.372367718825978 11.87476806004984 -0.77563703196029 -1.1588882402847267 1.4427508848064958
Ni 6.768841885748738 4.343420664579482 3.3188481533371834 0.7267374780461098 0.8581355048758383 1.3276618795494362
Ni 0.19488791116745466 5.927891787420356 10.254508145779011 0.40731107748711787 1.184867695067624 1.4961979488820427
Ni 8.046264933667404 7.855992230750779 11.488278318075709 2.2445656036034185 0.8128961734220645 0.6466090480246347
Ni 5.965468251211878 3.6963334956586973 1.29853376570768 0.8190999882399312 2.823822033215008 -0.5624478426946831
P 9.221413032117857 1.1173138281891466 10.391143236964709 -1.4626411959725196 -0.16260273456730706 1.647556477994098
P 1.767674986034341 8.462387065738913 3.028970848168819 -1.0683141894498958 0.9420306010285969 -0.8042009596409118
P 5.470482050702667 1.8679781012639878 4.205674091358368 -5.203113442469808 -1.7296885687091632 -3.7956820589002116
P 1.2890866334618758 0.28357859693083515 13.34835978128054 0.9822732505987277 1.9480091656640646 -0.47168558710844577
P 3.643800855189758 0.9244358857903424 8.820871180862483 0.9517910228494704 0.16698697967793175 -1.3097801141730088
P 5.744129857932956 7.903465070154722 9.818222148397194 0.23766352025788742 -0.9658636988924528 0.4413285720831432
P 6.051177932855164 6.887040326803851 5.764742036499389 -0.1651643246468962 -0.4156738476295164 0.8439342736747916
P 8.743829198874472 6.787658020959196 7.769436148561693 0.30714964007416784 -1.6403928703661232 -1.1403683271036684
Ni 4.376607006858727 3.5361870715095822 3.0271738747023527 -0.8349773215918201 0.4921482258381717 0.036896101695400974
Ni 1.1343255490492192 8.577711465380268 5.033582180397524 0.5137102682796636 0.10405588737134984 -1.193727716561415
Ni 9.255092332956744 3.4410925750233154 3.005570198353698 0.9904449877762427 1.7954015946362563 1.1898276101760605
Ni 8.789804560389694 1.1019018973716832 5.3545251759281856 -0.05638300677541902 -0.8934223531025903 0.798962851170424
Ni 3.5698291679288734 6.125577470941398 4.727613963754076 1.6648800568742101 0.03159268720461656 0.013801681769782683
Ni 3.470781701860577 3.3368364902116396 5.272641968840304 -0.2101174923188188 -0.6413334014479923 0.30931913692166085
Ni 8.58155282170351 4.407570385067137 8.68679575374496 -2.007698096884265 -0.5463997880928848 -0.7067188688323377
Ni 3.7929068678238886 1.5311850928751243 1.6804017886575517 -2.0563040308174267 1.0956126201545324 -0.7038929693477685
Ni 7.139165377298106 2.18053243028634 10.648335529407877 0.08669502749539909 -0.3171566306882086 -0.985109177385626
Ni 8.644958453799257 8.085004035571288 9.29884100995917 -0.4079476826298523 1.5844796041382712 1.22430970311333
Ni 7.728678706894751 6.4239104105733436 1.9769637979167496 1.4085279590678839 -0.4339392215976075 -2.357097132545947
Ni 6.640114593948079 9.321660340718111 4.810627255087174 -1.1072154945007835 -0.8521265796775969 1.0594161156293174
Ni 5.843316840574735 0.6736632159483876 9.138792247411494 0.07410973463122077 -0.8841129027762062 0.04987477334325604
Ni 2.479609458310198 0.6570281898367201 6.794138100742253 -0.5562262872650032 0.5505557192427873 1.7985180287780507
Ni 8.452779024378358 1.2208444268187086 12.671025419228558 0.9813453394678197 -1.7195134279483741 -1.7044740171167483
Ni 7.496737054031092 1.7898302179035008 3.2138368188077178 -1.0244115745296745 -0.17399760666781 -1.0044598139980958
Ni 6.118722556630915 7.179857711230755 11.899611311234779 -2.0724965814168885 -0.08745350292797842 1.2378923268937712
Ni 7.108025278096616 5.87827039278477 10.13410069231041 -0.4972786050862016 1.0862417204625938 -0.504867473177053
Ni 1.2188911947899412 8.837556432940604 11.14397559759148 -0.7633754409841176 -0.09608803867452484 2.0159533949145216
Ni 7.621818312711386 5.422432542794993 12.708788835228548 -2.911559128821676 0.6455155578501399 -1.646470958239403
Ni 5.444978421069907 0.2713169503426264 2.546849005845265 2.2290302269719806 -0.2618935964498457 0.9347170980863192
Ni 8.088110604607516 1.2901097550007539 8.604014990034335 -0.5014929002778653 -0.36918136049493194 -1.0745563137048655
Ni 2.566119034974788 1.0958096736629093 4.553706554907052 0.7170811859032683 -0.19629472750311355 -1.0114192760350644
Ni 5.647296054830596 4.146897619170803 10.917398822033503 1.9210166962356208 -1.74761018618459 1.0214810311464408
P 8.293106956579088 4.200760317640284 10.816185128634256 -1.613517386131518 -0.1476337719623006 1.7281613334313592
P 5.299471936031647 5.002562065449231 12.845355098237992 1.0430749552671326 2.7569844067651683 0.8562699124220092
P 5.0288097834739025 4.465051213342287 9.023175793076312 -1.4583381977217917 1.1949045104783356 -2.0674394786089554
P 2.096348129846472 2.945418092751586 3.6183641935122695 -0.7312744466845148 0.6479457645581873 -0.9155893761179328
P 4.260594325454853 8.716056099646384 0.9870574347431095 1.1081246365786142 0.6205308628803442 -0.8629056725709718
P 5.913707602449547 1.1423431014720637 12.171016622073946 -0.01783291441636284 -0.016155526713939918 -0.7410932325471495
P 9.215757960339332 5.986804985849935 -0.00469426764247057 -0.29538067246369776 1.2228588295994167 4.06287855562021
P 8.160808040497253 2.801064944720789 1.3166978934647255 -2.14367885798867 0.10234430399688181 -1.2110371543741403
Ni 0.3513976033011029 8.866510772490852 7.1134068973911155 1.5207021046709939 0.47099987389533077 1.6328536245662848
Ni 0.6764023913411112 2.517753289500552 7.982726295771605 0.8847577354490569 1.3927904937279691 -1.1655697660699604
Ni 1.5848710703515263 6.829522294109106 13.041275432049224 1.2878478328762917 1.6883079488798471 -0.6489520943355147
Ni 1.7438734585980775 7.655451108025779 9.186451108913413 -0.3870232737723593 -0.3106887635756779 -1.092574861769473
Ni 8.787702510682545 7.069611714864194 5.553208868004878 -1.0905586026703928 0.6268174672200043 -0.1181748432712352
Ni 3.256549352724408 3.1662635274708673 7.92706197328321 0.4833414261798193 -0.12847751074882388 0.3797876752558685
Ni 2.3400928848268245 5.174260461882768 2.537306072219002 0.8789347010093767 -2.1616058747807356 0.5448902934268938
Ni 5.55529882627566 6.562859616657885 0.7587962290879421 0.2869991332682219 -0.7432753278001328 0.11004295819272016
Ni 4.447425619558888 6.0666735736167166 10.630488569327886 -0.3475046468524467 1.1776205265869073 -0.48950873133279565
Ni 4.398752937622988 2.021213804473226 10.482854921599248 0.14831254319688003 0.4851887638012031 0.590918182220234
Ni 7.755484491213357 5.091378316128746 6.485256778044474 1.4825711021272272 -1.34724468677737 -1.9838436588641704
Ni 3.5245048837565744 6.353473143174039 8.352648909699832 1.1557561224136483 -1.6704274690550005 -0.16529365113590888
Ni 6.791797012639202 8.50151681404855 0.43171264410303156 -1.239143168581737 0.4464121572536376 -0.37607654495286846
Ni 5.85007874383623 1.7550998922110397 0.5656597159729487 1.8416287439245962 -3.730444944168272 0.5521348908044491
Ni 0.7668909806814475 6.803535007021604 2.2026011618799397 -0.5440935085572114 0.032557622221047154 -0.7473793226661773
Ni 3.272035692381062 6.9134926691363 1.2412677929556948 -1.3963900381537693 -0.7962423669154673 1.8193437072741507
Ni 6.581675751868343 6.909381580770989 3.704576134820095 -1.1098249070991726 1.0289750255306407 1.2952135292127436
Ni 0.9170684805999303 2.5306260186806178 0.9874992372258069 1.9456234390407072 -1.286970572477661 -1.0252250715699052
Ni 3.744680638923136 0.526865737550162 12.698074892495514 0.22706517591675085 -0.023202149148076168 0.5314470234377944
Ni 3.0452933571558836 4.172670980845631 10.689910538195432 -0.23128152799094362 0.07252130709817833 -2.020298816367411
Ni 0.3633504532066685 3.2089835022714763 5.504174373088412 0.8291763986393268 1.3131510875277708 -0.6354674295855185
Ni 3.0762846386789904 5.0845699073427575 12.782980028565046 1.293752885506817 -0.39338675409654184 0.8677753419584474
Ni 9.097066560724576 8.241188189033474 13.598895272947571 -0.5825507840921451 -2.6093213242268285 -0.5381439758419958
Ni 5.366160858156698 4.603498159762288 5.963643374430715 0.032334193356331406 0.6694085624176536 0.29562364171243927
P 8.08212069305263 2.9588023827010907 7.026555040066245 0.09804979038658597 -0.48539753737789954 0.5522698737204166
P 3.093538188266434 3.533619966557488 0.694763702522013 -1.2360074511662325 -0.6641573413210433 1.2351343045326597
P 2.221168957589597 6.4066475598810015 10.980890024294316 0.6017700373330733 0.06771540106910273 -0.5630361110979852
P 8.041865511050228 8.85672601013722 3.321924958837737 0.6381069240908946 -0.24636156225251765 -1.0658924673822803
P 4.7222825704260325 6.010773933174379 2.8162936437717443 -0.05672984859187649 -1.0218787808054914 -0.10052190607616235
P 2.692074597515578 4.88433572107942 6.529118928526667 0.6022719166701563 0.8105600690897202 2.082187069231775
P 3.8965304775024396 8.72909624871463 5.8222712305200135 -0.399469469955512 -1.3395750860472542 -0.7325594840445255
P 8.841062949487485 5.310958800581778 4.164358583397491 -1.6118132589562177 -0.2708181526329852 -0.8086993617318976
