# total energy = -381171.11638180644 ev
CRYSTAL
PRIMVEC
9.20539453865702 0.00000000000000 0.00000000000000
0.00000000000000 9.20539453865702 0.00000000000000
0.00000000000000 0.00000000000000 13.47302540286019
PRIMCOORD
 96 1
Ni 0.8171030554647951 4.827023631233775 3.4647365958890832 -1.0364980733805633 -3.2397961856937623 0.4369083315282604
Ni 6.855137788222771 3.388588650110578 7.437703035038193 -0.6640223584050758 -0.8290460437090496 -0.20038638107398393
Ni 4.429985750964835 2.9916520291837108 7.694997500009303 -0.42649587794568483 -0.43140257121868286 -0.6444146114764773
Ni 0.9837345082409474 8.271212865537263 4.063761088488763 0.6413303161241987 0.12768766785767688 0.37035352642616215
Ni 9.25703699838281 6.804231955344163 8.923373658159582 -2.3260263792830713 0.21363039056808367 0.5428413813176651
Ni 4.012705207675992 2.3188941658442346 0.9073315730283127 0.6816439281415809 0.6170488178690147 -0.7652780573234691
Ni 1.665633328551212 5.736489014761411 11.110530340506083 -1.1813905351523009 1.3222026562070777 0.8309571446888334
Ni 9.022041681615162 4.451001667142386 8.772880182891473 -2.6779319834166913 2.532778554674083 -0.5446624936868039
Ni 8.260599045409046 6.430640215462531 2.063367136662037 -1.3479877355909815 -0.6062838660430269 -0.16033373602747225
Ni 4.295890765875742 5.129945555743061 6.7628794811204225 -1.0502491044180686 1.0443167980940338 0.4543221561293337
Ni 2.6981932504609 4.148503190790861 1.486923477344676 -0.95132616739791 -0.027313085992656184 0.5117346326105316
Ni 1.1213643649078673 0.7686246851775234 9.05829252607736 0.6283321040923179 -1.4796400445233613 1.3035271912847615
Ni 7.135331593133994 0.5195708895722224 8.37374163154425 1.3875274455568167 1.14536243788415 0.4262125423773111
Ni 2.8877967657955637 6.762918143778306 5.4319874445157845 -0.8842463430302772 -0.24138262098068755 1.2558018601843404
Ni 5.889436648265584 8.512992558223816 6.976157430631796 -2.113656086374334 -2.615329735204438 1.817720826958747
Ni 8.28276563592834 4.800337191900125 11.172533276736438 1.8143768501871786 -0.9931068508791219 -0.325949032168858
Ni 6.823415997969664 1.222006945533875 11.794017091407948 1.6228237511341084 0.5268468056616217 0.027446526246726926
Ni 2.869220279222502 8.871662353241755 10.777558325427368 0.13213464788543694 -0.49870993821608955 1.8453005363492283
Ni 2.9198867718380277 6.050623110056619 13.327436097014207 0.9959270939367364 -1.9045636928859198 -0.19030380002700129
Ni 3.4547846436422365 8.301977294738041 3.7724738623836855 -0.48306631814156153 1.1753178465956597 -1.496118758904675
Ni 5.373842489218418 1.789040850354217 9.401100505429271 0.17063717483600935 -1.0434714193746029 1.1057525368020116
Ni 5.852955668935037 4.224328027214205 5.249306386021033 -0.3297884605196062 -0.25858535801221916 -0.10981824377642377
Ni 1.6638198657886285 1.1584529002908532 5.434681863554403 -1.9959077891175563 -2.211665767551604 -2.8322189990294513
Ni 1.3668446262774585 8.142567474130654 6.941181533340246 -0.6692990334229828 1.1605193481302465 -1.0655589953022617
P 8.943206681113823 1.2991757695883723 1.7563432882593137 0.4813598769734161 0.45713442876714816 0.21463646323509486
Ni 1.5888787472597412 1.5643555756885639 11.512579637668171 -1.775697945559742 -0.9021828729040398 0.6635744722343798
P 4.95681049158739 1.8465377458623156 12.20179214409454 -2.8683483977621567 0.1320217764566565 0.7392731486192752
Ni 5.951959689298405 0.18262582612634778 5.008853190715638 0.39446378921080455 -0.30588080066407325 -4.7878591988762125
P 4.19164887590877 7.642263475736538 12.508963278813006 -0.42925518585837685 0.2906107618788802 -0.7550052146425513
P 1.5719592317387863 3.7810330384072897 7.937552286932453 2.3967725967586984 -1.9903719469009915 0.1951333602051607
P 3.760946867097864 7.581471048913694 7.514391337487579 0.016071965861198127 -1.1834952402001293 -0.10268857471017798
Ni 2.5119589095988535 1.5395378314859007 7.315448949195348 -0.004737771795301517 1.7484902747966984 2.506553559539283
Ni 8.851143528379835 6.9545652567439005 13.009405358128129 -0.47885510827369143 -0.3169781961288154 -0.08835158926221559
Ni 3.3912674199781505 4.632292711032314 4.467547443637144 -0.4571359714290449 -0.27062274879272746 -0.04697225498448039
Ni 8.630711146081255 4.569208140920724 6.32884603995531 -0.7043295426645548 0.17039137737379043 0.16651801046131323
Ni 2.9106813771041025 4.947043567774696 9.478556537799468 -0.681945775652716 -1.7693853730781526 -1.8589078427200179
Ni 4.722579222582656 3.734610232764103 2.691910568554996 1.0160305495548307 -0.5863971544214288 1.2790052948839972
Ni 5.172649381913742 4.489737968182745 0.48574198446451966 -0.9586921208446779 0.39554519520044135 -0.8333408144296615
Ni 0.3247488359628968 6.369129767850441 5.226617849620327 -0.4538171914684571 0.5687809840015624 -0.22863226329355463
Ni 2.956607091431657 3.7997936328750295 11.860722143268394 -0.3693376835671381 -0.998025628336978 0.8661997699412114
Ni 3.8424330212825724 2.2771477007258825 5.383390324636444 0.5393382532604131 0.5833889637227243 -1.0969395664960722
Ni 0.5153667857972387 2.491504522500071 3.6075647389622505 1.9943962375690358 0.29360301173798464 -1.241841027128874
Ni 1.7542904852336483 7.902352698548868 12.865445872042162 0.3304073250505278 1.2520477924585471 0.11093718787221539
Ni 2.438407805674789 0.3903326707447489 1.93422833609769 -1.6092861216589898 3.2707065021193737 1.3066423398749756
Ni 8.498880688096708 2.7734933793844108 12.754266796603703 -0.1370038030522802 -0.23090177605402168 -0.6028979802899295
Ni 9.10686018869355 0.44179450946528603 13.266915229336014 0.3052799338552807 -0.1022651140195142 -1.2321957907296264
Ni 7.6134597956140855 8.338559533410661 11.509493989353357 0.7054042637859722 1.0897764730887298 0.29530662469265273
Ni 1.5052753522862299 3.331239040918222 5.832190139494247 0.5716994431999379 1.8114434785904676 -0.13330038605876396
Ni 7.362981004903972 2.7854880087227154 9.680840484380115 1.0305328569360641 0.3031749716971359 1.136024962533308
Ni 7.912377373414113 4.2483725182592185 3.9573513280619514 -0.8320421502228961 0.3543319541869252 -0.6512270064126203
Ni 4.265816741280007 6.751383784176697 9.522398150759262 1.3690358145105326 1.4738458064390876 -0.950772094666653
Ni 6.697817592219985 7.4943327823623545 9.235799232192171 0.3947574091918234 0.3575476329107455 -1.4544954269369337
Ni 0.48260662701814466 8.301415765659273 1.7651418045459997 0.0915389858512617 0.22628510321761672 -0.11642443623903174
Ni 1.0964085397841954 6.020990944408113 1.381969089825298 1.7681841536812 -0.0342352670337862 -1.0301240515334193
Ni 8.432601846012444 0.6482208836761981 3.837279841310521 -0.41156753877062663 0.4954271536997597 0.08483586279947325
Ni 6.7759529827215434 6.395125802579046 11.128274659395196 -2.1771600204652506 -1.1560569414835187 1.7468969621676496
P 3.0250768174625944 2.435775062780886 3.086791624837778 -0.7640585830940713 -0.5171329208079674 0.42740656268541233
Ni 5.478259281685334 9.238902370756978 13.668250187866752 -1.5051428167801564 0.8129241984465225 -1.228702432864387
P 8.443906070745705 0.9103444987247264 10.276267508717774 0.6979652910094237 -0.38557959934729724 -0.14385296476362966
Ni 0.9235036104968729 3.1414698284783484 10.035868625241312 0.36662259862882024 -0.6053518411470606 1.385394458374214
P 8.806856374314918 0.17747908993061004 6.2864192961661205 0.7726519811900371 1.4877282208481346 -0.4610314498287092
P 7.07887490723083 6.061301367947973 5.205114968061349 0.8163759044405489 -0.20490252377678259 -0.38031886516899016
P 7.032231172114029 5.065737927473931 9.410207402439545 -1.0862545759784004 0.5598044915345649 -0.9565375363955205
Ni 3.51925922835865 7.934461115380801 1.2347849539640368 1.5198029898954921 -0.7289491409854478 -1.0551511697053764
Ni 3.868585547721655 5.974448468633386 2.3603663101995154 -0.6341754502469723 0.5544270292727355 0.26526765512840117
Ni 1.5115994584684367 2.4780002084254025 0.3006666027994743 -0.09615720134956343 -0.24194594968332525 -0.3981206692371015
Ni 8.486499432179578 2.3878057508224004 5.579274680798065 -1.2270258164929126 -1.1938382739973505 0.1370855641328091
Ni 0.652411179359081 8.16638183030732 10.763815591629092 -0.7993343755772299 0.46312458491231207 0.557243415675608
Ni 7.469404573422885 4.966163172637058 -0.13984559517937586 0.30200794797222824 0.2698555316093998 1.3096636431998026
Ni 7.567764216154878 7.853785035932678 3.910236276734774 -0.9249044828712717 -1.9831350628329198 -0.052702986820670525
Ni 5.976832665869472 6.858055898353426 0.15043824289970392 -0.41535194551372345 -0.1651237012169479 0.09006008731289006
Ni 6.850986155197771 1.8398730400749534 1.1996718962909514 0.46027066040328474 -0.4093131955188112 -0.4979010691615489
Ni 9.159469019597935 3.7731348097255815 1.5011513354454313 -1.2517932532455796 0.12709528568931658 0.019004051906328562
Ni 5.250683513073228 8.780620999323231 10.862330805532087 -0.011277372686032192 -0.25029226476549155 0.35697453401609486
Ni 3.7610849480188726 0.29775953914250064 8.869508290874016 0.4393251684998692 -1.527706303902969 -1.8074505553809903
Ni 6.069871590445257 3.638736046610269 11.829612511765092 0.5135094651227673 0.031884250303106376 0.3411468229552189
Ni 3.6257104130617646 9.108894580929748 6.026201197827515 0.5786619905607002 -0.2359354818231872 -0.13397812885207894
Ni 3.052518099164426 0.8575359107546161 13.084625400117456 0.9664511959648064 -1.97625273389079 -1.4089354789189477
Ni 5.073332378129419 7.044962233031049 4.603140146449446 1.7821894668213565 -0.5680009113024282 1.0583593922300287
Ni 4.879641667532893 0.9684535529826311 2.520304520464631 -0.3050940430967197 -0.30502693730421016 1.1911064768884843
Ni 3.078136712708941 2.2572456373111356 9.956687501897978 1.0642811570311024 0.6599726138157344 -0.7455137302123483
Ni -0.1337599087207777 2.2441279498152915 7.953975631677249 -0.38422951307730596 -0.2003951228247323 -1.4203583760439087
Ni 7.430585423829921 8.617114778059246 1.0951971098372109 0.18901130646782288 -0.82919079681703 1.1958563328686438
Ni 2.1019322173603445 7.52933169314074 8.985403290034665 1.2953857931245498 -0.3596317691332839 0.6345161214158427
Ni 6.4841051480771705 2.259491753626213 3.7909454074567805 0.44251230797859914 0.3635161917893546 0.014074732925511244
Ni 1.3048370873497364 5.73555006449855 7.3231152019297605 1.2555378078896764 0.5640478401919512 -0.9857169861729539
Ni 6.096162197805348 5.783454938693899 2.891122674912931 0.9932320636030765 -0.12617945874326655 -0.2148856031314235
Ni 7.962555980108741 7.567488054312861 6.955489478375187 1.7613110807104504 0.27839262254613345 -0.4715274642640267
P 6.760101292989724 3.855928129962507 1.7747881376876802 1.1008057343196977 1.3494216398240308 1.13420976370144
Ni 4.438528357277917 5.492150222338827 11.406923799070066 0.11580505748747796 1.356222207685632 1.8853323554601338
P 1.9496473722770151 6.333652176545892 3.396644291042236 2.943354933176034 3.966856851407246 0.3790405126771988
Ni 5.071997595893 4.060812600555487 9.77154123869348 0.41769987692060967 0.3373567597851674 -1.2671890189753596
P 0.7678376239277728 4.369276172694596 12.496769812948447 0.7320133817330683 -0.38591461408921274 1.040952509607491
P 5.517676781936003 8.130489996239744 2.416266069721278 0.5410884031823004 -1.2079140353641262 0.20164005097542692
P 5.576517665075254 1.3665684644354408 6.516012887303903 -0.6900972011152567 3.4172668385118374 2.5310901112280666
Ni 6.5330134102985165 5.891001565370352 7.327681998257261 -0.9658796397320528 -1.1053542729223285 0.7810512609973258
