# total energy = -340892.71976095927 ev
CRYSTAL
PRIMVEC
9.06357112472322 0.00000000000000 0.00000000000000

0.00000000000000 9.06357112472322 0.00000000000000

0.00000000000000 0.00000000000000 13.26545250084490

PRIMCOORD
 96 1
Ni 6.330179263874655 2.031427233744008 11.495057922236029 -0.35412703726497075 -0.5880496024231873 0.3681243799853273
Ni 4.704582485614813 0.37484301256262775 5.834079266572548 -0.4614294565980763 -0.6419556084130235 -0.1614537085645284
Ni 2.6615085631246647 1.4145243366099565 4.702788804912197 0.6796304972559779 1.0790806839377802 0.9512832299751166
Ni 3.473704224782509 4.245331342605551 4.912767273541337 -0.0004214038081347581 0.060111620579915835 -0.1971262222654734
Ni 5.053502778735546 4.916851318637843 2.333777992665099 0.12803553811539886 -0.9432356770802917 0.5329614031997919
Ni 7.351000203010044 6.080613836150952 2.7304016727186595 -0.32402687544548064 -0.13072028403641356 -0.02485742536331203
Ni 5.010623024293532 4.623644796507398 11.755246761538993 0.5239825967399493 -0.5209795482475672 -0.6635844995367087
Ni 5.578573574409763 7.819242408459906 12.325196735419736 -0.010554121366762469 0.1427540752724961 0.762288635677842
Ni 1.8673584713450806 6.408678852380737 0.3598890267554246 0.17751847533687493 0.23541509054334295 0.05578831061421359
Ni 2.8961644165391074 1.7410757364812943 0.18577601496469 -0.7652271494808757 -0.24450265466690796 0.8883950750913281
Ni 0.5669762162327983 9.201246652290758 4.990636037505216 -0.5564787695954416 0.3127888406378162 -0.7389049666465791
Ni 8.52193200519101 2.34808121407388 1.0729990110751961 -0.025698176097052515 0.3332957023419163 1.6823180498449997
Ni 7.03409244269193 0.7117531677397737 4.914996005652369 -0.4251954139667064 -1.525465330387592 -0.3353150467647903
Ni 1.08959531594917 7.563994121713767 2.4969829967469 -1.8971285767641135 -1.5242723385207553 0.4217851027335768
Ni 7.728316664100937 3.6936136481658473 3.870739390959863 -0.48836896130139756 2.3472413227977897 -0.7667901230926214
Ni 7.631689933577516 3.9347137005674533 12.50490378323702 0.15412272212075392 -0.9627066413207096 0.47356377796776505
Ni 7.889938262327525 8.849969830707769 7.126240862779967 -0.20431271271158363 -0.760409159266942 -0.09465207755894667
Ni 6.634298325499537 0.47810608977859625 0.2818906537261212 1.122158488963861 0.9901871061291657 0.17488078060371173
Ni 1.8386903962446604 6.304139624366749 9.497639019630748 1.4051868105097927 1.6997830393989821 -0.5022110093908124
Ni -0.010526431369468263 5.062058789767729 1.318384319849701 -0.06778379241319293 -1.0284469209413127 -0.04231367316654648
Ni 6.283229966049748 1.959453416364167 7.063707660962756 1.3172481404152798 0.1498896578760128 0.044105474959646625
Ni 3.4655742015877333 4.236539678727142 0.6658914984359082 -1.4158987976106583 1.3182385293530072 -1.0133092939689259
Ni 5.812957520693945 5.349935932145077 4.667130903849892 0.21994656259409862 0.42112947142744894 0.28553746112103084
Ni 5.24605834481472 2.8977233507525986 9.23386916342226 -0.3195780956455077 -0.15590038284646698 -0.3149169427244125
P 0.1709761098646343 5.466928506724978 12.355402898520328 1.8947395077066467 0.22286810711626776 1.177599443540985
P 4.0539902950415385 6.224371135919451 12.854767594099757 -0.9715201258472818 -0.5682377099035827 0.13370867724077617
P 2.4391247848559603 8.672360093221892 1.379912371642051 0.854263937735574 -0.2679860825008288 -1.2292629333535476
P 6.2469938091570905 7.853475516159649 5.956134751917891 1.0418763069733412 -0.4658280998864042 -0.22659594958981621
P 4.678633481816994 1.04172153388138 12.588953902628813 1.61514103777787 -0.10820796186651041 -0.5469428050805484
P 3.9729347795110104 6.14886252584623 8.423416426469382 0.1435313197581528 -0.13033050479716263 0.6040868583917081
P 4.589384498094629 1.1412486071275751 3.620699032115306 0.7742676624165892 0.17203662628669728 1.2545695304391362
P 0.1811363729653523 5.6223143680976 3.6494051742139626 0.3867329962254501 -0.2742433762644503 -0.05022444337319092
Ni 1.488256486765479 0.8285825980415181 2.7878674319849237 -2.0332720886986273 2.5654976421736593 -0.8075277100212995
Ni 1.9132473313619722 6.482991071080815 4.719158520510954 0.5428881753952005 0.8729987951409158 0.8037908686866866
Ni 6.040435025869522 5.572854461103293 9.191658300520688 -0.5241625739612392 1.057855970231049 0.8682036877451176
Ni 8.257466066729055 2.2418470982812697 10.179960959591172 1.7063159554214935 0.31259755056261646 -0.6457870663439718
Ni 2.3807100697050885 5.511068097537196 7.192979561545201 0.783588682707199 -1.090534948521309 -0.9261290993069922
Ni 0.551464820808562 -0.06479275006967261 9.042713919063925 0.2857431493739337 0.4446404100651955 0.3285916119980276
Ni 1.5526712859240903 1.0900666216416208 11.336775343569036 -0.8662221385387147 0.8286662917721277 0.16642750763003594
Ni 3.910178613846986 6.979774461636976 1.663872238629451 0.555227927907476 0.4711376850247757 -0.16476991742195493
Ni 5.351920854195975 7.841502538857197 8.190249717771664 0.9317762702904405 0.27131746086690695 -0.059193993861652895
Ni 5.7011493087310035 2.6645901772676126 4.746405427677216 -1.3265563051900833 0.7819033245849759 -0.018332736870916817
Ni 0.9777780404152198 7.539875959259699 7.030808710915489 -1.4779474873122869 -0.25829508046531 -0.5581258182805613
Ni 4.888835820650047 4.659826571974005 7.113121343744919 0.9442443208504642 0.012616146102113755 -0.1448477245767312
Ni 8.233819209967438 7.118818704480968 9.353271741533366 -0.022903644071050878 -0.5865681327816543 -0.6940304747313918
Ni 4.604466280253054 0.20643642507895119 10.428250236516854 -1.0489566108588904 -0.009260085145687278 0.25470144957678065
Ni 8.350403923851948 7.3085645635474545 4.950680191070599 -0.8887961671844887 -0.48108965403116505 -0.8574757598046522
Ni 7.462899050683072 6.223863575942967 6.888139039668029 -0.5501024337554526 -0.3651383007738099 0.9316564568831245
Ni 2.2287774288867688 5.283472765938506 2.6475189412727844 -0.37218389476668157 -1.0406213515203175 -0.5873242942213884
Ni 2.280838580760564 5.219438636762259 11.5221063371972 0.03995982822238924 -1.3545432773213122 0.6492721966790947
Ni 1.113151537000701 3.2298941646493113 3.7898733040634167 -0.042878801641397124 0.4428936025774179 -0.12471264438975298
Ni 3.528049396550489 2.8685477156756924 2.699851093919739 0.444715229167189 -0.1412857182570857 0.251640808373586
Ni 1.0998824690440094 3.350158688363341 8.133937751094804 -0.7337717591850718 0.37191161494190145 -0.20342362523841093
Ni 3.9453815236446563 2.5959245633059354 6.737721827922359 -1.3373904196911097 -0.3771263263736214 0.3380614991616759
Ni 4.244905354768143 6.831512567077167 6.0050182157960466 -0.2569642774690284 0.6935411937997991 -0.2054625100453107
Ni 0.9523365965938856 7.353293286475237 11.472042796373715 -0.38363584535736506 1.0322374983319964 0.2532953132578734
P 0.4531141990792921 5.587328984004137 8.118735423441963 -2.233398017022373 0.13845853322093574 -1.0330599942332919
P 8.562781519727082 1.645228473064619 7.926970200754744 -0.5483288867947976 0.4110255502242276 1.3272340479833982
P 1.6020224300662935 3.2133984654135337 10.476072356229896 -0.02064261595101606 -1.0704448626396532 0.31980563827528147
P 3.8913988947170233 6.139400157713179 3.803484068647135 0.7906016236899223 0.3342958614716565 -0.07712898107351877
P 6.784381997832088 3.910323630983125 10.428515799147409 0.009448804117725662 0.6717487805150559 -0.07917892162401202
P 6.421984174621463 7.7170415817661535 10.360888870423326 -0.8461950446845103 -0.14275818903755413 -1.157164829835717
P 2.511932450768599 8.484164104797886 5.704529114360136 -0.1505846270605084 0.016582586949029504 1.0643757736274377
P 6.945033793960747 4.0231469628990375 1.5497102172755581 0.029312890031504356 -0.3306088995383725 0.11654553519792832
Ni 5.259354603484438 2.9145634656867054 0.4238162057937694 1.064978183098127 -0.41257129744479265 0.14646957645087033
Ni 1.4588814531263827 1.1632549575366238 6.981434907845764 0.34587688144103657 0.2565421023299453 -0.12777225715168317
Ni 6.605485233262978 0.6338082697794214 9.339528648812921 1.0433906867353386 0.17525924698905299 -1.344157563211614
Ni 2.5888005964931216 1.4311922436948987 9.183513775612296 1.226472515092604 0.9461135128487189 -0.5364781581037986
Ni 6.533457034457085 1.8285391967149511 2.419857445605732 -0.8186307619129967 0.6739334468712006 0.33882537391089385
Ni 4.108027305395223 6.736807313607583 10.732971119256712 -0.11990828102257414 0.3917237645718221 -1.450682738059063
Ni 8.40854673187256 7.395275747387393 0.3791772122189733 0.021934338179246095 -0.4317566121239919 -0.08744296140501714
Ni 7.38698257991446 3.99241239360864 8.145836407114984 1.3818224247522397 -0.9506548523624982 0.06604135580078949
Ni 3.166068497606264 8.529137544142902 12.569227946685544 -0.4611702893994186 -0.9910018887209773 -0.288407069359342
Ni -0.018104483089816475 4.785683319000383 10.096720217090455 -0.5793142794327185 -0.8512205229235598 0.7029966827857442
Ni 8.464686490700256 2.37027789947411 5.7993503815386305 1.0054345192065395 0.9743992471672895 0.7657886784113005
Ni 3.814648575415614 2.6676083464134988 11.32963778139971 -0.9364723902145291 -0.2831198528184737 -0.40575427452295926
Ni 1.1389917779464165 3.2180208866279547 12.800418796903374 -0.7045455153301027 0.9215461079220001 -1.4446077355095766
Ni 2.9568722151551725 8.26471692353599 7.99011338090084 0.7093740470669977 0.29546217643391054 0.31980178162053957
Ni 5.840066661580874 7.873922932355206 3.6891226487310513 -0.7736166590961515 0.10183651112252784 -0.24419515072881814
Ni 3.099949747098023 8.376996441191382 3.587017895889991 2.0780987580950145 -0.7092454919089334 0.2614374827490336
Ni 3.1462555313813128 4.128184687318503 9.412223020087952 1.3740445805790338 0.7192447692134903 -0.9778501818303676
Ni 7.412405896593777 6.165457924363103 11.6710905983664 -0.7377001477052004 0.7584666908285905 -1.9875622453663384
Ni 0.6756692788400603 0.30576138069165293 0.1646705835139032 0.9212586585885681 -1.0843732997952875 1.2735175322965486
Ni 4.494561418201933 0.5521790302040451 1.6398882170263112 0.15178276113366765 -1.2144055566257408 -0.8318876269229029
Ni 6.1714670719418505 5.742316048252379 0.30526288428617615 -0.11725670233234 0.5445131125931332 1.3968214692642331
Ni 8.118684667444315 8.89103687094805 11.146641563663378 0.04473410968258102 -0.298488364854744 0.5546753978381157
Ni 0.37549740238945367 5.169634314069623 5.879301954120303 -0.8344109075653887 -1.9760501309616805 -0.1098328990644431
Ni 8.040547621778579 8.888698469627812 2.4903629644821685 0.7093475647044364 0.09955645683909951 0.3475010473080209
P 8.378609756830926 1.7514082074311772 3.57744042040513 1.6692861563617056 -1.8504692250343615 -0.12260716801097594
P 1.7013772954633237 2.976014477125482 1.5603091572130958 -0.12490264891337198 0.9335158786893665 1.1267826179994336
P 4.6457145919135066 0.9873310442583569 8.101689565445959 -0.34661478804832563 -0.3421945474934429 0.8275437481319102
P 8.433770649989686 1.5318975811722209 12.391325455856085 -1.1175667558281206 1.2069280173017731 -1.2809138247606198
P 6.533239508752877 7.70963664425207 1.444382458583815 -0.9820490504030637 -0.14890981046124677 0.07144195799107052
P 1.882521825642584 3.180162350524744 5.948440686488631 -0.25496524476112864 0.011956658141243923 0.538672594651956
P 6.940239164897161 4.077419626098948 6.02605748317847 -0.16193373352474047 0.3470835001546281 0.13987675372470104
P 2.4606870202855844 8.538364259429727 10.2347738116232 -0.2263403819355844 -0.9406136660764123 0.12949515338006085
