# total energy = -381162.2658760749 ev
CRYSTAL
PRIMVEC
9.28865615599706 0.00000000000000 0.00000000000000

0.00000000000000 9.28865615599706 0.00000000000000

0.00000000000000 0.00000000000000 13.59488719605994

PRIMCOORD
 96 1
Ni 0.9004135182973898 0.327385182957721 0.9541874056419123 2.212164047344261 -2.04243550036545 1.793433415166292
Ni 0.9333334440449408 8.881775717419176 4.70403455446748 -0.24864135942562984 -1.5319000302693422 1.2182272443646762
Ni 5.233256659221661 7.149237022042433 4.638548600766171 0.12254134777004702 1.8909054786725372 1.7217592865597575
Ni 8.917314115294555 7.783689381812396 13.428009939344609 -2.0233874825950635 1.2019606459941687 -0.5702814798064888
Ni 1.7165807843600405 1.0953926253653106 3.271732158276855 -0.49760384963610427 -0.021741248331833524 -0.7790797390932518
Ni 3.951134182186528 9.220402960739827 4.522529571800507 -0.20427825992922238 -0.33170676058824167 0.49174096309742404
Ni 8.761710549897705 4.837606356685916 9.514014590463132 -0.10028896412974987 -2.0945175657726702 0.4025478517705196
Ni 2.8147600065268708 8.680165438829238 6.357240696636163 -0.1784121907957379 1.3721476206666368 4.48616698237219
Ni 6.2422369177718515 5.181769638985586 4.908366409266901 -0.10709081754293169 -0.6231685576135074 -0.07964403418588864
Ni 6.2497978837599755 6.783486903186992 11.725603644048297 -0.02830836002638996 -0.16366948526892458 1.060984745668018
Ni 0.893887308588231 7.396045900753016 9.919033431445586 0.6214232927876265 -1.847173585002225 -0.033984584475560825
Ni 4.000661296005535 3.7579022713131605 0.3642379256578166 2.273709057936594 0.5986800855538399 1.4328421103332163
Ni 0.7429903051891479 3.994242834706035 11.703443697417013 -1.484705631971727 -0.6431807390693761 0.02986182055643889
Ni 4.254204450319791 6.7762974834390715 10.327424054557879 1.07248991809414 1.283865451189776 1.5305589428604158
Ni 5.163443120687592 9.10513073971697 2.2210374744735173 -0.3821564325983612 -0.39830758843692693 -2.0298396659783107
Ni 3.7396593509192124 0.2803065588616494 11.037212987722521 1.0527160779013225 -0.8947508421060267 -0.8701672392293917
Ni 8.55238139816756 4.569554321691749 7.023526209401084 0.5564605147629965 0.24290034317679457 0.11365407258274621
Ni 4.695127662224222 2.404675132559254 12.417243472244643 -0.020269548882313478 -1.0960409659412027 -2.650564904257648
Ni 6.9924259313649255 6.069198545053495 9.602109132880768 -2.097654311629439 0.8848297263375728 -0.5223170361120683
Ni 6.188985052894814 9.35228329869974 4.095323847084354 1.5973022098242362 0.7676707259253618 0.5950800269074075
Ni 0.9018495445157728 9.106041028005466 11.722000574383932 0.17365822105052028 -0.00035352668467681053 0.848763319632319
Ni 6.448092112156103 2.6503229292692043 9.67930157974526 -0.11543481863225281 -1.2143747033878054 1.4595077925498607
Ni 2.492954519231392 4.125157152441422 7.503996803112681 2.4334992627557703 1.1017560140481089 -2.4839947004021607
Ni 7.7878599883586705 3.341352492766018 4.8714830140019885 3.5003795479726163 0.15703629622312312 2.057833322977759
P 7.894986058065086 7.9560403939863775 4.458334741283902 0.2280905318574717 -0.48423694141089507 -0.38930281383515536
Ni 1.6197929887872629 1.8703823504919077 10.579391852813675 -0.044281852636510834 -2.4590809678796166 1.3438706280988146
P 2.530750060516002 7.60346158934612 11.48924264561221 0.43806661350241977 -0.4680713873946261 -1.2770399436275104
Ni 7.877913508327777 8.30637134387341 10.942184463597103 2.086941038976993 -2.766273031155946 -3.7970007777116352
P 6.965683890726344 8.101510035681702 1.0124421406432782 0.6586988893096333 3.3476963865118665 -1.7736359208243906
P 2.8414741811974378 5.3391194717113875 1.3830483688581674 0.07000419710327944 0.6984049496500037 1.280514532439672
P 2.3503272062736182 1.6561766543591026 8.195296666499242 -0.08616100936879999 -0.8168695562475158 -0.09949115081880285
Ni 7.032552925306806 1.731609829776236 6.998307508347333 0.6062213882362075 1.6321038908844538 1.3385242761852367
Ni 2.623683063846678 2.3470483107038302 1.4809182928555351 -0.06418861886276686 -1.1193287328245496 -1.4608540221651098
Ni 2.547534661917154 7.8955619547374 3.0098533640636536 -0.8298379434827257 -0.13456665436569729 -1.1178830015169585
Ni 0.7185825038046384 1.9480169373822411 13.139498710633685 -0.5626226777096504 1.8722408123834982 -0.18677984603414283
Ni 6.354945469737312 6.3014985430841675 7.096952106255523 0.9540109133189246 -0.5676949500262352 -0.8860723404954223
Ni 8.434824167767456 5.25159246617566 13.569029385947905 0.11457632728669945 -1.8322609295564511 -0.36939759027079605
Ni 2.681978668934466 7.994086728983124 -0.04541874126796655 -0.7674370126480009 -0.2949476986913372 0.5593638044527205
Ni 3.104854022221057 6.467412516646638 8.528140792591142 -1.794366725613839 -1.0859534997982137 -1.9431937465532922
Ni 0.5937671176021775 3.2328052586908282 2.303667500563375 -2.8794290810563505 -0.36585255323201504 -1.350247735269752
Ni 4.000772759877596 1.6275675938635021 3.1936563602262806 1.7424134724749991 2.290538727899423 -0.39157309792657075
Ni 4.94469527176831 8.87675984317644 13.251506897936363 0.033535926973916434 0.010305238580749995 0.5103477795653341
Ni 5.110729997858849 4.610136459777878 10.982765672817631 0.4415854252889556 -0.1893517205263771 -0.095616498354745
Ni 1.213962319269966 4.241460414280841 5.68466119056221 0.1322215511722884 -0.18690300187556844 -2.0210192394732034
Ni 0.9238487973981689 6.3155801455878455 0.6619449238137544 2.713656433401494 -0.8336004958489514 1.9155351042957591
Ni 2.3980244548596272 3.5279615919077747 3.3442468379771966 2.057173320796257 0.9968385500074124 1.736766301491551
Ni 3.8436458548959154 5.783219403969553 6.352604728424035 0.8578526835280967 0.46915176494299843 -0.6895325868610382
Ni 3.9947351334743035 3.2314862695381086 9.336873418387338 -0.09895918957473279 0.19247895330144915 -0.4888867814780806
Ni 1.2012740151670471 5.535797473962635 3.438187660484422 0.570189691423631 0.7212959953155642 -0.8625110082357146
Ni 8.145259605465558 0.6962971603172864 5.285202539064388 0.7232073534056642 0.24617721415585345 1.2300972563293846
Ni 1.2861630423973365 6.558636407272383 6.3197600407901255 0.20842262111489912 0.006605164021343463 0.3130876028251576
Ni 5.734147434294794 1.8202236080645562 0.8446472142397808 0.3965538389706138 0.2375704463234489 0.35255789300563795
Ni 8.74316110385559 5.650688860089284 4.9332990197156965 -0.9351737260077635 2.5217711478199862 1.359991444920077
Ni 2.766375397396487 1.1821765384206333 12.894858733100284 0.5972947751705391 -0.47364579615861013 0.9047130955250613
Ni 4.898447053519092 1.1413064519983471 8.563541718357644 -0.4393030570126822 -0.983627450633777 -0.7701546686894801
Ni 2.1138844676646875 5.2664357384717535 10.496626212346145 1.168282279905117 1.9824413792000053 -0.11640952384069628
P 2.80183019736782 7.2809222982262405 5.011225270404589 0.4848012985547973 -2.418410743853764 -1.8613545044882973
Ni 8.570633607217513 2.0581896862583178 11.473921007531855 -1.6023559701980599 -0.27692735085451664 -1.3334872279819614
P 0.3984294684124611 2.5015372373800724 4.417196212703069 0.6491019896498176 -0.7889198651121252 0.13755736156290502
Ni 5.796372140872725 4.134417942478472 2.1526005147593996 -0.5496890003671178 1.0476836576837376 -1.033920285351058
P 5.001040259095035 5.239387172185004 8.521710256038835 -0.3393776468699381 0.36579856006562805 0.30731727600028363
P 7.998192314937364 3.3959419241077855 1.257207515032747 -1.8295931529163008 -0.09000249460207725 -0.5070889063084041
P 5.92486211939079 0.03782990931182841 10.246235627880006 -0.1130992285205407 -0.05718570518237249 -0.055717862387594366
Ni 3.50513936410333 3.6091723113600587 5.299504282715385 1.5823283621232231 0.16721786474181524 0.4262554798001046
Ni 8.639982712951328 2.2540874414051393 8.851916403825294 -0.20721754506320444 0.11476787447221524 0.3075265637976123
Ni 2.647276250099543 8.687744982129372 8.984384713710329 0.060841042546772646 2.0027770054335634 -0.29162583340695586
Ni 2.215418766456054 1.6186597727546448 5.560295375310393 0.8486211376274997 -0.1594978703897382 0.39830450311313337
Ni 1.478447510358188 3.4466951405194606 9.143526328179506 -2.4092838418518316 -0.3777709019361558 1.4431442635901728
Ni 6.619282042329453 2.366563776970472 3.2150416329467415 0.648970863388592 -1.7468730509082497 -2.5044408840716548
Ni 8.817683990984227 6.926216391360821 7.777430685396184 -1.4473904404610363 0.4049803724714122 0.5048754435968531
Ni 0.10310222392502098 0.07913191823835013 9.464842303303518 0.565323107359949 2.3891670164972982 1.3661536078667311
Ni 9.290235076585907 7.713383544510059 2.7895617405163304 -0.4421215002980837 -0.6349370110033452 -0.7990721230547786
Ni 0.3639146804288404 2.3745148665108076 6.767032049074019 -0.48929790087357034 -0.8059259127518186 0.4421734365819417
Ni 7.027917885960279 0.17480971941852264 12.272661826063405 -2.7298919214237505 2.8457689697997437 2.045360387321729
Ni 4.2255768125121795 7.005485781708047 1.5420404359656648 0.5939430850894868 -0.762050808635423 -0.4849416807874035
Ni 0.48484369295878216 9.011733303586041 7.357824939023375 0.5698775594998509 0.5425292493938849 -1.758209044746359
Ni 6.621502031114663 3.918335937832644 7.890866539126839 -0.8293296363877395 0.6285568185086142 -0.5376544378000869
Ni 8.519824658869805 0.7246154858799283 3.034433005584257 0.30778136012089574 0.3309143465939333 -0.8014439657210649
Ni 6.039456268525277 9.171238104505017 6.4466681611905265 -0.7972037023874722 -1.08376677655954 -0.9657390003891303
Ni 1.8093094372586047 3.964937125010055 0.09341880003974068 -1.5587140651383928 0.7918681491071717 -0.23186208308476197
Ni 8.183213053902254 0.8155003405614872 0.4526324916644176 -2.415379670336924 1.0148956646194391 1.1893717535855646
Ni 6.418721381868088 3.874140512560544 12.95078851750358 0.7982527124772768 0.17816022268593187 1.1436084313075205
Ni 6.54904122561915 7.104567875314076 2.716054103489047 0.43751691164653683 -1.253949123246318 2.0635563415044653
Ni 3.7859540124484563 5.769695120826178 3.712205799230642 -0.7518401866510084 -1.6739923035881237 -0.787270245323844
Ni 3.6524481596876566 5.66846734768298 12.688175919465982 -0.37684941856315096 1.4021153706733207 -0.5139025867961279
Ni 8.862901168416883 6.177885108968762 11.439947748193331 -0.5657743359647546 -0.06625398603222783 0.7521942275563174
Ni 4.98393984338971 7.875739962822591 7.92239316647363 -1.1683653265372265 0.21607268146098918 1.7571937161079672
Ni 7.925629334225795 4.739824674920596 3.147216795663357 -0.12159878135111961 0.24811274061566949 -2.861386878842659
P 7.434278008869864 4.035986054792797 11.046552731335614 -0.028286762759835157 0.03782632681915421 0.6862318046225794
Ni 5.801081489467293 2.8103943382044902 5.127814622848965 -3.566202360004697 -0.5025064291440442 1.763321683382576
P 0.9937189967338685 5.544500944639381 8.415071840772685 2.452137189571932 0.8255393161073716 -1.312316250331301
Ni 7.4851055345295805 8.862334560400575 8.453545453945665 -1.8692526762894515 0.15355656520463876 -0.10477631047714213
P 4.524940906899421 1.5377927335745487 6.300577108408465 -0.40217864135655906 -0.5457510987652924 -0.10360234477369899
P 3.066148192647951 0.23029364833357766 1.5706578562516698 0.917799239285058 0.05447859066385456 -0.5033412663405138
P 2.9584462262692215 3.4075434554581117 11.263173478029735 0.7855771738921373 0.10793208249730445 1.2960856474050517
Ni 6.4786889450367875 6.213033383291927 0.5074346332287009 -1.5179283985805985 -1.387785841424526 -0.6589331168076265
