# total energy = -340859.29145385575 ev
CRYSTAL
PRIMVEC
9.39972665561359 0.00000000000000 0.00000000000000

0.00000000000000 9.39972665561359 0.00000000000000

0.00000000000000 0.00000000000000 13.75745009942500

PRIMCOORD
 96 1
Ni 4.268321850367247 1.7060785765095168 2.143080325751382 0.15772586609097997 -0.14754635445481687 -0.4339680179530139
Ni 5.8181769708369835 7.454368580098861 0.927041455806502 -1.1159983828997362 -2.952705006932366 0.07065262932055573
Ni 4.2840757921435815 3.1012047974683745 9.804783375260438 0.25253169561897154 -0.3172887853906987 -0.07398297924536937
Ni 8.94495842437541 1.5152641265932996 9.212001837074165 -0.5021511026871546 1.3955963386078802 -0.15122277486513955
Ni 6.298747392827946 7.63997558148042 5.983637538203496 -0.7939219463124069 -1.2598906855417336 0.19958702510114013
Ni 5.223127278622889 1.3157455298483915 8.17669903018835 -2.048379119543395 0.2642533549312739 0.6094411807250859
Ni 2.211511275349168 2.8529956169517416 1.438754111985514 -1.0679467788081478 -0.7304426948118388 -0.07101181243218738
Ni 4.282412040535937 1.493249966903458 4.5631395752144 -0.28742619350331144 2.19877271363902 0.32821803070869277
Ni 2.1205031224383886 7.29775973526861 4.865170650251981 1.9815870016195098 -1.7858388906484857 0.6423795833243195
Ni 3.3115142803464748 5.085787873316196 5.356229287179717 -1.1795398550968073 0.7350884211139663 0.7860877949799688
Ni 7.748636420940098 8.93807782450651 4.6377461451863216 0.6120613919567524 0.747978389702757 -1.3837026724940877
Ni 6.966682565074078 5.281461981882989 2.32467928371204 0.14388073267777154 -0.04358199835600881 0.5828271776819834
Ni 4.01199130607093 5.526212063011978 9.988568709627526 0.7748610730262139 1.1061736834998304 -0.06351319006229707
Ni 5.3402290725665456 3.1483068274452295 12.305805289820173 -0.1869495388427877 0.03011713110035458 -0.6017916345996281
Ni 0.09616014305851699 0.23238004092752337 11.450738480538474 0.24948236726968642 1.4998923670144941 0.5216385219878049
Ni 9.341692684848994 0.6468327860361861 6.10251588047396 -0.25344469435154415 -0.06506665059234601 0.16504682523242545
Ni 2.181714142037128 2.9678696756919436 5.293082863874685 -0.1510134870678109 -0.13501505475702552 0.18969470568809269
Ni 2.4692235794552237 0.4902906792647727 5.464885426776097 -0.6362477593949687 -0.9283687872707883 1.4447388617708024
Ni 3.508043764033582 8.912472969256667 8.075127464528023 -0.10020694593890483 -1.8660128291959153 -0.7905345178974127
Ni 7.963664566569821 8.225033364322055 7.592130973102412 1.1844825438140634 0.42875407785224223 0.8231337919896726
Ni 0.4440130053104618 7.624945418652044 12.382323764181898 -0.6242939294672022 -2.5064448018755607 -0.22374151086015662
Ni 5.2721092539191154 3.2577854431188342 6.436643261949172 -1.4124157241580644 -2.393593170589452 1.3158761997684176
Ni 5.525619880236375 9.267312648288057 3.859707275447893 1.5497519708490985 -0.6977817142437079 -0.4824772784073111
Ni 1.7923492672154793 4.2677484670448385 3.158847680850946 1.5493701620296476 -0.01276681274736511 0.8318472606032706
P 5.078089497233369 5.362403027608534 1.373856519615487 -0.4826737106888333 -0.20686376126821146 -1.062478556604725
P 2.2156659545049795 6.169924139818007 12.189182881932956 1.0633167362353044 -0.39670244873333615 1.033408378711646
P 7.495595780952681 1.263229257351746 11.492148036088272 -0.06170364765738405 0.4541743176975598 1.534664737498673
P 6.962527885918267 3.4820065213602853 4.962518918752341 0.9023402244175105 -0.06181574775521612 0.7629910610615053
P 3.541516190444993 3.654811095116923 7.836490965577631 1.1248015830136628 -1.0141446453860277 -1.9164619869854025
P 1.1411456083117544 8.854410858067876 7.264332427544863 2.059269798313969 -1.0896216926784201 -0.1642091598224785
P 1.5637103174735056 8.917257430094468 -0.15182626393776968 1.0100861590459378 0.3906729547098046 -0.3649141005781457
P 0.17130249744645948 3.658260794777969 0.4610970084002512 0.0418902124758827 -0.6193412134476172 0.4760376934295544
Ni 9.064598144500216 5.978893496190063 8.361117906128067 0.20912504649856245 -1.1680953607052915 0.0810987643545442
Ni 5.297168925026338 7.8512438364714 8.825197447777501 2.360414112734322 2.2262390373800884 2.4706018240350227
Ni 4.589510508181885 6.1288379348631405 7.909474202766275 -0.31796729951496205 -2.9082262077937013 -2.9418395249727722
Ni 5.054778175273161 5.940974999098336 12.126297771027316 -0.12381738626899322 0.5410508650761456 0.9634682020770826
Ni 0.5712279650996781 2.9719773562147704 7.27550400260523 0.574206783002824 0.8976988689907571 0.47108369185838866
Ni 5.279140249413565 6.912643536868742 3.739577829567388 -0.2416456448340871 -0.02100025640075093 -0.01708369495516413
Ni 7.65505274294178 7.997334387239767 2.1644459043060404 1.6355368278254026 -1.6760237321958553 1.8540060345430263
Ni 8.069101299806777 3.2718944327407185 11.246728694425586 1.050491816556494 1.3559445285442133 0.4484209601535503
Ni 6.6952560598632065 2.2701467698603683 9.680966416635986 -0.5487883429297195 -0.18946382062420916 0.1319616126426824
Ni 3.503588293626671 5.913048411379072 2.6853994317024235 -1.0157454142142444 -0.08821634923593195 0.177434657373817
Ni 3.680387751186973 7.677677884860417 13.17482223334427 0.12598328357206046 1.3947085366862884 -0.41005290189831317
Ni 1.507011166641258 2.573400749328201 10.810947969668652 -0.8399848021087404 0.14191023921496204 -0.3217995287768587
Ni 8.000549093735891 5.540715841150929 6.384062131339008 -1.3483317491939617 -2.1937976290219314 -1.4799987134143608
Ni 9.262208596745962 5.350211582212409 3.536751469033046 -2.392827753178337 1.7034021242088082 2.917623075627569
Ni 2.686065872318141 7.625293208536127 10.743124242409023 1.5499653724114855 0.670357042373852 -0.8922226763675344
Ni 2.2911739582575392 6.759644187051684 7.875259197953712 -1.2417651795856164 0.33934267986694455 0.034137565113657335
Ni 6.8304335280526205 3.9893755638788893 8.17460759102055 -0.039294940944880716 1.8454023520344152 0.354037562874958
Ni 4.877546330289404 0.8676276639330819 13.304087273504262 -0.7475209904503642 0.5755995495852926 0.8392826338353934
Ni 7.806416540330983 2.41107687072706 6.6777283896780455 -0.7304162124492776 1.1242770779687605 0.12666591146138187
Ni 6.299809561933391 0.2252343687685919 1.5805800067968865 0.18670117027740749 3.0315291163201206 0.1032146224169771
Ni 0.8875861034161906 9.160870144305237 9.344403565999528 0.7542313125910043 -1.763687808472743 -0.7036111764412915
Ni 3.0461036001575925 4.22607007931437 11.558513865752726 -0.3010085601734364 -0.026582635584534862 0.858137304648051
Ni 7.415547709253838 8.839258498793741 10.547259319392314 -1.742992742017237 -1.3461673945527912 -1.0700211448386734
Ni 4.674653231696224 3.9194227985450723 3.982259030872408 -0.6476981673237555 -1.5587798853793218 -2.6563766258434187
P 5.021352747494734 8.357014925468539 11.16920632926332 -0.42165860445804154 -1.7034262925785244 -0.020109112045049237
P 4.292855136785047 8.47637265379544 5.630992695332473 -0.716156874316786 0.31905719014503114 -0.1100856385051975
P 1.9978178908961983 1.624648745000936 3.5427776337542918 0.7273185473605603 0.41695502833478515 0.20022671556766805
P 0.15218251357579063 4.025132123853337 9.638070764311225 -1.2259518667024436 -0.9433788875263752 -0.23322142532613382
P 8.935539898325358 7.433501187053837 9.904896103352936 -0.2749995377041845 1.5362799045045927 0.5826078625823257
P 0.6710916004373572 5.479006636042557 5.725094298266278 3.463703275597506 -2.7006440803022262 0.6862271766368891
P 6.086435768184714 4.6881888379957 10.733644618136092 0.25792098495534294 -1.0695694020132354 -0.35684572174771445
P 7.352795134493214 6.687219293622893 4.072563144261082 0.6769496079897052 0.3567271938919792 0.3818818387807359
Ni 9.102272248700423 2.544280396331135 4.7850887395373904 0.22288481928681617 0.46011228044854957 -0.7161059664741924
Ni 8.89759320205384 9.014328406660221 0.4376822894474779 0.012831090326397258 0.4681600904536905 0.14873908921133738
Ni 6.038581760080111 0.6673570890604256 6.074546993985009 -0.05713119779535322 0.022702583803838317 -0.6601309937704696
Ni 5.026146608059132 1.0535683556088284 10.96508656634925 0.46145619607095373 -0.17343787750959808 -0.6155339238863851
Ni 0.6197098749409523 2.0558612026317964 13.0198855998756 2.1720640939995817 -0.9646552804066485 -0.8958875268136313
Ni 2.4841973439240186 1.3538144225656663 8.002213785316195 -1.3058350134823318 2.735684873956443 0.06414413877807663
Ni 0.9844427662155347 5.996499184105977 10.35433839074574 0.15356633539665165 0.06830546924461783 0.2130575487837492
Ni 2.608283134729141 0.5843518633742113 10.680046437108148 1.1242472531720897 0.11056052125908702 0.31619632365746836
Ni 6.92551176257984 4.533506937117805 13.160115421110827 1.127862995547806 0.8715728613276666 1.4546769468201204
Ni 3.4608007381577734 4.317632816094364 0.20696130026429999 0.9833520854852031 0.6413215743734504 -0.09333104475467797
Ni 2.063888569145513 6.359657621175586 0.6359450827190455 -0.49834792689098045 0.07120644494149672 -0.1519108020710997
Ni 7.98963601115694 1.8590591268733807 0.1695541482994439 -1.573807469136406 0.630086110668947 0.30804695507745655
Ni 5.721604179780865 5.076519742891694 5.434770582705084 1.5405777605489983 4.551342133517942 0.523900321438788
Ni 6.757463450481213 8.837350354294578 13.122983681135258 0.7279924334991333 0.20147498615247236 -2.235216301178034
Ni 9.071488144095715 5.559609291610615 1.1314770495342263 -0.2796864016568925 1.055160682787073 -0.25162229643082473
Ni 2.1527817835719993 4.439594268688596 9.08290223210228 -0.35345417956766223 -0.14460809776209935 -0.3816491539446395
Ni 1.5017473197470175 0.4263011004840022 1.7826214901603912 -0.7198224960938313 0.4013782569424507 -0.0027582794714275075
Ni 9.131204607165554 7.194353342976576 5.397130317520625 -0.37814525455643905 3.022893809242626 -0.5977220925159449
Ni 0.6741220722921841 4.650016548285859 12.299517812699536 -0.7325219459383707 -0.7334485715176982 0.8394811229994444
Ni 6.702399852076819 2.326422932995757 3.2696920767990743 -0.04127391904812247 -1.164905135902768 0.1744848307168737
Ni 7.897528090234329 5.94814699049174 11.285813697587981 -0.09096434429471431 0.23786997984173872 0.6503255776442736
Ni 0.8473853527067482 8.826578267614579 4.046506162161932 -1.5213374242621476 1.5904872437849318 -1.9490941711981273
Ni 3.365045723315581 8.882412643599917 3.160746425623511 -0.8898009542999191 -0.46244401390551965 -0.028705852575124757
Ni 9.037564530807654 3.412993728686154 2.626489465174595 -0.9678694164685718 -2.2241854972851693 -2.3838867419349654
P 8.29965779377451 0.9665832856815045 2.457025554250481 1.079676151429934 -1.2672890348883334 -0.057097773454256505
P 4.2954118624193915 8.93217479620368 1.1709953800927366 -1.5286866655383673 0.17952522135425852 0.6712975519102502
P 1.3250324597260874 6.519293177970025 2.709901699022453 1.3440611468430659 1.2678310234347325 -0.18619389162368577
P 6.842305382744453 6.359281632111712 7.91356026391793 -1.5062337358514897 -0.2161819533453438 0.5756342594779699
P 6.161765177131935 2.5037111763390953 1.2301788786645336 -1.2191124751831068 0.6425171373434483 -1.7949776197249605
P 7.81360733117758 6.881361246754398 13.63751249540269 0.38644888932612803 0.1847396756756625 -0.6227348125101986
P 7.237488688329557 0.8534575760883185 7.877337477504278 0.5507981742708965 -0.9535594276038029 1.3791585047668313
P 3.351970703619352 2.1529603783773394 12.28822310122075 -0.6308918943996941 -0.2502806948012657 -0.6976950680671726
