# total energy = -381173.0540708455 ev
CRYSTAL
PRIMVEC
9.14870301068072 0.00000000000000 0.00000000000000
0.00000000000000 9.14870301068072 0.00000000000000
0.00000000000000 0.00000000000000 13.39005162120215
PRIMCOORD
 96 1
Ni 8.219688734399904 7.062551640218529 7.5884364666669635 0.0597336684152068 -1.5468502238212716 0.6139249275280523
Ni 5.968888246904716 2.1698893588597405 7.104814988233489 -0.5334861653550103 -1.270678777296173 0.8607752564915305
Ni 1.5878488790104417 0.8586826182629272 6.6073881170918645 -0.01962908708483716 -1.69655553360062 0.1680485881732267
Ni 3.526568812456286 6.757579628338988 8.27136975720199 -0.03226837311540249 -0.5838455916441687 0.6682572224220298
Ni 2.5826605372602542 2.3613534135954546 8.166820209958642 0.8986404069684201 0.9714725604387979 0.22002909500557588
Ni 2.568955780284236 1.3263972469272407 10.503022924353317 -0.13594399432919815 0.2284887957371549 0.07967488742382407
Ni 6.8475205267577 8.274498613601056 11.727864079633038 -0.07671426213360337 -1.3020302950242608 0.18756428960865115
Ni 0.9164347203235479 6.92365603246826 11.966822710714078 -0.5307348278621181 -1.094608090149418 0.4549376782261455
Ni 3.445383222733201 4.076680319110457 4.082064330779606 0.057824624317952024 -0.20892347201071762 0.1668111162216998
Ni 4.0524179589633285 5.870182891087456 5.902240860993774 -0.7802300506476112 1.157130891273988 -0.09315903795318795
Ni 1.8430793931071998 0.8403239161108745 1.5134644350390067 -0.17259378434174794 0.13475845866152922 0.800232461911467
Ni 8.465194177291385 3.619940474470463 1.4783023102315123 0.22632007022061024 -0.24621886602706627 0.21009435239036722
Ni 0.6171019689246596 3.7474825418954723 8.866383097793609 -0.34521482237700546 -0.27216566779981516 -0.03003357024761279
Ni 8.196835274502646 0.6901863822109867 7.14720733295964 0.5642962087573313 0.9305627095983134 0.7818169355187568
Ni 7.313335884695564 3.6058697693775956 12.78467375296922 0.5940487574294157 -2.35036932690381 -0.27884205137872625
Ni 6.4907302615322555 8.303765314246101 6.59600621578755 0.31496193702973496 -1.722302560657737 1.346144768844972
Ni 6.028693317900863 6.5377728919532725 8.412326567720415 -0.7287984743401964 -0.550844968348432 -1.2239271229629307
Ni 2.0477907696728694 7.795134026636834 10.12200872353301 1.1898674622750605 1.5822226897832943 0.4500497540062249
Ni 6.670483976528782 1.3987085948167228 11.344226030814923 -1.0330659077705628 0.6289887638397103 0.584996160308844
Ni 1.6195033911179328 5.6383364616573886 9.73005541862978 0.43103696034914796 -0.9138595379110198 -0.31941200238128864
Ni 4.375888648149616 2.6071790610891776 11.54597322763411 0.6216845168688131 -0.39382898384028303 -1.0394561275676226
Ni 7.429753129368344 5.853358426415295 12.900430461291085 0.12186180520451916 1.7170461973548041 0.7740100378798284
Ni 2.903295128540958 4.055647451094526 12.672532612041826 0.02501194866330531 -0.04810354037544619 1.0151401765300776
Ni 5.208502952308762 7.068059159377115 12.974036350643923 -1.1088306615067034 0.3643366308081209 -0.8467784279918062
P 1.5649313781927354 3.3397614475074837 1.1839793885522951 0.1837803970861867 -0.6545851242515758 -0.17191398466590394
Ni 3.047295712521278 0.030907977949117753 8.449229690693821 0.5478514329377467 0.025182669913214693 0.538362262500389
P 8.755756982069972 8.38909526639251 12.855828704809454 -0.9538404491793315 0.7828142664350196 0.6530530038777657
Ni 9.150075226678345 0.009187127473509367 2.7705620870784373 -0.1911916019485933 1.0316829113801071 -1.0724246120738434
P 7.956526294870432 3.090752051397169 7.4756521719242075 0.3663564894516271 -0.38172654414979423 -0.1718247673862073
P 2.6101798356473447 2.3668334866452776 4.937514712300461 0.0016113103511778701 -1.0443749050254787 0.5441616427909854
P 5.1400249109432785 9.179442563055526 7.96923658783891 0.4077448225904268 -0.1720299414184779 0.5778212398269598
Ni 0.8013449524446389 8.50448785633811 8.14769942085325 -0.311678895403089 -1.4904962705115752 0.6708339820102704
Ni 8.923397814398777 0.9099986078184554 4.964789740319553 0.6436119130695237 0.48485297772833924 -0.4802802707559922
Ni 4.017945646356095 0.12814222233664238 3.553679163822797 -0.48600868859933716 -0.6779813916883292 -0.5641064613440285
Ni 0.38733229505771305 1.8831415631993103 13.277146601478991 1.902989920640897 1.1766915870147348 -1.075484996166722
Ni 1.1346678798068106 3.550327993942747 11.369198330308738 1.0731144390520162 -1.3832164768862887 -0.9020378626857434
Ni 8.813695717670186 6.883438334426489 10.053987202443299 -1.2766679050000722 1.6726327042364353 -1.40025851997024
Ni 3.7697321873999283 2.1883514413548033 2.3264813026705635 -0.2807037871778133 -1.4379493496527946 -0.401532780242444
Ni 7.531294583091189 6.031886215220376 4.862235525183328 0.5041887019424736 0.4491490965688265 1.8524600302121452
Ni 7.73962884601367 2.4736171471419923 3.767049787703421 -1.7171022474037203 -0.3494057205299015 -1.3319468800780352
Ni 7.633833245432449 1.251286395943859 0.6046130745668747 -1.5030944188915596 -0.39892671007816455 0.12274112248567894
Ni 3.766859494682659 4.266360376776529 1.544207736335542 -0.47951202513140007 0.055455866975459324 0.6750601042764761
Ni 4.4870636860485265 3.752303908334966 6.50054864950733 0.41015368914223554 -1.51272422867184 -1.1235476560019038
Ni 4.857613600467517 1.7695970112437986 9.296217522012528 -1.2870479626828157 -0.7027678546043897 -0.005296215401932813
Ni 8.554897209434143 4.8798175024573665 11.072045714815982 -0.4506632192205077 -0.4159582116391546 -0.10011438622509855
Ni 1.3807771370910922 4.900045284616228 2.7262549188308713 -0.04893966312349636 -0.049650830257908035 -0.3698007392464857
Ni 4.515589341756954 4.547381084408263 8.692098477403398 -0.5333285567312235 -0.46703728970315694 -0.2623006020802773
Ni 6.649405364998244 0.8760313036124749 5.336176761055837 -0.5079072884446414 1.048122287883053 -1.692790153020917
Ni 7.1687589324312055 1.9402935103482977 9.059454579632584 1.7844795484071139 -0.16814886119651687 1.0753777811648964
Ni 0.7183287072670135 2.5431472893434175 3.27102907220079 2.7485401326525567 -0.9491476716893523 -0.7227437835056844
Ni 6.420943955649035 0.8287727638025169 2.65160516247472 -0.8795720774830595 -0.48221168345075016 -0.06735030442020014
Ni 2.9304667762170413 7.999946038934637 6.326210051769886 -0.03165979299712612 -1.191286196999458 -0.11644577639527043
Ni 7.661398287334146 5.600716995245249 2.4830778208328472 1.033132242232124 1.1451210112973054 -0.1648881881673741
Ni 5.959318703649099 3.5973340295520786 10.22448243008353 1.4572984436033676 1.8525631314489128 0.895420871589858
Ni 0.08357797553698947 7.919931483185471 5.818178004201958 -0.19693313241806082 -0.48818821274915924 0.00372938513544519
Ni 0.9180631894435286 5.060870333268709 -0.21000573094619146 -1.536315899948851 -0.7337028536203493 1.717339303115191
P 6.040165791364098 5.432893188858019 6.490560095657919 0.4479849010573962 0.2672548607617591 0.07155894318490902
Ni 5.4355554614081 5.663596030422933 3.9656909998808474 0.4604503805142587 -1.0665925787730988 -1.0264234627533806
P 6.565987491762376 5.784752303208915 10.819107865671286 -0.7992171332730752 0.6403229579056069 -0.2564287166805326
Ni 0.7871983131175252 2.772816327478231 6.217402698186992 -0.47444540924177 1.4677057549796206 0.06438839357839879
P 8.462129361812769 2.5752683852998923 10.896047542368624 -0.7594650501861179 -0.6469600036061502 -0.03979656317164759
P 5.336173101574668 7.799324132574762 2.501689942055818 0.5555210336678625 -0.11712840428459183 0.25291581843126765
P 1.8835532548307663 7.8653869163690375 2.5908010531195735 2.464314448364414 1.3048276552637397 -0.7647378685492829
Ni 4.34515815503717 0.07124643886944985 11.83355172551979 -0.6811186517657302 -0.916645328186273 -2.6423653991659912
Ni 6.8753142862324275 3.570144084470153 5.554916758680936 0.07196440615344381 1.5077373169802097 -0.18285274306559476
Ni 3.2716402055559293 6.287574164463196 3.51046983992578 -0.3408822564399226 2.093717438468878 -0.5902880048354028
Ni 5.201238882189297 4.507730605947608 12.613066957924056 0.9669417624479799 1.5868290782070542 0.2983148153913572
Ni 5.043414608094983 7.830731629703379 9.903991473438689 -1.067679126969058 0.704012268534452 1.2866083040422358
Ni 7.619186172055543 5.024037655307796 8.759543630209073 0.1313211508452061 -1.3435998909359312 0.8686392326206395
Ni 3.191707988133054 1.6209305887736463 13.12994946069799 -1.5913274802980402 0.5466111327727425 1.2826274650176168
Ni 1.5717197157602956 9.16059623503777 12.231316286518592 0.3584891708884084 0.12814326733785672 0.5789610098583577
Ni 7.124396871966112 8.09040841341986 1.082942943230703 0.0030372441644270273 -0.7202302730552111 0.261510244968498
Ni 5.232024267519271 0.5239517055211765 0.32326118388939185 2.819278893929016 1.513318667722729 1.9341282939169142
Ni 3.3920005411877647 8.480984838533445 0.5987432667726069 -1.0568336996141219 -0.9996963311711814 0.7099566590433449
Ni 3.8208734367296606 5.350783580139889 10.903023428346069 0.42610841269927907 1.3674196190633483 -0.38198262602465827
Ni 5.176235477105548 7.736106595388993 4.94663322450206 -0.7175324145080739 0.6709872197586831 -0.9611076722647062
Ni 5.552786940640872 5.708250849381505 1.3657988806684378 0.3935903854669157 0.7036888237567623 1.0143698740229563
Ni -0.022221284525400217 4.249892711518297 4.597782203671667 -0.251282910813535 0.917637259785897 -1.3506624542096675
Ni 0.45113900871161045 7.1318439161440015 1.298950223293228 -1.373802125550924 -0.6297996897767798 -2.386193278580955
Ni 1.751628958706483 8.7589132845778 4.562298959391637 1.1253463997735393 0.7557572623172274 -1.7110817522412531
Ni 1.6498130438960013 5.944250789937817 5.216790762285113 -0.2200589198022468 -0.1657885884944564 0.6602662337967532
Ni 2.8231250448421306 6.209078293398955 1.0800574423293439 -0.6421921499038618 1.0405971831506013 -1.1398728755244885
Ni 5.059159525822438 2.180575043871749 4.279821778254842 0.22422693513700737 1.2281013089452786 0.5271769353075307
Ni 7.133225370285109 8.636759803173401 9.010125688351549 -0.10751402112327937 0.44005176225324855 0.3151144034471992
Ni 0.3186575565794238 6.903748454911642 3.595604009829672 -1.237791539649849 -0.8146280685115067 0.8974736403538286
Ni 3.8629574701673652 1.0030088960672434 6.356444685184 1.3579286488537774 0.8510161202222375 -1.1497263712798005
Ni 7.4797233447241585 8.275523268328234 3.9809025482279936 -1.2421601010311898 -1.1040520091711374 0.06272720382589196
Ni 8.981967810500556 4.827843721161801 6.815656509353312 0.4385834052378382 1.8166059966280133 -0.239950002299219
P 4.996582397841155 2.821862523838999 0.4803883268211073 0.6056020094846538 -1.2822993922542367 -0.17287506302759256
Ni 0.5750966143320776 1.4430432091730527 9.092273721621948 0.06548188375289367 0.2968726836281919 -0.35635104149948305
P 6.340856210276499 3.977636461285111 2.8564995130988144 -0.3001469835040895 -0.6508112590314404 0.40759312750391097
Ni 2.444039390597623 4.489177036423333 7.056985569361245 -1.4172090317816497 0.49609358363916495 0.570505680002153
P 1.5243385833311927 6.499147068219796 7.392392571248876 -0.6201081735206287 0.056102499420522735 0.05115029762156997
P 2.901346454818734 3.5413165215653253 10.040262318320854 0.19504851380083826 -0.1594598180629512 -0.5449918520017646
P 3.060771751924265 7.14755223905977 12.128199426152708 0.8563182491614413 0.48185352878038307 0.23397141611828093
Ni 8.678130237783249 0.21941151241951845 10.69092538904179 0.9327646023456387 -0.3521472878307806 0.8675591121825832
