# total energy = -381166.27708304086 ev
CRYSTAL
PRIMVEC
9.21497795974161 0.00000000000000 0.00000000000000

0.00000000000000 9.21497795974161 0.00000000000000

0.00000000000000 0.00000000000000 13.48705170833382

PRIMCOORD
 96 1
Ni 3.0921596324098473 8.418988322025653 6.1979611184480365 0.7181633632238535 -1.502709010527683 0.9547205377914396
Ni 0.0807702048350376 0.33743683377381406 13.14121676733738 -0.06833966491666295 0.5212096619805023 1.9727478060613253
Ni 7.748801392356555 1.8443963033099962 5.666180395845694 0.25019276307314975 -0.09065169815030194 -0.9833947657976805
Ni 1.742395710353951 2.565717146640048 7.627817944446183 -0.3776323194757626 -1.063438606525149 -0.25792407027913644
Ni 9.009447260886576 3.9349338875350632 4.781213520342137 -1.196962421448629 0.43912745066676623 1.7971008367155503
Ni 4.6526793193494465 0.67103747215079 10.250914916925845 0.16602435865434634 -0.049277506078889324 -2.232914906738367
Ni 1.382477094428645 4.775690062449115 7.305734185740041 -0.30133689004713266 0.8253649953130366 -0.6428508665337832
Ni 0.29066160476984937 0.8703040022980582 10.93581448068236 -0.4431340007229982 0.7425024541898503 -0.6560997611238895
Ni 7.321290911824456 8.236310595513716 0.2194316667960814 1.348940072201922 -3.21245558889728 0.2902775469091775
Ni 4.27464405641433 7.927433743468032 2.904005444393367 -0.04545196168521204 -0.9967511324999285 0.45881927266873884
Ni 6.051863169133527 5.954156755987538 2.828302556033759 0.6034224853348318 0.09997194710996331 -0.048728061333322525
Ni 6.756274527589213 2.6287383820927896 0.5025305390120391 -0.048957146624993106 1.3041514551323217 -0.4067397783646801
Ni 0.6572629228373292 3.5298250188446976 10.47246695019037 1.1881031712857861 0.09844111228773368 0.0641690784787411
Ni 3.3829198374457214 1.0993929661777004 5.0711858447476255 -1.8129267480042135 2.2104048985613094 0.8782227625440167
Ni 2.976953975788971 8.06233180835949 10.095907926752188 1.100066027940196 -0.508718214381711 -0.11603954209578726
Ni 8.575569230464458 7.97102059003792 6.224516842432203 -1.6264711180787084 -0.2762475511786726 0.04608059640814644
Ni 3.5811340170901813 3.9934121387681523 11.774465954590797 -1.020675761636326 0.34336697053498927 -1.1613230749784644
Ni 5.226357783029868 3.026963662117678 5.968263044513792 3.099581331903352 -0.5829732163415444 -0.0385205246727014
Ni 3.2465842359654893 3.736701277934337 5.722205619899733 -3.479061760331447 -0.5425727010373107 0.7776818303044607
Ni 5.096435806330321 0.673986265153404 3.880845651884616 0.9142945685659092 0.2827298164689066 -1.3866267881194183
Ni 6.3407619485865 8.552006531377945 8.074320494910742 2.513688370811851 -0.36951611812653135 -0.9496035282798484
Ni 8.772143144001214 4.724731233372693 0.5338577786735597 0.5659733393494382 -0.2682776455993186 -1.0744205594579497
Ni 2.602070235375399 8.304353994049034 1.4527984355584826 0.1741161345235453 -1.6892744265581745 -0.14202285353342636
Ni 4.396410777466023 1.6142614394122392 12.188653419737962 1.9428119377338409 -0.11754338033482337 1.4362812179217523
P 3.707508227208458 8.761619638973135 13.30722920589548 1.2320764915429427 0.03668809944965295 -2.316160028011953
Ni 5.714263230246755 8.458778597604677 11.875349692197103 -0.610770955280103 0.2316970182618074 1.5491099663897256
P 8.090299266993657 6.582074580959791 1.7432149219099897 -1.3538151409060362 1.0588113921657831 -0.8721061081233175
Ni 2.122670212975427 4.929285317972773 4.009093267057366 -0.3079124863821213 0.20994291441416743 0.24356574467493533
P 6.612917112771506 3.9238206239064617 4.151745736047885 1.4576501705158316 -0.11408293259004869 1.1237479449381678
P 4.401902904433391 8.870955354523183 8.24126272476248 -2.648077104838788 0.16438965126440075 -0.21193757624669304
P 7.158858492271091 0.41729199128022804 4.270500080747844 -1.5099415237203804 -2.407078092449764 0.3836003641337394
Ni 6.65093811254896 8.221446835784914 2.5097241750094748 -1.6231559376625464 -1.1815622848434746 0.7804413953274688
Ni 7.140133656704491 1.0574095258029834 12.48184822199662 0.8580925674530447 0.23718375240799153 -1.6603037503574374
Ni 0.7214526175173562 7.139820347447964 13.384981505391904 -0.9476628596137097 -0.8267045400600666 1.3030155417556655
Ni 2.6090736187566073 1.4872329658465078 0.20938549763530082 0.044605811634832855 -0.7487859732057168 -1.6262872842026765
Ni 5.562861139518792 5.005714346609275 9.525446411938056 -0.9738935111754646 -0.45599928672144047 -0.21810102474492762
Ni 2.3223219292086617 0.32904659618356386 8.589539137314341 -0.14159707884991743 0.3827382732437602 0.002667776640150244
Ni 0.6766337283710633 8.035894036095428 9.875178791034955 -0.6308767248910425 -0.5630793056310949 -0.47588574123272237
Ni 5.712493954445186 7.552411778382462 4.9268203113221505 0.2127461881909175 0.6404502275120905 0.1058687722103725
Ni 0.4922208214766499 8.461718175629157 1.9087417311204737 -2.49039957548724 -0.007826438022954263 0.08343461157657243
Ni 5.654070993080896 0.39862705307149465 0.5958008616847201 -3.684430939332003 0.7576215692194758 0.92256220789134
Ni 5.850202587667261 0.6621201378113225 6.301838802449809 -0.6591249211034584 -0.4738509701908807 -0.9528585448820363
Ni 4.2922538796268155 6.443149570624139 11.326345253966053 -0.0035962019916905806 -2.3251246934044087 2.690268907715489
Ni 8.514814879632477 3.045882012225073 7.299691924578122 0.7467473455091334 1.9126865791033703 1.776746184318598
Ni 5.674648039252262 3.535252640965134 2.3463960595815645 0.869993946876321 -0.009046940693616678 -1.3109121708949232
Ni 7.836712283746985 4.66144276355409 9.233209045907435 1.0504830748057454 -1.121778222806307 0.33923520775480287
Ni 2.3361443964084145 3.4482632473880206 1.3017971963793125 -0.08296024304331517 1.188275178087276 1.0595539267587621
Ni 2.365466456828157 1.7246660924257342 11.253326688736639 0.3775888678323368 1.0316098920503265 -1.0974872114694258
Ni 1.7706027584195807 8.655684250354227 12.010893727055695 1.93177624874497 0.9202821536079118 0.3891135806424847
Ni 4.910698707078172 6.8075190209877645 0.3816429268742513 -0.35177807741682 2.3359053289596803 0.28171577338209547
Ni 7.537160989572068 0.7708319993417545 1.6947422939338954 1.9714164888444112 1.4472256327483977 -0.3672754017214707
Ni 5.817646069922775 6.021647255834866 7.161584282802881 0.349148867324089 -0.19979322757467527 0.01595832310146929
Ni 4.051733735372978 1.7472612188082641 7.580519304684254 0.06081173197073398 -1.2179840180056183 -0.12879555620987496
Ni 6.221759720974759 2.569476857718381 10.678413417986372 -0.3846084936832796 0.06499234571098485 0.3884615488807826
Ni 1.1094925822116533 7.273594185007175 7.625093996910017 0.5606560409015828 -0.3309290018819527 0.2364813270243282
Ni 0.03744967113319789 5.115077707093722 2.7011330933025897 -0.1164041245240576 0.7240054238269272 2.0808279841007193
P 8.671322068246214 2.200638142960168 9.538272740001613 -2.0553424382351055 -0.45820555034413996 -1.6299372222504378
Ni 6.751519598872498 6.226726594188537 11.138187379958321 0.869418019768193 -0.9156140587082812 2.223750723740596
P 3.28349022338883 6.563736774474784 4.314481328381832 1.3927380432234786 2.4351915628565286 0.668871458967261
Ni 5.355210822265967 7.540929915628534 9.924972846875345 0.3203473697113644 1.286734802317771 -3.9054751058656545
P 5.641584697710452 4.419475867733344 11.76127563489098 1.4105146504806096 0.010051727809047206 0.9358157304671368
P 0.8677247299185842 2.1792133188005502 5.398192244772506 0.6486790431797861 -0.6001726109389663 0.3079963043451792
P 4.118625261641649 1.6216610668531737 2.1023889676021357 -0.18675104967873643 0.6853799981452454 -0.2881404459615167
Ni 3.063160096224765 5.547877585074259 0.10745493851306774 -0.37209801992109465 -0.5432062208562516 -1.6553034689293686
Ni 6.4571931972990875 5.2223953424326055 0.6019113136848244 0.41128111787845945 -1.0646061444706891 -0.9199527952929512
Ni 1.9026994699585549 1.1341150037834804 2.291841546037579 0.1151558539392533 0.7210386278891195 1.0395080638514809
Ni 3.9403891545898992 3.3100754353030224 3.6567982025416303 -1.4064237682406875 -1.9826779206908434 -0.5174633075641928
Ni 4.473272910074783 3.417476005445104 0.25102614082346386 0.7820825304753176 -0.02256271579186437 1.4096870123729914
Ni 8.106895442611494 2.8290535767516123 2.4497208448953463 0.31322901349902826 2.2839739301977118 0.4985001361981286
Ni 1.1798212953239975 3.1832128313436874 3.2247806762045985 0.12929640710569346 -3.257308997766545 -0.14931964430515576
Ni 1.3460226409338294 3.583889295551999 12.699826686741101 -0.8719688112145046 -0.10822698802990392 0.3209580067121698
Ni 1.2157965699558884 6.838490562493345 5.157610360165176 -0.15063013558646315 -0.37583023327001724 0.7958250768723907
Ni 6.497978690516492 2.0310456853973293 8.428814253209051 -0.08451318935273187 -1.8780062541123654 -0.19245632759362982
Ni 7.942942551666155 3.508123745341085 12.01376695723762 0.09458497176643711 0.48652548033475573 0.28960417499123675
Ni 2.10587130783866 6.540644039273063 11.627875003946162 -0.6334619691197154 -2.027916995034301 -1.0857992336085363
Ni 8.48633138222285 7.6591304401426905 3.774108560168122 0.7306658665662384 0.6698024554219626 0.21164755581009997
Ni 3.6611200272860867 3.941080277949887 7.9804235537250054 1.3256823872255619 0.6171462626788274 -0.06865333950233983
Ni 1.102535273721111 0.37884986700208784 6.703320655746959 0.4288134703352679 0.2765995352014527 -2.4561542811511248
Ni 1.6688141099605984 8.828750754673269 4.058955513735942 0.5453582342022478 -0.40869998741484453 0.40356009508511786
Ni 3.3628496150716796 5.900921827312222 9.09373943036411 -0.8782176203376939 0.6660280759811948 0.3914648544834807
Ni 8.953890157721702 0.971986678508509 3.5489156890431834 2.5425454042528597 0.1191858010342528 0.8290303599797657
Ni 4.975111404229021 5.1787163460813845 4.834770973252114 0.049551071455250145 0.6226211697504695 0.553848531061446
Ni 3.373345475165359 5.910698919111513 6.572226533828873 -0.0754168834784185 1.1861079952326283 -0.26189051112605216
Ni 9.15471217617785 5.779846229620516 11.63255529134 -0.9919333993963111 -0.682813780079966 -0.5366920738868177
Ni 3.807324870346942 5.246179200994313 2.2970065412812204 0.2561389533542557 0.9865651931058623 0.006709036589059413
Ni 7.600311234718673 6.96904837268408 9.173798238887267 1.5441217691465148 0.5972996602665455 -0.3994622708666604
Ni 0.9159227515463101 5.506474688321932 9.450525875221953 0.25406330177214953 1.6421129383810236 0.08780394428886168
Ni 8.545436251968995 0.6554632376079215 7.955579972677983 -0.607559904541973 -0.4295284941244215 0.8939993086519831
P 0.01927220526770917 2.186142982356693 0.6586470125529312 0.45684517966150356 1.4129296876800053 0.1420627056324263
Ni 8.199386178134109 8.145635210683334 11.627133198206442 0.80392148072728 -1.8701103963040566 0.0952442026169908
P 8.731615670171538 5.629651301027999 6.6397299346455885 0.3289536233231367 0.7379408029610968 0.325413214270046
Ni 7.633273211501018 5.837209468499492 4.804142228933088 -1.065951859865306 -0.2599295307449394 0.5699073842965218
P 2.985533120430951 3.4197521050439965 9.843511518680321 -1.5682310034898925 -0.4595564079450795 -0.08783942551248744
P 1.6416759993584165 5.8894676094926925 1.5484886114889338 0.10142436328577371 0.10508792818028997 0.32650696155485703
P 6.346521309919731 3.917056829956716 7.736307725003605 -0.7680242526100386 1.9242372600554474 -0.7666957636066022
Ni 7.388117933246196 0.26951322995422705 10.12955826240108 -1.5061046664727933 0.9146684069655602 -1.5036382072101717
