# total energy = -340892.68935359834 ev
CRYSTAL
PRIMVEC
9.04775139214879 0.00000000000000 0.00000000000000
0.00000000000000 9.04775139214879 0.00000000000000
0.00000000000000 0.00000000000000 13.24229872313995
PRIMCOORD
 96 1
Ni 6.393349135786397 1.979847025345978 11.367957492895611 -0.27843735974113987 0.5833606815879502 1.2634974290563854
Ni 4.592611394304696 -0.01116673460018648 6.045744485056285 -0.10889238952804473 1.0818042535165304 -0.6145412209558125
Ni 3.01863744255276 1.5895541794148127 4.7643802375749615 -0.5459231055667824 0.046015547498165915 1.4576416858753993
Ni 3.4250171902171385 4.29076031690118 4.752382919409472 -1.1210117769539274 0.7445775915513241 -0.29037859126341603
Ni 5.332907449823947 4.586757499242049 2.7360571705494507 -1.4442069005267322 0.07485818276147108 0.14327138122854682
Ni 7.431768595191682 6.272552608767203 2.5365090165978117 -0.7389695013359274 -1.0160812002871082 0.2819571999689402
Ni 4.98270518970823 4.438338187638209 11.79549812119758 1.2831239450380612 0.3243711461587769 -1.4315599011866829
Ni 5.6870454817360345 7.777989844754748 12.36446686370786 -0.6024819757984333 1.1644657343725042 0.25237640098802994
Ni 1.952378052532685 6.643039927198928 0.3383913256261015 -0.5472873329041607 0.4840636490578244 -0.5915303618829361
Ni 2.8709871898056822 1.6693734409954684 0.2492519754766142 -0.43518234997608923 0.29394034047274537 1.3341554576935797
Ni 0.4091049303426932 8.955120378666157 4.670029382702003 0.16990980975168157 0.48819901138243665 0.33084492680857863
Ni 8.698553296299046 2.5512758514227705 1.5380399028635068 0.3965006171351752 0.21826917489167572 -0.8491849805507699
Ni 6.7063379949860815 0.6212267442148306 4.921632868730058 0.8786765622519834 0.1292179884592742 -0.5241623168509231
Ni 0.731963981387576 7.430149047716854 2.6048394436335665 0.36119062897997145 0.5503562016374716 -0.5017772642875036
Ni 7.664087704192645 3.6471394835525603 4.058155298960526 -0.1932392285062414 -0.4127512746660827 -1.5305977665181512
Ni 7.499391488079216 3.763991191024128 12.664934539944332 0.4860652528688855 0.618171104398916 -0.1274927782380514
Ni 7.897257301811674 9.005362541390866 7.098997732645824 -0.033179314965446086 -0.8684775102317946 -0.38023530431624836
Ni 6.9934955243498145 0.7889032895919947 0.30295580783187825 -0.6305391390459656 -0.8296453678559454 0.10455133895052962
Ni 1.8416245294076787 6.405029782657927 9.141092381858131 0.49719812955725345 -0.26831801191895077 -0.5969589890976752
Ni 0.1902000173539136 5.139222238686212 1.230539409575727 -1.5109247135692558 -0.7586145292603644 -0.7270688932435995
Ni 6.134384399336439 1.8718168753490354 7.004964453841952 -1.092758438535189 -0.8794352947948789 1.4945925520681356
Ni 3.5507809326758903 4.4667209833283605 0.4422359858920068 -0.11721145091670136 -0.7339039138875618 0.662583311965704
Ni 6.1844908457923085 5.56690944055853 4.739775782809326 -0.5571912222814339 -0.07000445421359557 0.5653174509329941
Ni 5.262443563042021 3.025821357050044 9.500885258305235 -0.9523204129903792 -0.6314788772514157 -1.146762146445154
P 0.2981966906712089 5.617839232378697 12.259905621542476 -0.49293575473647366 0.09144925435093282 1.1422321197852845
P 4.08238155772366 6.253986623189839 12.604165318633237 -0.41175342952918764 0.9159071644686677 -0.14392418432119727
P 2.3898277780102544 8.725280353509346 1.4440726726438042 -0.8950655451329681 -0.19861797631965147 -0.25816266865250376
P 6.399908755447015 7.593144286594151 5.9165136443162245 -0.20286081075640547 0.30527607720053873 -0.2968937666741145
P 4.887423321231027 1.0555106615279166 12.729701962535463 -0.19518143983427677 0.23721460564592695 -0.4260101965585179
P 4.037007085174692 6.3280696104741745 8.253779416179725 -0.7940155344674777 -1.192255502891263 -1.240448774767038
P 4.898009190200576 1.1537149536608158 3.7627462204512985 -0.7465416572562303 -1.042455576515579 0.7381966277256448
P 0.16641257452669736 5.552912569365459 3.5409903610417457 1.208696936276738 -1.2007167462847383 0.5717958595684861
Ni 1.6120921277935718 1.2446991402914067 2.928746224273897 -0.0010410396700046589 -0.8466277613465547 -2.341834292849606
Ni 1.9504237382613836 6.374602195183913 4.883203450045217 -0.5190561059726092 0.0482619203301814 -1.8691284920067615
Ni 5.922151298123853 5.682476367351742 9.209356760309715 0.7952128972096886 -0.11480464124742162 0.17443880797028666
Ni 8.604411444480103 2.3786990439653435 10.266488778862712 1.1707939905833773 1.228077911906511 0.25063730680973606
Ni 2.3862448685128683 5.143972308095626 6.8675888274212165 -0.4612240254554896 -0.13409819936971099 1.400180358434137
Ni 0.8237805611337212 -0.3034760535290997 8.795945100369154 -1.299855655970445 -0.17163656263480118 -0.036159223529376436
Ni 1.5048762754096716 1.1753571746652285 11.32955431268941 -0.4097993911266104 -0.02816772068346762 0.7968080096109502
Ni 3.9429828541220773 7.069433300641635 1.6700393554879118 0.6629301537821615 -1.15884684552383 -0.6341273706178562
Ni 5.680712055856817 8.019329561757967 7.996136556188272 -0.01868343534211621 0.055312656529375705 0.8715021559907313
Ni 5.136752202593317 2.9500464402808317 5.0082904207100185 0.6590408460300844 -0.7560706797925882 -0.5716089403686607
Ni 0.7094947959183627 7.266520466251635 6.712176508871595 -0.11149126060347252 0.4666400542647383 0.9963032463292325
Ni 5.054254806640878 4.638438254416465 7.176134335979068 -0.3168385852271576 -0.6322597212814982 -0.4691353098827662
Ni 8.115425727848212 7.050433023003982 9.037722728533167 0.13890847627416078 0.7090074077561983 -0.4075831002015819
Ni 4.727241932994354 0.4448616433065054 10.445564586047341 -0.4452705874500267 -0.6151641992517921 0.8549416805288889
Ni 8.260578801248627 6.959593600393487 4.876277396458729 -0.5203737963427684 0.5632893647593719 -0.24069330822314677
Ni 7.2301032674461325 5.7942794296224465 6.963528467414733 -0.21883918846253278 0.27564205638418976 0.6877970922271703
Ni 2.1955816062946463 5.2506181521503965 2.3011272437966843 1.1955002350808057 0.056446770133818915 2.1288039977593662
Ni 2.417124843549683 5.319797258253965 11.48357599187098 -0.48314602233956144 -0.0907440007537921 0.12131261756926848
Ni 1.0665760613140358 3.3392173650562498 3.684351979693467 -0.029956180042458088 1.2847190574393228 0.4170869259269591
Ni 3.6993088172948023 2.7408533834902697 2.6905306957793824 -0.12126890881552664 0.3893110413652715 -0.8196203795197756
Ni 1.0893040124691713 3.380963689351551 8.454505587344897 0.0607381984203212 0.4064615850026291 -0.9357715074927626
Ni 3.429586304601431 2.892077497983477 7.345794148431552 0.03265378147927925 -0.7690881750981787 -0.19451732388771661
Ni 4.172433825974879 6.659407309221079 5.848514364976439 0.32138815227105294 0.1594050535656158 0.6201732224306093
Ni 0.7592673803528837 7.342331574025872 11.095708848051556 0.6159108476098296 -0.8696401630813281 0.6780981197718514
P 0.1603867721901845 5.516902519366479 7.9319780472566705 0.7210339999034292 -0.8615309037106323 0.027127966565043602
P 8.86460667510088 1.5357019639389498 8.228817575239477 -1.3436387145936666 0.6794582333441718 0.1544410246921211
P 1.8132507814687833 3.3536304328070985 10.516463669664683 -0.45556117074275737 -0.8188559905499252 -0.003994722981689894
P 3.9848467991837064 6.166531059549098 3.7022819083575325 -0.19476620667372907 -0.5166919766158068 -0.14174260328884622
P 6.769391773489322 4.12606410078775 10.465295921986483 1.1060294446124823 0.08718739375078532 1.0448261336302844
P 6.572802234198404 7.954113370704537 10.20364128908811 -1.8581118291812837 0.0021797812601381814 -0.1034701900712089
P 2.350786731340505 8.437326622035082 5.6555077351829075 0.057833366068700404 0.5911956042513367 0.575620375520899
P 7.081566335075966 4.041820488842898 1.8159298206156924 0.6806339988198279 0.10271068619736504 -1.3784463091911552
Ni 5.512604837519866 2.940799638497174 0.600895542367416 -0.7567885317952193 -0.17013426705766183 -0.18059788559314702
Ni 1.38935458737274 1.1268159891766525 6.876513529260161 1.2043921382537968 0.3084678446649591 -0.7754254301701161
Ni 6.97925436387283 0.9574149424100898 9.383545877040968 -0.9120628510219131 -0.7077005160193167 -2.2447980313291986
Ni 2.570954710404626 1.3653237600367367 9.259438777837193 0.00913590086299717 0.8451046398338089 -0.6273075194825455
Ni 6.495063955406634 1.7123140684565645 2.502768142613842 0.3098660105640663 1.6519021565573033 0.43370165166550473
Ni 4.29583610535581 7.048333944712584 10.257868081465972 -0.8429135457197612 0.4800146757994314 1.3381154707825924
Ni 8.016597140878648 7.250270704995813 0.30462602271374056 0.4749742851620465 0.015051495016483753 -0.13553441759560528
Ni 7.477812601333595 3.5185709382044403 8.401417002075044 0.3803255500372095 0.3972035567394708 -1.0799944540013011
Ni 3.1500017430389917 8.58438877095052 12.550242530697577 0.5582080935817225 -1.0385919797951146 -0.9733592359385494
Ni -0.20108536689003767 4.9532638071211235 10.112931249320576 0.7885210870118097 -0.5462946299735881 0.3312920416483262
Ni 8.327423587528143 2.1020821448148803 5.931570007181375 1.399558408579422 0.5700958461582439 -0.048820363936812695
Ni 3.630564003251522 2.6368947215585385 11.451688097344245 -0.03955822190859639 -0.4630811332688864 -0.5402342827121213
Ni 0.9283535653757365 3.4653249220627313 12.676759950835956 0.2400145369885673 -0.31839924484605814 -1.1563479903613763
Ni 3.066527189950902 8.240239456425082 7.755907903039292 -0.029467927552129895 0.286149640783733 0.5301897539919257
Ni 5.553165906400628 7.8996006693869845 3.7732343737072833 -0.5234519210474597 -0.5282601410693806 -0.511141736221539
Ni 3.0233965597134294 8.339565669713728 3.583909273899827 0.3983520685216172 -0.016269683694301013 0.18945173643935115
Ni 3.3930062462733206 4.471172476946324 9.489656094221381 0.464474156961671 0.18814870135721146 -1.0092603207105328
Ni 7.276753472922199 6.26334199798857 11.434327272234183 0.27595804496271187 -0.9484413896509473 -0.31925490797813405
Ni 0.5829719471292298 -0.07537591093882155 0.0041438700752596085 0.43648384239633214 0.21101840686653336 0.8255783968754234
Ni 4.6094944981484405 0.321233170144175 1.6960606881002407 -0.12744392727798695 0.804397391922434 -0.5541768609351424
Ni 6.039835398710975 5.62987274154921 0.3658105358074863 -0.13203643174467583 0.4141070173630288 1.0657914230280419
Ni 8.293965003383361 8.908877321996613 11.080586436602236 -0.7904545565890967 0.8779934201420299 0.4553413414224674
Ni 0.007408298728433552 4.777176472176358 5.800285326906196 0.8382194826782016 -0.9979091573637716 -0.20188456288606518
Ni 7.649701779695565 -0.36828690532626046 2.4357623063619696 1.5937399463942745 -0.14189789791978788 1.0292758446005112
P 8.533359453866536 1.3673504563180863 3.307555664310915 -0.13988523836513328 0.7668605713192406 2.1866697597278986
P 1.8624705483015613 3.255625191201832 1.3723918633179435 0.07124732548176117 0.1293758541933772 1.613001622837364
P 4.509761136053273 1.1892907115995075 8.467933354983964 1.1390074422003997 -0.24024773604529595 -2.509408255379259
P 8.41418247432217 1.6814612366735182 12.281821084634823 1.476687903873573 0.13158623158113467 1.321843473095446
P 6.124712353243749 7.749453237293244 1.4279966282120984 -0.6150258739017149 -0.9315821520017634 -0.8837848300128264
P 1.6774892738721232 3.1802936142441647 5.868311749499749 0.5044779510481183 -0.14513054592447264 0.10122741678361921
P 6.809907603613804 3.6678588339288587 6.075288107232584 0.70903851810445 1.9166059687624346 0.5445930739014492
P 2.3801466841663075 8.395716014008622 10.131483663271055 1.593468952121075 0.23001757367685546 1.4676689882044143
