# total energy = -381167.5892820945 ev
CRYSTAL
PRIMVEC
9.23403829133483 0.00000000000000 0.00000000000000
0.00000000000000 9.23403829133483 0.00000000000000
0.00000000000000 0.00000000000000 13.51494843026201
PRIMCOORD
 96 1
Ni 7.17004585563695 9.299230346406537 6.347754768365584 -0.7482696956909306 0.552710303691945 1.14241106856531
Ni 2.958096383314097 5.6281646521512885 8.404959932630057 -2.220960819700285 -0.10270451554977797 2.513302191117026
Ni 4.481961978587896 5.735935110091144 6.959468235202589 2.1242307765663866 0.8166394425145806 -1.6433856344458602
Ni 8.690956558738634 4.894077096217554 11.018926803368235 0.003914504563057774 -1.2253728542705218 0.297008694985424
Ni -0.0105231097479444 3.6938183639805326 5.20853949138544 0.6470559057540662 0.20300196431996007 -0.6756859107859331
Ni 7.121133156150409 5.915675660498074 1.8482905940807302 0.16772720027806598 3.4223236842094544 -2.0674237948796717
Ni 6.34604647132858 1.4000186771100303 12.813198274927489 0.38030369566033856 -1.1591034416193262 0.4965247576393127
Ni 6.620371273357303 3.093938316889045 3.965771865041133 -0.8918601508217929 0.26804290388069324 0.24643201047913685
Ni 2.931437715498798 7.244204415118998 13.410517723271079 -0.5874999005673043 -1.80504246016013 -1.0196177526854568
Ni 0.6820158920344426 7.973065505523304 0.32164185974232096 -0.5116518430887381 0.4744562078750474 -0.12289590289598834
Ni 5.99070221955568 1.2820353731003025 8.156528296663296 0.4899756436668852 1.1205762320784056 0.3888045340424981
Ni 7.941171138140539 6.60589230171394 12.549453833682545 -0.11723741905863035 0.347813179231801 -0.21901299503623572
Ni 8.899211818606474 1.0033613391557483 7.758756410317845 -0.7642948674745934 0.11139561556587266 -0.07846235517296164
Ni 8.028792925081785 9.136508128103381 11.944375946579546 1.8694367672757997 -0.17477176582967321 0.8410770067316548
Ni 5.047759191281646 3.5705808923272637 6.1458146671118365 0.6827734137603337 -0.5545195889865417 -1.1804541393809604
Ni 3.3726308189096743 3.023935074524034 1.8505612440342396 0.6573557450181775 -0.2857711743983917 1.7495259151500642
Ni 6.715158673815928 1.6164368266033375 1.9326915485543714 0.929303897490548 -1.6264636618795405 -0.8384927909442462
Ni 7.525150022420866 4.395392871982965 6.655408907288156 -0.04241600307236566 1.2181981908989534 -2.560765783915629
Ni 3.4780281290738 1.8100376681050945 11.402156003207862 -0.5789298995101062 1.7720356662168064 0.7734204839249454
Ni 8.755382442128777 0.2011201186759858 2.046825182106115 -1.512550164987821 0.4903993614678651 -1.252655601245875
Ni 7.222772212833127 6.036641558794031 8.04774578815449 -0.2765997923117688 0.8919961621790251 1.4848611837129846
Ni 0.9054472934175039 5.071444498848755 3.2677256829729666 0.4905140326688585 -0.09674341287033661 0.128037852108244
Ni 5.511086283869271 5.579344293045126 4.687335295184119 1.0893715243408273 1.1961682076821076 1.8883541730055928
Ni 0.47400533417460616 7.3693440986080665 8.281879439623431 0.25270473086172607 -1.6372592098331482 0.0535589070630626
P 0.7816271539640454 0.9779677345516353 12.493001542138092 -1.7147417175913435 -0.91742720065762 -0.9959780017793299
Ni 4.132056575219295 9.005477128346158 12.17780596435 2.436472229341165 -0.7738259468934802 1.1989575975017868
P 1.1875157597447752 3.727208645525432 0.9258831429990901 -0.06794962856709588 0.19910237215523774 1.351267691893834
Ni 5.255312664258607 8.12568568621304 4.85643454015622 0.3073905524403803 -0.5460837995143627 0.9656826932298983
P 6.401293720909091 8.297346453336846 2.5950860331621666 -0.13997008476945574 -0.5265742687265254 -0.6472482242705304
P 4.890420417154561 2.950293621172106 12.74931258276256 1.334738326780243 0.4252990294241063 -0.9930981091283736
P 0.21114274356227825 1.5615220023921885 5.525397196020346 0.4381028660569939 -0.24502407438801674 1.2854636489148312
Ni 1.5544394952171503 7.369842736662111 4.06232296676499 1.2153427237280294 0.5454340817455058 -0.8919496252118058
Ni 4.905277984357477 5.416363521676911 0.9802679334268661 -1.3078317321973862 1.0652340078626752 0.37651851758629346
Ni 4.876301572994675 7.792974061670936 0.7880161848824403 1.7019543360186882 1.1931067951479648 0.3579811209037383
Ni 2.726460539134398 5.487991954736585 1.7931366082844007 -0.9354948567926082 0.11527463890530469 -0.48882327522999686
Ni 5.311021615741013 8.000453662343595 7.79154370917887 0.9815767387523352 0.27427628638491475 -0.44151009196632995
Ni 0.5505416584514026 3.166130026269028 7.5242312356360985 -0.1447929600793958 -0.08530534623672405 -0.04334134310011246
Ni 6.549416925074393 5.223852296663622 10.264089440559626 -0.5395624534560772 -1.7368066678111829 -0.18614144111919556
Ni 8.760932098989532 2.3235332893524094 0.5849245990853714 0.21872297459964268 -0.3639082850214507 -0.38488977236912425
Ni 2.2290598461870714 1.053760718766384 7.255162448058526 0.42139378083242907 -1.1184890105320737 2.1136596859187593
Ni 7.084390918797768 2.300217343306815 6.040086778385955 0.7164682349096178 -0.9968208093955994 0.5428974313665812
Ni 4.934291331872431 0.07360267039216851 9.866520703051009 0.6797410546919133 -1.7429752585157403 0.7056850282511846
Ni 2.1164876884675294 4.896413307841132 6.36732446517922 0.12345743182641318 0.06458225475675973 -0.9258470492901991
Ni 0.3354171976871994 9.165937007330038 9.823772647358542 0.25548255071717935 0.40743577599044023 0.3216036107159687
Ni 8.888601908900974 7.278379589897115 2.55600112035932 0.012381918604120612 -0.35793124150240935 0.9617445345177567
Ni 0.3680013477113933 6.427619963355029 5.687374227453846 -0.8113967060584026 -1.1201080341927354 0.8459001391519109
Ni 7.270632231983351 3.3677737149017606 8.574937334619559 0.048073715578775274 -0.8072358898124935 0.8549604495819663
Ni 4.957044001597716 0.8751300997316044 6.3126026323630615 -1.6613918412152935 0.5987420491400268 -1.8030706811457398
Ni 1.8444159917200444 2.5074845611046035 9.454638283179904 0.4378534690503491 0.13345568068970565 -0.9741084553997482
Ni 1.0528003788104467 2.8511200526454976 11.533142679582502 -0.4616832244800952 0.28188906573516614 1.9737729048917296
Ni 3.0593753125133376 9.265618447948729 4.922035916588584 -0.5032209387125657 -0.11482341030049903 0.6261978313581346
Ni 3.9527684926762197 4.151882054886579 10.036687402820286 1.273516503855284 -0.3487020095946576 1.2018341477186334
Ni 4.509054646190974 1.2679442310545292 0.645660560875587 -1.0191523830132643 -0.3809395294721246 0.03775022216558015
Ni 1.338630792234342 5.319479994583691 12.89845060770822 0.9393365991362016 0.3974550106286445 -2.3727759767337844
Ni -0.12378320330130703 5.674630331557797 0.8887309143575673 0.7379408029610968 -0.2315198692539948 1.3439151081835048
Ni 2.9046590051890058 7.750885316294372 7.25882466754434 -0.029751520230819728 1.0839020165858235 -0.8740503763338818
P 3.8973642644490645 1.9935364719934334 4.225083968027905 0.12513199131535868 0.2955290251161039 -0.12792703756199258
Ni 4.128307555775924 7.003112915988531 3.123358885481468 -0.6938957489257405 -0.5194949932822408 -0.2257631692758757
P 2.574311294384591 8.204036498964278 1.7664446979321646 -0.04763637093104054 0.239623986418368 1.0950554620994817
Ni 3.132490425697107 3.8163263466288115 13.349052272475872 -0.6399576041463881 0.8740719736004365 -1.9409663998846702
P 5.367774013521696 4.358678336744437 8.39387724017702 0.6750423636646632 0.28819521045885205 0.3002673111320377
P 2.7585118851638075 6.535842889158739 11.229746355599188 0.691077562750655 -0.8938159889965833 0.6554693266287421
P 7.741180342316583 8.137865382384978 8.160825817966115 -1.175226572433434 1.170424008838468 0.21190569456749314
Ni 5.251028070609042 5.642458943033894 12.214012627496446 -0.535205204928646 0.08830813761878985 -0.31170794886881154
Ni 1.3760563484017856 0.5130034470198971 3.053148800664409 2.215467143575565 -1.3327153828129434 0.9547357073000912
Ni 4.393998532239248 0.19331735653399476 2.758076961972224 -0.8901853342225313 0.4885124288577974 0.05148479814285326
Ni 0.3968180102161407 6.996879940312977 10.76529178696714 0.8712116213335062 -0.35178347673345867 0.40336006325916984
Ni 2.3287228187296862 2.6180898687220817 5.732487120287807 0.3048384754424879 0.3294706721688713 -0.7432665860493844
Ni 8.174321364558446 3.894381670162836 2.4543953062135393 0.7448835528275172 -0.4270923738791032 -1.5610542832357954
Ni 1.8178034940949341 4.728510794198738 10.51399482899723 -0.9558132566349862 1.2258490225759922 -0.7550664068977899
Ni 1.7968606958250692 2.738621767230258 3.471747136400448 -0.22506845720169624 0.805910743243167 -0.2829799848064997
Ni 7.308805745231861 8.358808210516838 0.5386279025749565 -0.610103239789117 -0.18076809262242416 0.5726044715127107
Ni 3.5960299011596035 3.1958174585607453 7.81697794355035 -1.070792475787059 -0.79382810104702 0.49575522646313974
Ni 3.6377400509766136 4.389898619350439 4.1885522667425255 -0.9606441023647262 -0.5843186746258453 -0.46159015054565666
Ni 2.544642330168949 7.752907570624664 9.515780542643784 0.0681648299016955 1.292741156412851 -0.4505889143391466
Ni 8.74445857512999 2.142315292859422 9.921134497622123 1.0257266937966723 0.506770860847353 -1.4906135128157296
Ni 7.2872812025656115 7.205264476713346 5.882962233941351 -0.06822396527440508 -2.5329292213193346 -0.35767207430375175
Ni 5.937033990479643 3.4815555316042626 1.1815967413625075 -0.4679526024285748 -1.2272335616283445 -0.5123920636888724
Ni 7.43730661856671 4.445487528338352 13.26994888562455 0.11752615394364276 -0.07249996694193965 -0.5761513083237044
Ni 8.796991017527372 1.9551505758700527 3.486194712314483 -0.9345283791142808 -0.21495116626203625 0.35296592707733404
Ni 8.64585751696173 8.94662860393088 4.665427539939298 0.19375884845513727 -0.5292721272736626 -2.3529730830752444
Ni 1.8482850536579074 1.0103053357602183 0.7192964738046916 1.1731583770504956 0.32950692472344545 0.934814542896132
Ni 2.068886222382365 8.633068374279295 11.556645153196463 -1.7120924528939547 1.2432880439880458 0.7680841593136966
Ni 7.307734596819469 7.424812965101487 10.3495717008875 -0.04260215094124276 -0.17616530374309014 -1.6826499792631213
Ni 4.713680929109936 6.6624969548860165 9.729964978335735 0.24682641770407815 0.04419314957744647 0.731477049613624
Ni 0.7488555529676829 8.609022939228709 6.406801824598674 1.062474185729351 0.7305522238065095 -0.39229506369425987
Ni 8.041064961634099 5.431359599450394 4.178348654710691 -1.4232945758540971 0.9541836914513633 0.6533754202141908
Ni 7.117938178989311 0.48673076199458 9.968787674320298 1.013477958336306 0.48725284541908337 -0.835839155371483
P 0.7585919226748017 5.1550679473196075 8.126254502956174 0.1417703712029881 0.7258373348293435 0.4172813013259523
Ni 6.478388704487179 0.6920302062865008 3.9411483792093778 0.38082434405049903 0.1993157737176245 1.964351868688146
P 5.948234878619566 4.79410940041969 2.8811168252114836 -2.1792176743252276 -1.622193316638961 0.9188708750826821
Ni 5.977497545161542 2.6153381253867996 10.681336836530727 -2.0463451198325013 0.23298488383529556 -1.0582290372997516
P 3.3055362985265893 6.839467293881589 5.389463845468823 0.2106250280828566 -0.3532230373934626 -1.607841161682347
P 3.181227678460928 0.9090208661381555 9.551472869871523 -2.18039832489689 -0.5770787052339803 -2.0377733190030907
P 5.9844230736899355 7.708353337091993 11.954228665165942 -0.6830858027944301 0.4984975650949673 1.0954632390608616
Ni 7.8237788125652346 2.6720443529772933 11.745124797202424 1.804878680888756 0.7496516636401218 1.8005929090292085
