# total energy = -381173.9849588179 ev
CRYSTAL
PRIMVEC
9.16426473611181 0.00000000000000 0.00000000000000

0.00000000000000 9.16426473611181 0.00000000000000

0.00000000000000 0.00000000000000 13.41282777937452

PRIMCOORD
 96 1
Ni 2.4668825220448207 5.039236563476732 0.4915491500805441 -0.6508536822336016 0.3827151333153086 0.19330067787179614
Ni 2.5610086820608777 7.229055878845916 8.275405932140178 -0.04439600961687193 0.25903658661702483 -0.2568066688452416
Ni 0.25500573860605674 8.894697597038737 3.6670135146974165 -0.5703182465816952 1.835815736787245 0.9025158307634263
Ni 8.453401607416186 7.204321529134755 2.3679542874646105 0.4652485732338504 -0.3850571511849239 -0.38969516417756755
Ni 0.7694169791736087 5.709217607820408 9.292808823362323 1.100543996017879 0.4815509099382997 0.8295551221349842
Ni 7.265740429380847 5.114915059184316 1.5069441509648909 1.9829478865227783 -0.2997955137019418 -0.18174408338244827
Ni 1.692868747830412 2.0705830708001147 2.0029911220303322 -0.7565658742614518 0.9423183074723448 1.3986520947150687
Ni 7.065629551169317 9.459262107581935 8.353857534265916 -0.16463416317503904 -1.1391604228384962 0.7972191290064399
Ni 4.813410759259451 1.2145216370955143 2.5332537907918065 -0.5465813079760716 2.309232447654184 -0.21371986495809642
Ni 1.1787351844752527 2.1626289427893344 6.8529223914913215 -2.5145126664853596 0.9777054287223871 -0.9703212204431741
Ni 6.4175510988262605 8.6280908160839 12.487342189416388 -0.1448811489178279 0.8894643968961069 -1.198652150446226
Ni 7.191537380247363 7.459775400271703 7.061961096115825 -0.3707908710738969 -0.5700647358099924 -1.2246506313925165
Ni 4.568752391627411 6.354858365823647 6.641428580424573 1.8750589985585837 -1.246401392806047 0.9769484959517047
Ni 8.628292429901478 1.4205434658678813 2.297268483021435 -0.1648650482389225 0.053916804623113594 0.3810045783821051
Ni 2.6448158803226676 4.884058073791998 8.221593371375473 -0.42137989687535815 -0.7673436816032463 -2.186334487875667
Ni 8.867782152391948 2.780135408975876 11.82435989382203 -0.10390882027052427 0.33668261653627823 0.4318782253035207
Ni 6.403383146009122 4.648059936051418 8.097927121378328 -0.4316756223744114 0.29751751630104245 0.34371741189587257
Ni 1.6872785465248143 1.7877830345879142 11.038086166645936 1.7218631591274731 -0.7875273556399728 0.7748775280864462
Ni 0.14777376402092515 5.228441967010127 6.158043873529532 0.6741072534449036 1.8640086542816932 0.248489664339114
Ni 4.394090675753005 1.1867630801206688 7.857650188572855 1.5633271384303722 0.382180086747445 -0.10958324494748226
Ni 0.6692020818666677 2.234183519500986 4.325744508020189 -0.9352490593303894 -0.7870892396612896 -0.37586520027301074
Ni 7.999147347881971 1.1484931118384123 0.04417633671087564 -0.010740783456271824 -0.6702660253219425 -0.18414909327951512
Ni 3.790458905921669 3.3650170937723707 1.5966897925808239 0.7521510330232078 -0.7888920971979833 -0.11581637034138763
Ni 1.8490186495452985 0.325705289445885 7.898693263273265 -0.6787403813415408 -1.3525169909199029 0.5680487338212282
P 7.4359208199463405 4.4033557470972005 12.27009505313709 0.19735427911587947 -0.907897921010946 2.0056137035514103
Ni 6.8707972892725815 2.256406860756846 7.391983670537229 -1.2931103668268116 1.9009317525602873 -1.766718624879267
P 0.15311194805454925 3.9953718586973515 1.7282565549477331 0.5407803850235784 -0.3147642191966321 0.6874435655424934
Ni 5.505046960463994 0.5569874967080057 10.309018527354977 0.255429843102373 -1.3807405045419705 -0.5047427746737307
P 8.305068823264701 5.80333460357203 8.088444856967012 -1.272372620058828 0.8024510668293406 -0.9290527007116902
P 0.3897030137041007 1.2315580046809345 9.401131345415267 -0.12840886229441756 -0.43859060432668984 -0.589950418990326
P 3.3650170937723707 1.9947304540682573 6.15678287074322 -0.5774013786807217 0.2855991675969017 -0.9556276229867412
Ni 3.7720753914642438 7.326976044338231 4.130372470948208 0.08829013989666085 -0.48398060242571483 1.2387773006018858
Ni 1.924495531435304 0.4596336827577984 5.479032363011206 -0.11632107789194807 0.3761403083112683 -1.3020498354082868
Ni 4.045014679143947 5.682632076693295 2.4533670648554837 0.4351831213070376 0.8349737220473943 -0.09103890628639161
Ni 7.984997723593703 4.708599066911711 10.317468895590865 0.4738049474442937 0.7489775203912327 -1.242432637966286
Ni 6.647235058370846 6.890903685443862 9.277398196287745 0.32170799750431694 -0.04593147242479186 1.5349460161845179
Ni 8.934855403794687 5.270570090619691 3.746296315607446 0.2596353965432884 -1.615443142399321 -1.0827977277780514
Ni 3.274171740424189 3.999825691212959 10.333107712849886 -2.362919395654679 -1.2782095384555794 1.0897412489754201
Ni 0.8400615444268246 8.713345968126482 1.3120028343213734 0.08240951274616774 -0.22081585257292938 0.251362872121851
Ni 0.7866998654723413 3.349520322612099 9.731797251200039 -0.37301076154335117 0.8777764190352173 -0.9256004804970317
Ni 1.3846745348677014 7.051406612765566 3.9879689658864304 1.633930145459915 -1.2758230405012736 -0.2202106148887627
Ni 7.690824835217165 3.2228518595859144 3.6204837948795285 -0.20251679715342544 0.2300754234979844 -0.2868932038179769
Ni 6.338225225873384 6.254436356140466 12.14522095308736 0.572893206397723 0.9695596596868012 -1.07901229259369
Ni 1.6720567032976046 2.7484912038804183 13.369289004445237 0.1695629679352241 0.43924546430186934 -1.632585972727195
Ni 4.136877265844459 2.1967016779601747 11.419855676628305 0.00486504140178517 -1.8832587607605566 -1.640629926077594
Ni 8.307002483060572 7.1473198043465285 4.742158603274168 -1.7031362721419314 1.0537635453292302 1.787088961005503
Ni 3.19636713536759 0.48308320259511583 9.727008923032539 0.012836746753352087 -1.0536822984693337 1.031185145808082
Ni 3.736902944561155 5.651281128059771 12.010596992104798 0.001743465053667965 0.8245023902024252 -1.2783113541407662
Ni 5.040776159901879 8.214168484329907 2.5205924430478492 -0.4231552436082261 -0.7623274593355774 -0.0769070948706998
Ni 6.705244852246968 2.684927865756441 1.4478346453565207 -0.537842385441177 0.6221504007616381 -0.6039886422509468
Ni 1.918676223518821 7.242582333152575 12.716084979003458 -0.4458035771353613 -0.2779516783539729 0.561644115846465
Ni 4.355564108066558 0.49581878088099984 4.714219510289945 0.6082713287867009 1.7498647865467218 -1.844725380572049
Ni 3.460389593751643 9.080906286101754 12.101347953529295 0.31020976705673026 -0.232040003423523 -0.9851194617982711
Ni 8.693331214599556 0.31499226432089517 6.382158709576721 -0.9386282602152672 0.7582928842548875 -0.4277819437469601
Ni 0.6688785833320978 0.1528599307825756 12.345555439351115 0.12367777536733537 -0.09936362410200307 -0.2760547184415762
Ni 2.505656524871024 9.464119167732703 3.199026604906745 0.1743573040000739 -1.276139286190112 0.17864461852151814
P 5.916155863036316 7.589513891883748 5.218072601801466 -0.1008684907823037 0.2059466487705808 -0.3227503227259022
Ni 4.570539423192316 3.7582098593734745 6.668013195125243 0.4881128794265336 -1.0304971186021221 0.9386408586207577
P 2.517075198357541 7.074234795474164 1.554211594069829 -0.3996304210134085 0.6790036623052564 0.4316185438842309
Ni 6.6641339619897355 1.970445153314431 11.721255503938606 -0.45237840213940156 0.5285653310146252 0.602749113416891
P 4.883810638652243 7.525180755547197 10.879318951008297 0.10912481725382496 0.7290177894398542 0.04805186120190434
P 6.691599262502648 0.5187688483065876 1.7512991814441186 -0.2676343555883649 -0.7663049559260867 -0.03941886811725469
P 5.68194475686064 4.251879620244371 2.6138250872814544 -0.6411698792869345 -0.6960817008334657 1.3158060086521146
Ni 6.4238469484933844 6.308972893795568 3.415697308953054 -0.7837514335373083 -0.3243870869983768 0.8353437037923034
Ni 5.434069732411773 2.8931216251999987 4.4774561564690085 0.4064464154939774 -0.06458739696308231 -0.20785029355119689
Ni 6.539133395090795 7.454056899264009 1.0633891701590128 0.4963892605027128 -0.40441447266561314 -0.38214049175876125
Ni 3.7278669798278443 8.393769738734997 6.267050049709359 -1.2422405765601379 -0.5493938377242022 2.229104531853342
Ni 0.9810436720746701 7.763130881612519 6.340578608980397 0.6077715063321468 -2.233312142176786 -0.4614852495366762
Ni 4.008870820210705 4.914859166559398 4.890209128081043 -0.9893365852034122 0.3602609180768505 -2.1202993027224646
Ni 6.928697111975477 0.3376838994894045 4.177223856447778 0.7024721777408418 0.06968409475969935 -1.7462115060648506
Ni 8.05703800632043 -0.010011042469237745 10.37888596298407 -0.44106760511227266 2.2289587503040966 0.38414955176898996
Ni 4.2248725329532295 7.326655295082992 0.21986261734916102 0.22551840025492126 0.9011302632698093 0.32568986497020036
Ni 1.74132937816484 3.823083687311715 5.454540866307583 1.9954460189897891 1.8152248000097708 -0.0930255976991172
Ni 2.0453630150738764 4.64396350984879 2.9871167362346296 -1.1021087694018374 -0.6620462085153115 0.05468813557149936
Ni 9.157391237079654 7.95795397924482 8.439377533550683 -0.4122378253647739 -0.14768493691521015 0.7614918508081595
Ni 4.8421498925288855 8.015560545485783 8.277833545789118 0.6005317940505981 0.659926076848515 1.4976611636911303
Ni 8.598343613726572 3.6692615087634217 7.7778166153702575 0.9418817341555584 0.16631052243619743 0.1625752237634813
Ni 5.243517182006371 5.201169116050359 0.409290712508338 -0.4018701089772047 -1.5112335030589263 0.5640090165342158
Ni 1.3953325744060787 4.968671727324103 11.528740884517584 -0.5503759991318135 0.17908607693431094 0.41330946116239786
Ni 6.077062017993178 9.646579672641638 6.252429382229112 -0.20854680539758924 -1.3278493129698938 0.5597654107665134
Ni 2.5646468950417343 2.4796666709322124 8.480515000174778 1.3686982286654557 0.9685859829196222 1.6021078587429958
Ni 2.972704097557066 0.46507725583242976 0.9705927449125329 0.8445279413947326 -0.36513855788412597 -1.3081459210036954
Ni 7.201269829077765 4.560550374957724 5.655652482195459 -0.9812412097897876 -0.4289865055780224 -0.026432483159915764
Ni 4.249744346630922 5.805616505416446 9.589782310950321 1.6842510052016542 2.6770310688689767 -0.7890468776082927
Ni 8.653558306949893 7.2169682140556155 11.006231183468463 -0.8040819175645442 -2.614388197226775 2.0013693264527594
Ni 5.698990288710495 4.196060085568313 10.909577519321122 -0.6138472802125816 -0.4909477777721674 -0.4591265194965125
Ni 9.200279994637356 5.8063588108357145 13.638699133890865 0.4138789605126227 -1.4941022426952786 -0.41698845267588186
Ni 7.322852125342299 2.466616758376194 9.534642764695368 0.6606660403383332 -0.2675248265936941 1.288406276482923
P 4.045949434116358 3.6399450268345572 12.77681747584334 -0.6255131465862841 0.801756097644845 1.646462473598971
Ni 1.4973949874231978 7.713103162059637 10.355735198167347 2.05453922560752 1.0904999815183154 0.36429626448848873
P 8.488610711377017 7.733383679255191 13.368726318608903 -0.2534518934403958 1.490762379688768 -0.9893473838366896
Ni 3.1151717524698914 2.570658652511361 3.909798706678859 0.33053176644353394 -0.10879263072538682 0.3790042601226247
P 7.8662838420974515 2.152328309563938 5.51692384717228 -0.057363625521133464 0.41667374964894044 -0.8169245778551673
P 2.498792490808905 6.166807659609112 6.21431062431004 -0.7996598772374486 -0.7320036115410555 -0.5407469606824816
P 4.6469602243191686 3.5604633613862786 8.821361487320841 0.34758795059487235 -0.5069451816416882 0.06379164053466434
Ni 4.994478295974208 1.4832911844571075 0.0004847895886329885 0.3325297707101692 -0.387176768631088 1.1867620838768596
