# total energy = -340885.0209359606 ev
CRYSTAL
PRIMVEC
9.10924864738623 0.00000000000000 0.00000000000000
0.00000000000000 9.10924864738623 0.00000000000000
0.00000000000000 0.00000000000000 13.33230617241187
PRIMCOORD
 96 1
Ni 0.128598905154219 7.733733780874782 11.816076301517521 0.5464003023135171 0.5976591004884932 -0.18472219217416574
Ni 4.765885955306654 5.994614270608501 11.688405628788196 -0.634404792648959 -0.13683231047142239 0.10439861542274924
Ni 2.039187265992202 2.925079903734145 8.309666018990546 1.2558262856643727 -0.47633388451373454 0.9444489806621024
Ni 2.2734680288565654 2.379618101940994 12.58480396285626 0.0663876833966147 1.663822305033657 1.584456721320136
Ni 3.235204269833809 6.526220905392178 8.340930781784708 0.22946967159318543 1.0196596616669857 -0.14353466219226246
Ni 8.744997006092996 5.216137891496231 6.584332445444936 -0.48224742178469204 -0.09047429203217322 0.6905810827302107
Ni 5.046705868895152 5.632785809869928 6.9896211309055385 0.19132941307803822 -0.496417542637487 0.3526512240503926
Ni 2.9114160309437356 7.235858693386363 13.060113619893743 0.06930177171961613 -0.7743476237249051 -0.5822381379477327
Ni 2.137822209041906 6.494438737281684 10.571812162852979 -0.6912909643130418 0.32370137378526187 0.9417544645490749
Ni 5.003263862670177 0.6141336936631919 1.4117449602311511 1.4135655214917913 0.9421853814389064 -0.19248589527998464
Ni 3.1762492133674547 1.2087517332822681 6.625636511040639 -1.2273716298681057 1.174512834195861 -1.701133896999922
Ni 3.386062534688458 4.671605233052828 1.0799196313657595 0.694848599757313 -0.8465326305295872 -2.5224514617164617
Ni 0.4843615172987031 1.196199188812145 7.388377574247474 0.3905773096722047 0.09429597977110857 -1.1008355591163685
Ni 8.25056521454776 5.206272575341555 1.792435030969606 -0.20734507178000422 -0.9280031764012533 -0.11952878619596834
Ni 5.828889712157887 8.11718759761631 3.642759336327914 -1.0138790504294668 0.25973541245626236 1.1641338049543821
Ni 1.4545192585391025 8.82433856076264 0.8339899614851459 -0.5529432456383574 -1.1842881684150701 -1.3852311933234724
Ni 6.422229724208632 1.8921002300277063 3.8326243142997716 0.359557978472555 -1.2112868084911008 0.0043464498941538044
Ni 4.462247374158172 3.2256122311349413 7.1438498177151555 -0.48296630222858755 1.0461078285561856 -0.20273405537055408
Ni 4.033812088190615 0.7081502477097369 3.6125211858427377 0.7225748620279878 -1.1667815269898745 1.5326181393822895
Ni 7.199995581935802 6.490394230935723 12.772215820199811 -0.4464057294957344 -0.7874224546309923 -0.8663424661666628
Ni 6.045717154844633 4.287969231340761 0.6408556742169697 -1.0034398573740138 0.5296444230114169 0.042949249868016355
Ni 0.7677411297232712 5.369118611257657 12.883327700956865 0.29644948004784427 0.4884553503676169 -0.03163613884804229
Ni 3.864981275992314 7.784818446613859 2.0226038790489085 0.08219302585998749 -0.29665028320474074 -1.0632216054183368
Ni 6.324141336070546 2.065212389033669 12.749737838534736 0.005052217711926783 -0.7808512291713778 0.30975211069402137
P 5.099894771043953 6.215003429469282 9.495841390723648 -0.33872535799791986 2.370109485645215 -1.0159696144099082
P 2.5803950487232727 4.847149561415483 11.889430347130409 0.7935882171220721 -0.3722360881608557 1.1701329599606105
P 0.2929151737825687 2.1468859113262106 0.55815827239 0.17529858486742067 -1.7901192631913945 -0.09433094677410206
P 6.652165375525646 4.040425402621174 7.038084154918564 1.0049164419195404 0.6963215847584137 1.698888552609171
P 4.22867713267891 2.4217848133721978 0.34058933687316056 0.8629226418518363 1.3272453608373078 0.928464432308388
P 2.2391899266496913 9.022610464200012 11.871111648342733 -2.461189272471871 -1.0751078153329614 -0.45862052639437145
P 2.519481503823627 4.718663610942999 2.9874900981667674 0.4989439086037665 -1.031154806790779 1.9523026508330956
P 7.200414607368041 0.3259389324672834 11.598066478371978 0.48671805596153594 -0.23239095900503848 -0.21382528018770913
Ni 8.295300734063561 3.6744431245543154 12.805853542235244 -0.5400288515695344 0.1425023642730062 0.6524361962293731
Ni 1.567774545474544 6.045152381435963 1.75149169161557 -0.6119438925422815 2.9156410122005334 -1.0092932308309972
Ni 4.615264530913706 2.9411121811415595 2.725683008103698 -0.20259007359352205 0.5475832668780246 -0.7108053801968856
Ni 0.8719345362241134 3.33354771693065 6.343564075779687 -0.7016213997047723 0.05898753427780164 -0.8466884393811611
Ni 1.029663907242633 3.72229400706633 1.7027754304934961 -0.011064485344277718 -0.6330860738375355 0.4071799512258923
Ni 7.3432476242704565 2.371292248787371 1.5615729690774034 0.8076940603958347 -0.7645445215915542 0.20331512468500468
Ni 1.2737097845278755 8.811530957333764 4.892303195438671 -0.4965247576393127 0.14933121426938153 1.1353886145008898
Ni 2.7293221528902105 1.5241139172849218 1.7228667890445144 -0.26982673525399337 1.0413790556219487 -2.125530469214417
Ni 1.6294168302563452 8.655243580357059 9.525679645198492 -1.6733721535056212 -1.261665260943653 -0.5947905206914466
Ni 2.37715860483872 1.5533637143049255 10.31399219087015 1.7501416943571921 0.9548344376614847 0.6328485039054327
Ni 6.422976682587842 7.261902034924884 5.904317933660358 1.1308930406233815 0.7253133440050735 0.7027953654082154
Ni 6.2841699535343345 2.1202504686334387 8.284001622190747 -0.11820492517822224 0.3410871733618771 0.8277805467330648
Ni 0.9109339619425005 3.849914578928756 10.854297247072202 0.6734709054124853 0.18310471117540078 0.028653402070634524
Ni 3.2742556182687994 4.448984308302947 5.000667726839998 0.0471817998921252 0.5277299795975233 0.7539281795282887
Ni 6.102731941374749 4.379999969208432 9.475416633676543 -0.41648451645626977 -1.0428888073982554 -0.12504225981502978
Ni 7.789701003824299 0.03962340924248246 5.058450423020935 0.6402224277720006 -0.18656490180985935 -0.5544090315506065
Ni 0.26625604704362693 1.5429427339901063 11.737069056268814 -0.96607838600642 -2.017979167095299 0.3322166103451246
Ni 6.709362347026301 7.13623995149575 1.644140108650438 -0.8432560166608444 0.4434181076223202 -0.25534422536710216
Ni 7.0591392719637325 6.050736350782977 3.9369634687770447 -0.8669070804208813 -1.607891555304308 -0.8523003862512999
Ni 8.056592876415106 9.180209572964596 0.32535502963670654 -0.2279000131132204 0.2213634975462833 0.33089377776864304
Ni 5.4708233710609395 0.8883430255956899 6.016949237071704 -0.5658812938562642 -1.3415093269554896 -0.574534598655888
Ni 4.041290781231233 7.867840137688389 5.866561009441046 -0.9100471061434651 0.7367827780972537 0.5027103176247342
Ni 2.3951675891764803 2.381275985172897 3.7738824142489475 -1.7519103562218412 1.4453919219737688 1.584956800885006
Ni 7.5795506403078 2.796730591989564 10.700948513670287 -0.7816171608031249 -0.8695326909691863 -0.5355864995274647
P 6.779558216174898 3.987619088910504 2.912095580883846 -0.5391107106306393 -0.05298143729303778 -0.23740795260365566
P 4.278295209405151 2.5065190431697917 9.20482367340924 -0.7178450606524863 -0.7775193365846674 0.3758294619390689
P 8.527550134506418 6.7655937381830995 5.2197579068608375 0.9611886620142867 2.208528250363887 0.30417950170225033
P 4.844899577029329 6.429380484302281 0.5490499347879129 0.566804834111798 -0.1316564226974378 0.9354696599816278
P 8.871806854836525 6.979943465270519 0.6854500003806031 0.5388183762012011 1.2049415829993635 0.14212261233608428
P 2.1090005467026685 8.687781816095288 7.253481445586581 -0.8435347242435279 -2.665814374217551 0.19626593114770716
P 2.101758694123751 9.025306801763985 2.9789173843780645 1.257044731452506 -1.617288680248492 -0.3764077030400421
P 4.844772047549952 6.147075763203891 4.888196746202727 0.021196174461640915 0.35442631367294447 -0.7926518213507316
Ni 7.274099318702457 6.322929806016464 8.259923145559487 -0.19066221180768456 -0.9539090976337378 -0.29821865613312515
Ni 5.5992819937878435 8.114937613230156 7.993770943949066 0.1884091541074497 -0.07349035587966699 0.6230410308967077
Ni 8.737254144845098 7.385933562867695 2.9572391947336536 0.7745743950237305 2.151203705610805 -0.06633960376749864
Ni 0.5162520854666663 5.441546246295355 3.9421493639634315 1.2363460654525738 -0.6070153448924126 0.4366851597738608
Ni 2.734222928597704 6.998171071572925 3.791521563096514 -0.2000534232145974 -0.8827653876093765 1.303545960337839
Ni 1.7563086622366157 6.629902372125805 6.191789420523228 0.1398584988922559 -0.06703354451072972 -0.1450816949644082
Ni 4.931237034567665 5.37953048232395 2.818876086083408 -0.2451659992825197 0.6235781343471002 0.11563587889946536
Ni 8.339653665141231 0.22237679688935819 9.023224427550728 -1.1599002264890086 -0.3134316164281376 2.4257283605610995
Ni 6.026642388429221 3.974720392996357 4.996441946448352 -1.55864053158798 0.7055528735486946 -0.05398622440846832
Ni 4.636397987496206 2.8419580109258202 11.36684369023811 0.045729897936947046 2.0754404945365614 -0.2915286457074592
Ni 3.8430006592968087 8.220841736604358 10.543614484037835 0.8756331474399692 -1.2340549554255522 0.5306957470940667
Ni 3.7432908249209262 0.2900958613634809 8.584124944332682 0.41915357864800074 0.6340283831461467 0.4564926814180913
Ni 8.659534036413248 3.253614061106754 3.945363106843736 -0.674877813062341 0.4623694519138424 -0.8234839762402397
Ni 8.910976623502366 7.907501805774684 7.082987284607261 0.027008667378359937 -0.07142164627609636 0.2644950386284348
Ni 7.427954526322468 2.218466386250903 6.138847379009507 2.0421179691250315 1.9124369249864097 -1.2991979677817882
Ni 4.0148101957634195 0.8125367702793502 12.264775110833256 1.167909984167363 -0.5442732286681853 0.4563111615349044
Ni 0.28959029807023573 0.8389973154004047 2.5345910143552617 -1.9425280879448354 1.44441824520659 0.7405036785922666
Ni 5.566197203137998 0.9195786387945662 10.272061408975794 0.4728963195870953 -0.7970723190159305 -0.004170586437921849
Ni 5.513955662836 8.300137745031368 12.882753818299667 0.6301455031519728 -0.36811126735920474 -0.6501432864301384
Ni 8.346795315986352 3.5804630075018786 8.546741499302975 0.39021761233994084 0.6860487420774959 -0.9608942707023191
Ni 7.0149867443536555 7.4377105314948215 10.344229430430476 -1.590067896859326 1.2363928595301092 1.2585611680970323
Ni 3.49633909735559 4.495988030701956 9.997202587623324 0.07343302027917031 0.27173680779251264 -1.3330473122310655
Ni 1.155863436334856 5.356502302047846 8.75045891150975 -1.64758887389393 -0.22748040907729858 0.5818640424377657
Ni 8.187766055203038 5.2983670779489165 10.794421245579773 0.3292230749344395 -0.11116344495040854 -0.5510735394194702
P 7.167894590126866 0.5077486019667682 7.229055906586444 1.1282676871853923 -3.0739770010716865 0.5407186785477076
P 2.2280857526953515 4.656939342924455 7.136556953344488 2.64921996019398 1.8871074450826855 -1.0303505657219287
P 7.0016508045102155 0.1858104514525167 2.363177730199573 0.9297319861669021 0.8535072620752074 0.14539228422629155
P 0.4907443677415298 1.8097252955985903 5.065396225022727 -0.30799321902138566 -2.803662013327365 -0.6019700691590213
P 8.969758604246707 6.935863811648657 9.612165583487814 1.1436896781674173 1.4059458001630045 -0.7752909614747809
P 0.4715256751993923 2.1469405668173724 9.636284140812592 -1.378705733500129 -1.1812802348266815 -1.2447044647195982
P 4.164001468137638 2.3701627019700306 5.118751826419571 0.6501504855189899 0.5192916190221831 -1.7006063066312262
P 6.409431230028282 4.588137188800479 11.784425306585815 0.6398478180414013 -1.6465658319460545 -0.05079702804720929
