# total energy = -340856.2948441539 ev
CRYSTAL
PRIMVEC
9.43899799977439 0.00000000000000 0.00000000000000

0.00000000000000 9.43899799977439 0.00000000000000

0.00000000000000 0.00000000000000 13.81492768121269

PRIMCOORD
 96 1
Ni 6.930046182143634 2.4211123992819656 12.798397656561857 0.5596579386543716 -0.05278834744562522 0.4485256040522147
Ni 4.551635809342468 5.209090329781714 3.6943605351475677 -0.8787585804428285 -0.29736196455978464 -0.1344766657550523
Ni 0.18957472153971663 1.4160384643345658 3.7852486458866523 -0.3021892107450989 -0.16642493652687468 -0.33114291766497167
Ni 8.819148343022126 1.6356839453708634 0.45349665390584065 -0.3441979510767169 -0.46930757379457244 0.11692657268643089
Ni 1.9339751568753358 4.689303593653357 13.293648661559754 0.899594029130941 -0.6048723304074809 0.07307846515322897
Ni 0.4679128353921637 1.699453815155188 9.001778793809871 -0.8198674625335751 -0.15677892879667837 0.52147679959896
Ni 8.199223278216758 3.769709223650724 9.112312290869575 0.2818944650518048 -1.7960618539280746 -0.012475763869507547
Ni 6.2255005012020215 2.9518483729695 3.957838834612587 -2.215614982007339 3.8189978508080165 -1.4796613846796
Ni 2.5383447531483525 9.320255302314605 8.477240466140746 0.22280717197134528 2.767219711339931 1.9533539749157454
Ni 7.46280210138088 1.6774420720620788 4.919592488717009 3.216702279988776 -2.116092206619652 1.711727613355368
Ni 8.631944697753847 3.7113384606628226 2.4087841241302037 -0.0690909412603907 -2.3700521500447183 0.23552153421422017
Ni 1.3946213781088952 3.271528353705956 10.500312211954535 0.32065153121534457 1.276985436240491 1.4833725149826
Ni 8.855309143961106 7.4300487786823 7.0265344503343234 0.25706197938915726 3.4737249214995654 0.49029034669382665
Ni 4.0690292859258435 6.313490839587083 13.111678940624719 0.23507776180858223 0.1969776125027511 -0.04980561066821745
Ni 5.413236976273034 1.0380632325933759 3.1387103265139515 0.48917757324562205 0.49432440755388407 -0.13608103412769468
Ni 1.7098367128406164 6.906174956465044 9.279072010595247 1.7828654098424586 0.35331482577632056 0.44744522650384233
Ni 3.777402006935837 3.1611015173224732 9.403710202210714 -2.1644173760876013 1.3497491983667784 1.1565917309410663
Ni 5.285782187685448 -0.008330859542872203 12.096102232718613 0.1932014332897705 -1.0240539340799395 -0.10935827342086973
Ni 0.22905238633929595 0.4189952287969505 6.977257217919279 0.8597954090767644 -0.9459667028582095 -2.3923734392497376
Ni 2.9061164281641347 1.4513025604734404 11.15190700250004 1.466038908800159 -0.20142690652335632 -0.6112784910441408
Ni 9.173148520107873 5.793184958574456 9.2021366265458 0.5494298331684603 1.0859360162967169 0.18297512757607198
Ni 8.960355751543958 2.2743548599973784 11.32934600444507 -1.4224545964513051 -0.47551010306085856 0.5012414463886915
Ni 2.653698746433466 1.1580517738453489 4.975114562139945 0.797657244985123 0.5249315909167798 0.48455087310688805
Ni 3.7213721154261052 8.906893267461895 3.7326828666046956 0.22995175343592655 -0.7794954864744317 0.45694442424352916
P 3.845617644729104 3.461988453248303 4.942456573320112 1.1437956076176625 -2.1449348418829572 0.031542807803287616
P 6.147251208645472 6.697563663968989 3.9930387455657694 -0.7434262515557004 3.5148823695744817 1.4910626845380064
P 3.1344741042582966 3.992346867020004 1.6178933221367762 0.00983369826097016 0.9902938069103592 -0.3433165769130281
P 3.2825531032483024 3.445149281002117 11.714215480249386 -0.9743079730050639 1.5179271130290182 -0.2874009966923308
P 3.6622934275960155 8.910027014763315 6.605566470977141 0.7125357326244309 1.9285081195166593 -1.4768162019213211
P 7.685647402703868 1.339950702296165 2.45267452044609 0.0191464910214638 0.32202964250979377 0.10815191181759437
P 2.4376212066017975 6.774463179826432 4.066934772292756 0.18992456231071164 2.1694569953940377 -2.3292212320712853
P 0.7509459067980038 5.7928545936481015 6.6440266118035485 2.311645427971051 -0.3643446012279209 0.31240034695014585
Ni 1.8648156192924845 3.1829244804576655 6.0642002978593075 -1.302846877388285 -0.952851602903501 0.6378927511975595
Ni 3.345010952325104 6.599539670820644 1.918824621352716 0.5037930091659517 -0.5553089176570565 0.4422657391854318
Ni 5.921168331044209 8.413063775547112 2.4221714548458793 -1.130710749409246 -1.7955275786911593 -0.8948647419760718
Ni 7.161698068503446 8.205707869771203 9.632873024825392 1.176232645100445 0.14106280361300222 -1.1138276005006624
Ni 0.07783114494976356 7.755156183208866 11.009848196368006 -1.9706400156897028 -3.5786277302522436 -0.489473507219486
Ni 5.063295568282501 5.128745579692286 1.2220009845896942 -0.1899423029225245 -1.1693366893115602 0.5488644475832934
Ni 8.164006377067363 5.366702716646522 6.990229232727538 -0.7124249180781795 -3.7864849657819755 -0.5988533779069105
Ni 1.8872993122803858 7.871614539247793 7.080164004679142 -1.644173420454478 -2.8208606365938387 -1.7489577013514204
Ni 6.903409330081561 5.059444457140997 3.2571735257059564 1.6061529753466468 -1.3308335924091983 -1.2139011061854963
Ni 4.387331172969506 2.55011518352447 13.255948360063963 -0.4892014845050221 -0.12379656033338679 -0.26368077025725556
Ni 4.354511777285655 1.6956687769989542 7.847238327181776 0.261072386100131 -0.936382144493568 -0.5306247846468152
Ni 6.477691646983191 7.423913430050001 6.3424194803382665 -0.14344801601572715 -0.5859983763211133 0.3400631029727369
Ni 7.509383555996871 8.348321688979516 0.4537401800515535 1.19347369156908 0.23059478633656413 0.9409327399787278
Ni 5.246213908506069 0.17539923449973763 9.332218288247798 -0.2818011340070502 -0.5283835540211222 0.39080536652261083
Ni 4.27977379194636 4.988132828037894 7.372474667116808 0.2421632079004539 -0.24613427673305993 0.13860791431460645
Ni 0.49160755181010174 5.5749553272225345 2.851787444075234 1.5735488161583804 0.9114774108320883 0.8716042287862344
Ni 6.727891164208335 0.20617414323934846 7.002385718117596 0.8668474308275393 0.9909324689356225 1.5457091682382929
Ni 5.2550016155471 1.682756227877439 5.734382833382715 -2.4997959291004754 -0.5113440820403322 -2.147620873355553
Ni 1.922270799484489 8.367832097630226 2.419076407435832 -1.7276283437460247 0.053937116338087746 -0.7442407770371957
Ni 3.260097727254089 0.32374535713019587 13.562680867386689 -0.07727656239497659 -0.14431087823665467 0.39657106536179443
Ni 6.138926012501338 5.219482666465037 5.700840410460041 -0.38086008238444086 -1.2881373390922526 -0.29068198143644775
Ni 4.050349509089967 6.868560549850104 5.7685057546759815 0.8490021751160022 1.257134462952835 -0.47695814836129474
Ni 9.038765507064735 6.119963065728586 13.113363801749129 1.1316108926260124 2.8088399579838788 -1.2286751791708774
Ni 6.261274303227271 9.06978205415048 4.711084081298019 0.39175898868513176 -1.4607951439027165 0.08074498055955127
P 3.712131336486074 1.4073923422619725 2.0343032094100546 -1.2135270106755296 -0.48757654730708944 -1.0507029041260356
P 0.07048854848658627 7.498623098395608 1.3890353791541343 0.7172452222849582 0.0262933864788902 -0.08620291835032896
P 2.229189255065763 2.129334096325626 7.956403169546584 0.5788082863305773 -0.26308504565478563 -0.31773872844392376
P 6.00486392538666 4.11521430263021 11.601527059970058 0.33827747182722384 0.43458791092519994 0.16689853372918353
P 5.432171606052098 7.6271916887349045 10.680112851173106 -0.7891648912433957 0.10459427637332308 0.299503950603452
P 8.167904683198346 0.10353731181930602 12.452554661457699 1.1795817640783361 1.8680740826003182 0.08592601053985847
P 2.0116675485560305 7.800822055028961 11.814899383004777 -1.168186377757201 -1.20152355845675 2.089375359450098
P 8.616813984126807 9.016121351112606 5.080204589113117 -1.2243366996965237 0.25387638257232403 0.9344787568232681
Ni 1.8728387675039522 3.1327467676433574 3.605253563311428 0.4702411413524352 0.714469202201718 -0.7210149737400356
Ni 8.226398153158893 5.75576877091533 1.3173914973250969 -1.2447551154518757 0.29082030678652493 0.63702603232189
Ni 2.003823741304584 7.042917718982141 13.824321393961387 -0.5485767411395455 -0.5232981690784149 0.4784540161805309
Ni 0.7717315240644426 8.947462080418234 13.56730880805502 -1.2248244379662196 1.2284700051386068 -0.07454836483053612
Ni 1.6243949038874337 2.229963252893222 12.867651584123667 -0.8789555269449831 -0.05353628135524328 0.9814638673235548
Ni 1.594114598637565 1.2043689365202568 1.5462362257106843 0.2579706072463557 0.4043062292225231 -0.052076666090581286
Ni 3.3080195195712907 8.748374736799086 10.7194442115053 2.383060132268612 -0.5619431351441226 -1.6548249866310534
Ni 5.681351711504493 2.6162259247869635 1.3684187199500313 0.06180700600446774 2.8271945492316664 2.2613816467194923
Ni 8.998045670142064 3.961254807951093 13.32822748645139 0.1944363341381361 -2.506272023743122 0.08192768801374278
Ni 1.2350079236901677 8.763769742367208 4.846442142823795 0.8071723835644099 -1.1601228840227762 -0.5432018499808774
Ni 4.325033786856933 7.5528029463177555 8.116256374511865 0.717552469112732 -0.9400151132604649 1.0070252607324268
Ni 2.6556526189979057 5.132181374926374 5.261788255034212 -1.7433894632350233 0.5280675654426003 1.0219379161782012
Ni 0.8490765606225702 0.24500523668306246 11.025237538537388 0.9126431490054153 2.7747592142500856 0.5881725011542966
Ni 5.871566397101547 4.038333664768558 9.40610110037773 -0.5138858746255796 -0.18841815296851422 -1.02946919155824
Ni 7.411538903808549 7.614298017609181 12.06780883652582 -1.3054701739437453 0.3008987740684495 -1.4904595037363686
Ni 6.469725132759097 5.918959605536582 13.345703791055547 0.6314125427898545 -0.39799031430682424 -0.9741760754128901
Ni 8.100972749118915 8.045952830384037 3.103869097480811 0.8476502890737982 0.22556005212613411 -0.3281666086454671
Ni 8.700311359513446 6.512493232225169 4.8504905290213225 -0.15155778960705513 -0.6129448230029702 -0.23692792764344361
Ni 1.203207939779068 3.9962734901446755 8.34942416393375 -0.13907945463438628 1.3837965177594749 -1.1752255439921695
Ni 5.626435621746469 1.9843888446370406 10.990741776827237 -0.8273007788831688 0.5650757672358332 -1.608410918142888
Ni 9.441452035297246 8.879605124545009 8.876781920274363 -0.1653730982235926 -1.7289236655186802 1.6210558606004082
Ni 8.858065331346692 2.4356578950394616 6.919123373778564 -1.2428473569062015 2.395838772090519 -0.5561946626961195
Ni 7.12782150505526 5.746688454939527 10.274437936206771 -0.018781137262245073 1.029897280234594 1.4854332541663706
Ni 5.773750061906912 0.7683051678282511 0.4177209640810115 -0.02983482397324539 -3.481602010254797 -0.09037993254615402
P 7.051308988111547 3.978754710049988 0.5018535840260409 0.4136691584946618 0.9361060080140459 0.842737425153213
P 9.386507628545537 5.011003519939524 11.301991788542916 0.012101411249224321 -0.9136286528471361 -0.8509487573194118
P 6.607855427966884 6.138482379600233 8.119916817895874 -1.1635964443936733 0.2135013211893871 1.1047804026967294
P 6.520856184360886 2.6225311753813876 7.015856112014754 1.2914455775298792 0.9004332372027848 1.1308459894355298
P -0.23487058464229438 3.7482260644397822 4.828290005970296 0.42138735307452585 -0.9654302108994598 -0.7355363072846623
P 3.7648009447448847 5.466359656430846 9.411474721879834 -0.5178057785052761 0.10568031034865025 -0.2902803751226549
P 5.40368471040244 7.791619032080512 0.28945819727354133 -0.8125668151071037 0.10683833521249343 0.03368813628106456
P 7.157677055399816 1.2488832505970588 9.530559007133386 0.6283254192240986 -0.031480587106784495 -0.09109778454878505
