# total energy = -340887.15263549984 ev
CRYSTAL
PRIMVEC
9.08747251926364 0.00000000000000 0.00000000000000

0.00000000000000 9.08747251926364 0.00000000000000

0.00000000000000 0.00000000000000 13.30043460774384

PRIMCOORD
 96 1
Ni 6.514127371330768 1.8247553615399112 11.646950765879321 0.49672864612000256 2.0433940076239776 0.823910265144381
Ni 4.312532706147228 1.1038098296776644 6.130742361349372 0.9302408074825206 -0.9792768869745649 -0.8524291985196804
Ni 2.0666457007023045 1.6797829150504058 4.966289102400824 1.036613773022821 0.7212725982767965 0.2937441653015393
Ni 3.4935060851505715 5.095263962555463 5.131959175927532 1.6932069288433613 -1.117175948147605 -0.4518469551159638
Ni 3.524985089390504 3.263429460050509 3.322541650229468 0.2143184177740438 -1.1080860700311947 0.732530687689119
Ni 4.948192309951804 4.949564518277506 2.4303218006387906 1.9989404052962927 -0.8722508612312978 -0.4658741226329912
Ni 5.7299602942903425 3.4192886984220694 0.3578201327505125 -0.1742349194895967 -1.0331335277837046 0.32945601688085197
Ni 5.841045556365671 7.85848259426219 12.580960265844638 -0.9584830901576654 0.9713085240571079 1.4505796368222954
Ni 2.5036440713402617 5.635505106625833 11.595890984954693 0.3796784033715138 -0.626075189737341 -0.4266853682486716
Ni 1.091160068158615 7.894641646765278 11.712256068468648 0.2288567205995349 -0.6025765923947687 -0.05441585574671918
Ni 0.48433228789677335 -0.1608255420139173 4.855522810605178 1.1559427845031576 1.8540340595674845 -0.20742117643357827
Ni 8.787276793842608 2.536995094885456 1.5813683156805445 0.6632348295067738 0.06957070911028664 -0.09390800030407052
Ni 1.5778033002754273 1.4048323514581988 2.6505103470686824 0.03277847998260161 -0.4754339984072844 0.054507387019260965
Ni 2.357644740474569 6.66731489282977 0.39330580355204636 -3.0373686058200335 0.7664067716112736 1.5267377693421125
Ni 7.347866610071203 4.686145957104604 4.154031739561883 1.6650523207860164 -1.081573882673279 -1.5403054807242182
Ni 7.926656811874192 3.7983998701546082 12.919496782256486 0.7930444288034599 0.17166793009336886 -0.5081003782920539
Ni 8.35488577168896 0.14617835407109872 7.117727281411886 -1.357485647779088 0.7143473319118729 0.07552332714929574
Ni 6.931351402122855 1.0096363536561797 0.6282051502312465 0.18867397773306216 -0.7856861886661759 -0.6230873107536108
Ni 1.9469273398891187 6.839059032878988 9.490139164464368 1.3202450182600745 0.8071304745828808 -0.906216162433149
Ni 0.267497018766112 4.978826179262662 1.4764679872904638 -0.1878828492903345 1.4862922597325563 1.4028067403133906
Ni 6.652956686507862 2.1776946128882098 7.1909732173455705 -0.014853777183380872 -0.01837721695560706 0.5952890575944199
Ni 3.629400146756794 4.369056784199301 0.5381501166813373 -0.18253521182517596 0.6920908345065176 -0.3046291876451592
Ni 5.859892974031265 6.0789737575810046 5.092603150649731 -0.49061096325803893 0.3644070790347402 0.20205476991534232
Ni 5.684450232733303 3.238375298766013 9.57572770535148 1.07837208790653 -1.1187029263150927 0.04038328891305303
P 0.2510714124832949 6.088642828167405 12.59085652323993 0.6383563210975394 -1.2668992556490826 0.11788250884179698
P 4.170931711901664 6.356232539151544 12.784563266478255 1.5890834214588696 -0.6626409046765168 -0.6114363567782438
P 2.4966558050987753 8.605236547614451 1.8687378189939674 -1.002570567395183 0.2878761365565365 -1.608160749805295
P 6.503767652845339 8.356185280235815 6.104274189366339 -0.22500752205677377 0.04985857539333994 -0.20511284001537577
P 4.958970052165592 1.326689176672061 13.12606593386698 -0.6582288916517504 1.0402169169930473 -0.5650006910235237
P 3.9688717640740356 6.485156509460991 8.499841860728223 0.7258890140028853 -0.24782991926792802 -0.2959604562265677
P 4.755419758871639 1.3568414099480703 3.8484145917583374 0.7659064349360873 0.6650952797542804 0.4787147260410853
P 0.4696514763062388 5.927003957377658 3.841471762878629 -1.8810162445832832 -0.8324666393548243 -0.22040216207427848
Ni 0.7081403745659163 7.644527145121031 2.523278464111855 0.6585690485999883 -0.3996882708345374 0.12828210690856617
Ni 1.9271893499326715 6.811251367470733 5.10259210026305 -0.2276642429533305 1.5897238832563458 -0.7717824341008901
Ni 6.140732219709926 6.126710249865176 9.346800645504407 -1.5823641004571651 -0.21325269551369078 -0.8237115188700136
Ni 8.644467165773744 2.8922880015738652 10.321709223553514 1.2130004487480979 -0.5722149493837758 0.5060391248876511
Ni 2.273394784265442 5.675444547628865 7.065988666302292 0.37674246067164147 0.32549163291646527 2.5389278621049307
Ni 0.724525087223133 0.20276877067136806 9.597514011576889 -0.007667029626954537 2.090384517440903 -1.1767147269431864
Ni 1.6214958673613387 1.644178198361013 11.50018081735787 -0.7141149041860927 -0.5499188569897369 1.762829574237506
Ni 4.301300590315658 7.36033462214314 1.4643907365298199 1.0484945836208073 -0.9828172960276558 0.3415047205152699
Ni 5.910237570881503 8.455865764504818 8.253092450097272 -0.771170254438188 -0.020466238274151848 0.22931489118287604
Ni 6.861623226738039 1.3153661861169352 4.94910469217631 -0.937613702907824 -1.3702270066051563 0.36885945837913897
Ni 1.0923596145095595 7.930400850484715 7.283251046633668 0.3272618374430106 -0.39032971243777287 0.3116195029200633
Ni 5.133885720066927 4.950436915623647 7.183896802622235 -0.587761124648491 0.20377843747466842 0.6854185646926647
Ni 8.516152056112125 7.5496721086728735 9.556282332004887 -1.234568661837177 -1.0761899926535465 -0.7158313726565672
Ni 4.863642467154941 0.7397420596826502 10.493045336093964 -1.0710904666434522 -1.4549543688512234 -1.508852918641892
Ni 8.177325649332133 7.310835160221975 4.953812911603768 -1.347656577503808 -1.6076185041485798 -0.24036343568755378
Ni 7.371848449617734 6.721258128732842 7.29439683147786 0.4858464519898601 -0.6393659933089764 -0.23232076788873537
Ni 2.3953577507504704 5.567848874938101 2.924593057050926 -0.03976391016149926 -0.11062274195559012 -1.0019535026364743
Ni 3.744765608311628 4.26368754223567 9.478927041071982 -1.808782901039169 1.6848300176335755 -0.15637398004877587
Ni 0.8190684233694923 3.4669161410379723 3.9809799122406893 0.2075042230656878 1.5890006319370764 -0.5771671511827285
Ni 0.7110156508192403 0.18116966637648582 0.35867980763535595 1.173291045973618 0.5794927139921117 0.9602576655595849
Ni 1.3415562814458861 3.6767458777296715 8.423178126441584 -0.751687206012912 0.7620878325209456 -0.05180772869991077
Ni 5.338581034877691 3.22169069952106 4.781971535600345 -0.21207744425866704 0.723706918749902 0.7391751895888302
Ni 4.155164947364631 7.360025648083048 6.264837103429178 0.45845340468888784 0.18944350890923503 0.7837280364985406
Ni 8.268436647169768 7.501235881017318 0.5104614971609415 0.35881827209305306 0.6688395772880611 -0.9592713903869157
P 0.25973359113268973 6.050884380529726 8.120260866674899 -0.2119002952508544 -0.8284698594906054 0.35689457270777886
P 8.765166973601339 2.172814640233232 8.241627694973397 -0.4158803072133676 -1.2191893511676295 -0.0811193331798345
P 1.9098413652057569 3.6817258125805616 10.773817334477192 0.9855629770935931 -0.9420280299254357 -0.6882737747532727
P 4.277400538020328 6.521888072722483 3.536106338059335 0.164936010686174 1.0792084677648963 2.400293979648395
P 7.228711672544067 4.276346391227074 10.950779501153017 -1.968384386886307 1.0198774341047467 -1.1796005331314137
P 6.485974381972999 8.361256089810261 10.639841638285244 -0.44882745156334963 -0.30122247595645546 -2.3907531300374956
P 2.555887949912829 8.836203745005367 5.933589648593789 -1.3122095495501078 0.4105007880690092 1.2623815702843872
P 7.252030126608636 4.334806100890899 1.744258531413663 -0.8398588180538376 -0.5174761630799991 0.8538227364330973
Ni 2.776731703099563 1.9469546023061857 0.49827428798479434 0.2278946137965817 0.13987289706995912 0.016688773509590613
Ni 1.5780032246672513 1.4138652989797038 7.2943704778080285 -0.7358821206598553 -0.08909489518614334 0.23748071482312005
Ni 7.231701450949073 1.0634887148356948 9.534070732073234 0.11664220867679265 -0.1754957884798913 -1.4770103202099982
Ni 2.653941776630172 1.8560889662221538 9.498545076393334 0.9271277157748354 0.6744170713758385 -0.782033422404937
Ni 6.690642434366696 2.303937778852744 2.641785464860033 -1.2325140933009935 0.6830040417139012 0.8616008377166194
Ni 4.223484564534323 7.223113789572993 10.724419652246409 0.35908643815277513 0.4886008748065457 -0.804957378190962
Ni 7.263662091223854 6.459248125775066 11.249094864918806 1.6946007238670946 -1.187413344307613 2.0468225736895524
Ni 7.442903395966473 4.348273734921955 8.355359228998688 1.3634066412492132 -0.048210755377271805 -0.5112965166318485
Ni 3.4226601506660113 8.984175057372232 12.521827174479261 -0.2916592577480525 -0.5238265307780592 0.508718214381711
Ni 0.5336609053376516 5.270597654185157 10.401764402523277 -2.5947796789672277 -0.05840235119829297 -0.09861440464080436
Ni 8.834567999981351 2.468866314635232 5.988254429801898 0.19302299873037723 0.7949706992918953 0.2789199558045132
Ni 3.933303397274066 2.588575587976062 11.466397230128548 -0.30926951463064806 0.700872951574522 1.3383561260384886
Ni 1.413629024698457 3.929768370527722 13.115664413008718 -0.6771457831609112 -0.5065104080971149 -1.7626783933716224
Ni 3.2284972163154335 9.053076272772685 8.231665099029911 0.7665288990114346 -1.683694875587868 -0.04913275297090893
Ni 6.0014485309150505 8.178679682713122 3.9318075993243276 -0.6288913190298976 0.445505072058336 -0.8169937405302058
Ni 3.347470404395456 8.660088530753088 3.956293793586596 0.6053634111112863 -0.17339905385186266 -0.679946742944816
Ni 3.4964322512490873 2.908545489618103 7.384294651756016 0.548033724151882 1.2057437671856848 -0.015169251541270648
Ni 5.070627824999326 4.638963800634128 11.611625034591246 0.7838943868730758 1.1109268819140996 0.05220393569706493
Ni 8.077672427480199 0.16477677499414903 2.5073317676221802 0.08857964611262163 -0.38587656176242574 0.6628075121613681
Ni 4.406060971631462 0.5763465804865582 1.853960680196463 0.7438977918754802 0.8390705178245872 -0.01662218193771331
Ni 6.611954011239218 5.853022844930402 0.28436064121647087 -1.3275736907110038 -0.8421797528775302 0.3763593663006099
Ni 8.147854976482796 9.15690064443586 11.661395303188609 0.8541708638011354 0.02472964153619612 0.7469797732349136
Ni 0.05169499524228676 5.128524111377101 5.95409916495323 -0.4285828423817006 -0.28857779060925143 0.3158772497551528
Ni 7.552389262907209 6.508829374947431 2.5322032707123276 -0.2489293229796939 -0.5256376158448689 1.3178577489748207
P 8.650237710719574 1.7035193928433343 3.923176318080942 0.8666779951292106 -0.0908995524950499 -0.9652139811235958
P 2.0354847579948188 3.561643952873151 1.979464125911248 -1.3535174071599594 -0.4548276350108425 -2.130733353571595
P 4.924555794354788 1.413156476135964 8.280677472432812 -0.08872722743407946 0.47062243595125397 1.0017066767329907
P 8.944580940318716 1.9041889574005497 12.682642720273588 -0.7806349993955136 0.026784467182695806 0.3322004123952085
P 6.368209827716275 8.0390779323858 1.5123389669198766 0.5792608004869637 0.8121960620312464 0.0501100292825137
P 1.9829955176686491 3.8293336260532023 6.071009496808522 -0.9625577744476712 -1.8898168735940484 -0.7188187374196652
P 6.789177897118886 4.092597700196058 6.111376957759505 1.197208476021164 0.40793225601088456 0.9256668149585929
P 2.5742355565988637 8.835458572272204 10.467907570063794 1.3529453367065731 0.5015178399785298 -0.09771606119625106
