# total energy = -340872.65222020407 ev
CRYSTAL
PRIMVEC
9.22676099749852 0.00000000000000 0.00000000000000
0.00000000000000 9.22676099749852 0.00000000000000
0.00000000000000 0.00000000000000 13.50429737513443
PRIMCOORD
 96 1
Ni 2.4151784516252928 2.8797827645904746 8.722371610061927 -0.8796301844145045 -1.909476556806505 1.264180056945707
Ni 0.6071153241156844 7.825225055210777 4.355581009187323 0.5618325777081872 -0.3955372247806414 -0.2748761247524427
Ni 7.060280451676234 1.9481198202892027 1.4952501017004185 0.2678346445246291 -0.6808322308735629 -0.24431547835676629
Ni 2.982209036152346 6.204885912088991 11.517652931282877 -0.7599201354456654 -0.591440373272291 0.1849780169387137
Ni 6.262737702260411 6.304922452605504 13.178411745410077 0.052381856035825916 1.7394631315974236 0.20326987326936605
Ni 5.825721404065971 1.7341143304589128 8.507477583167281 -0.0040919106811865 -0.17599586804476142 0.20216738423380667
Ni 0.304878934203384 5.794415004695695 7.108270679912214 -0.6628833597046261 0.4328246483771901 -0.038073409832953785
Ni 5.811632140335227 0.41120074417201374 3.0493106540186385 -0.8401408680706306 -0.010349975775756368 -0.11162855751228518
Ni 2.5675491793590783 7.09934655687333 6.071343312429177 -0.4388996509266764 -1.5876487458948723 -0.855625593969791
Ni 6.496211657363698 8.715312215379287 11.63755745581472 -0.8422630566199559 -0.1041510181883174 0.23545777085582031
Ni 5.805791600753328 6.291811225518807 10.630379933156199 0.20910422056295602 0.3701650645644399 0.5075349927068872
Ni 5.150387101351974 2.0973257690710265 0.40061026813393463 -1.2249954163264452 0.5198287224725757 -0.6109383340959027
Ni 7.808681473109125 0.7619883493765011 9.809372608367976 -0.0006299202745150441 0.048270919191245897 -0.8591143238493398
Ni 0.43537024406898905 6.665688799607502 1.7588402040316993 -0.07602366382448197 -0.6454271119013917 0.3112148112824769
Ni 8.175860418862182 8.398188446927659 13.43323734766419 -0.30454665523368196 -0.8766055386555677 0.7867848210469933
Ni 0.7409190411059369 4.85865537860238 11.776219985038509 -0.5901825896057901 1.0915962999062878 -0.11876825388085997
Ni 6.280056332268665 2.854547573821921 3.3934273111698667 -0.584733907786393 0.133624345057086 0.18930158401473204
Ni 1.8537116038563526 1.454414303783246 3.071890383030999 -0.1060574911824109 0.2719808054825187 -0.09360075347629687
Ni 7.992773804448866 3.2456330567893548 12.847852890567921 -0.7325738822222287 -0.23549428052071056 0.6553597976340713
Ni 4.761562174778798 4.678761223423404 6.06594104398494 0.8870341901880593 2.426326142046099 -1.6358528164039245
Ni 2.0947053690058457 5.379792054945598 0.3010590552351276 -0.43514018388424414 1.9123888453572935 0.07723208231028636
Ni 9.10080628130623 0.568374000898498 11.635207399840771 -0.37820336148788414 -0.02396113880128777 1.918880366618908
Ni 7.6026386778431 6.643489213139809 8.652081223665611 -1.2317090809011948 -0.7068050007882407 -0.8793813016284919
Ni 7.164893465546021 4.795202944629676 6.887704963158179 0.4962910443619518 0.652433882236528 -1.6655485436961446
P 1.1185509841612584 0.9224758585797914 9.717070861424144 -2.179324632216737 -0.20897437985331105 -2.0864389025295935
P 9.117479038058983 4.460253074326183 1.2862464388959542 -0.4605226285130907 -0.8485902843895643 0.06422615696892164
P 7.77558508214503 2.690154376775 7.4140750582231245 0.15954055070221557 0.14974619031961306 0.30002459899361233
P 2.36759604621636 7.395165734654175 2.1900187306724783 0.7576506226851984 -0.0763008287452686 -1.1918947771177344
P 3.8196298457150397 1.6007784102408598 7.083044715904452 0.5016913894419166 -0.40356575151207263 0.8038284067928414
P 7.771774429937565 4.433753817329004 10.956413984505522 -0.2915957514999688 0.9499498558756737 -0.191868830521276
P 5.223629128525935 5.663016704244148 7.9972986079417 -0.5294269076839722 1.8503069884248842 0.09096640117724335
P 7.296799237841176 8.856334027337818 8.155285664970116 -0.010590631031652729 -0.9445775358201669 -1.3403147924267562
Ni 3.1005514700819528 3.5488336432045124 1.074168419395299 0.23784606858233875 -1.6857255328646517 0.4805188691293596
Ni 8.725378611404329 8.730370288993283 2.3567702877780614 -0.5504143085689166 0.1543824035400438 0.2282129163679489
Ni 8.921594906425927 4.170901855861154 8.83964281706348 -1.1372004708986478 -0.9871758301066674 -0.0440288560854403
Ni 0.01119759689825127 8.047433135385946 9.33056461983822 1.5591974325327147 2.1344321425794206 -0.8559189568404936
Ni 5.575288662625351 8.881735299800644 0.6724841563050719 1.0264373467104515 -0.25681875303009966 -0.6910168847160486
Ni 3.8738186118516826 0.4418465074695185 12.390367946230533 0.22065310174282002 0.1828530001759109 0.06207234385071245
Ni 6.389255046252519 2.7054062123656473 5.683836889973304 -0.2050315931554791 0.606420134510575 1.0469470366280293
Ni 6.200041862672723 7.285422641783542 6.567017819688337 -0.036701726296407756 -1.053468896906947 -0.030496625926960383
Ni 2.9421003069856533 8.407295259830242 3.8696158223105215 0.9958453328562074 0.19864985799885143 0.7439201604729833
Ni 6.832619355872468 4.338505965664 1.4525218951446244 0.2615495828468657 0.5882486058078708 -0.4522369914655308
Ni 1.0478370894445495 3.1897465666668205 13.410294084276591 1.011938381763328 -0.4636714585547176 -0.19505571288968987
Ni 1.4486014444837254 8.17547289490888 0.2925178427691493 0.09420084895414099 1.8412621046137967 0.6066793017092326
Ni 1.7713627637798097 8.653972709628155 11.128688680621728 2.1128258771635546 -1.898279659649421 0.17021782791040363
Ni 4.426381635455485 4.592583277617812 10.129451708301568 -2.1760580456503233 -1.629127838975265 0.18127897082057168
Ni 8.449830627085465 5.49546795500606 3.319613224826747 -2.2102863707055738 -0.02639057417838681 0.46363880554456927
Ni 1.9257818324096163 0.15202933758444803 6.1997955081595535 -0.3695446573716216 0.21176196990077725 0.07566088116842454
Ni 8.413089665608176 1.0930389905689175 5.51510065662117 0.7783145787924531 1.2199401132907248 0.4680292213027811
Ni 8.899930472084224 8.25519210815945 6.6089626742528145 -0.443099805050953 -0.824897825868631 0.9373388519798824
Ni 4.81890649310661 6.606923560117585 1.7449714598839063 -0.21607242435067306 0.07140596254681252 0.5846626882288254
Ni 8.02417247142707 6.896929878598911 10.908204159362672 0.8011760567716589 -1.0319569909771 1.873095961294942
Ni 0.9973021205818913 5.88698709573076 9.47916621578811 0.16543274781693446 -0.18036674341894746 2.2070958887927348
Ni 2.2429056008612442 1.787186658539616 11.173131219332841 1.2916726059390207 1.1211459885389465 1.4799321218424835
Ni 3.3101557950140346 3.6621290389804084 12.301320477818352 0.13268177863815858 0.2858043416291723 -0.8093290248960965
Ni 5.500136695967263 8.392929193275712 9.450995992411338 1.118931240275815 0.9246491723273561 -1.9600941218530563
P 1.9243332309651324 1.0860635594094927 13.519016697403531 0.10921814829857963 0.8019664138834381 -0.5486793281556809
P 8.412194669811266 6.464019488957306 5.326864587009343 -0.522778549129519 -0.14511306242297586 0.47506633065522047
P 4.23592283916865 7.9608030783015025 11.034415174896456 -0.3507290673270153 0.4507904888269914 1.6635168579780963
P 1.7060926579309057 7.191983235233946 8.084050458268608 1.2035922680603206 1.5551127209403797 -1.643397461520402
P 3.986034476614811 2.21399815929712 2.5790641768286044 0.8518596991694555 -0.7945546948003993 0.5549672180469216
P 1.4545342516735538 1.9682526123392887 5.141598611696748 -1.3510979990851892 0.32851602156508586 0.38961597420019994
P 7.178004692632717 1.0928913623962313 12.947190965292414 -0.3360406120769051 0.5731274338957162 -0.295715172984981
P 5.142535127917226 8.556759557914265 4.896199068268649 -0.42639457648113016 0.06840857048138542 0.08065062107353206
Ni 3.429789975454646 0.3631090215673126 1.527714459550202 -0.28534617104583115 -0.5363840557280956 -0.3817725668963812
Ni 3.0395994882841215 3.4180443089652965 5.3641905251209 -0.7290072479168929 -0.4407433890036345 0.14795027476145486
Ni 4.94166854545601 6.5951225330634795 4.132963260832949 -0.8234538943332528 -0.5831346816200731 0.4226286816807947
Ni 2.499990836833538 4.977145440704673 7.76988663467934 0.7197615609489089 1.4132737012829855 -0.6311027248589196
Ni 9.146284985254384 1.450908134681948 0.9752962960908487 1.464113923863304 -1.111793600789769 -0.22314244382357698
Ni 7.403414458803019 8.54327003363506 4.491258681294611 -0.047276673598776645 -1.383889077473281 -0.27379111921838006
Ni 8.718476994331247 3.2277146873295623 4.375851279973223 -0.4251720169279387 -1.0451212962732 -0.30942455215127357
Ni 4.027573353704401 8.586635809361644 7.259923565656312 0.5833750797656534 -0.42057514158587567 -0.5414033633195579
Ni 3.624871378898719 7.431214689071997 13.455829994141663 0.5674478670124357 0.40615922327086185 -0.2961954550555092
Ni 6.093795712142596 0.458970452825043 6.412880167262713 0.22343786357680873 0.7412374714344976 0.4684827639004319
Ni 3.642300730036488 6.818723854118375 9.304608819051742 -0.36875507159079074 0.015567258310637705 -2.215774133293023
Ni 0.8697606061417731 4.936704548149436 4.953240748842454 1.093590447518181 1.7576477729262503 2.470818568031519
Ni 0.21125037905753305 1.128884956249295 7.662459458767723 -0.099797369205312 0.5778009281119856 1.4913197948541348
Ni 1.2814494459597308 4.354449808314114 2.9260162175714877 1.7064026015980287 -0.7495891858333026 -2.192357554141295
Ni 0.9743551664899739 3.428442868378884 6.929932156602919 -1.1243084454273282 -0.9453954037357719 -1.4051323031227734
Ni 8.52532398389289 5.852940348404996 13.28733734727446 -0.4978298496039814 0.11393869370270053 0.1242238776787925
Ni 4.382305399147849 3.602265814956138 7.922984431163606 1.045627032265025 -1.6107164263476133 0.1715352611702465
Ni 0.10496547613207488 2.747674003557876 10.855644839182053 -0.19046886484995587 0.3411367956528899 -1.2535611437792797
Ni 4.439252966761566 4.328937814721773 2.704829539816091 0.4593301508668863 1.345609208056476 1.6997113056207822
Ni 6.452172328099236 4.32637277522135 9.023395603606042 1.557520559050924 -1.2593888062046505 1.4187401237141952
Ni 3.211503268616455 0.4449586938849603 9.11819595737259 0.22073820525745855 0.6500368427592612 1.0355405945633003
Ni 6.685323346574772 2.4720429783918743 10.807866826444311 -0.7094627501260621 -0.624503474374847 0.4219830776769959
Ni 5.702156623527588 4.090545996115875 12.205075213311638 0.5703223603467532 0.4581276459183529 0.21185298695268676
Ni 3.848408112628064 1.1547014329478014 4.938183597904536 0.5404888219250885 0.2718291103960028 -0.5357754756098191
P 3.0043163550121106 5.380936173283917 4.469530582303435 0.1740120048455132 0.3877604090486999 0.03310321031187202
P 0.6891910520727579 7.1424170762545405 12.179984882687531 -0.818817681112822 -1.3312884205584299 -1.2547657056103423
P 2.1552052395248253 4.197382659336748 10.423224390538552 0.6370877387977608 -0.02717990284890158 -0.9413343462925208
P 6.147080255721535 4.804245170206707 4.313407330955181 1.1227035628340534 -0.7305452818279741 -0.1597488100582797
P 8.04687030297758 1.320072666638768 3.3836229551513415 -0.4947185576685093 0.028455170016899383 -0.42112355789017797
P 4.359063188710559 2.298607555767921 10.563749802766424 0.8921794818344246 0.19579130550413376 0.0309239432723661
P 6.792612121074496 7.516414598233543 1.9152605570774837 0.8705511049313717 0.4071141309849634 -0.3851067734759368
P 4.4661582012336325 5.264180742210686 13.52036749518361 -1.8054751768221742 -0.7757380763145285 0.4283820392248042
