# total energy = -381173.919444554 ev
CRYSTAL
PRIMVEC
9.18186851505652 0.00000000000000 0.00000000000000
0.00000000000000 9.18186851505652 0.00000000000000
0.00000000000000 0.00000000000000 13.43859268928178
PRIMCOORD
 96 1
Ni 5.614997270680046 7.039169359524879 8.243555060323533 1.91721660576324 -0.9609899157399193 -0.43558138518672074
Ni 5.158832858075197 2.80890805216607 10.98137341324539 3.524036525269924 1.1294791909949902 -1.421992569213222
Ni 7.674793393400671 4.140747270634817 11.756430548719246 -0.6669613864287416 0.05252686625412244 -0.22023375481721427
Ni 7.056467999917535 5.784650656314388 4.614691453545578 1.5958330814778774 0.07170472473415393 1.1621172887449858
Ni 5.311481423111239 1.479823394269402 2.6166957336332577 -1.5487659527867454 1.776274386888502 0.023062024025786085
Ni 4.098988132362099 2.9420543283517926 4.585906295567352 -0.6235961320692293 1.3976141403688573 -0.42276520725865907
Ni 4.393147655854412 0.8000676272814757 11.5058142005635 -1.5496198161466086 -0.5377847927303642 0.9418745350667069
Ni 0.523264589953834 3.1535494890760143 10.816051115017212 0.66550639914977 1.4262683137704406 0.37052553322765214
Ni 6.122616874771328 3.422284418488037 13.395280233935908 -0.41506526751124 3.9674880572333415 0.4114356411784527
Ni 2.9362146599389853 0.6412479283771196 6.638490060523417 -1.271112779509798 -0.08511431327184052 0.7166111882453852
Ni 0.7201853706911862 0.1766701695982851 2.323747298605804 -0.18132525067747482 0.053902663555726524 -2.022722338207239
Ni 0.2021682186271626 7.76943091278873 10.685656644842995 0.42320280901670987 1.1178624326916682 1.807127624823933
Ni 1.6062118151849578 8.904245595405243 13.04537942270701 -0.8192257151845181 -0.7574827296487665 -0.16262870270923604
Ni 0.7851305634859489 2.6068243067297843 1.6243230509463769 -0.2399057793248449 0.04326858088064806 -0.7802447059356304
Ni 6.8456247518620374 5.991811975071872 10.391243701778054 -0.8268688335520727 -3.0051652816146115 -0.6032594773944062
Ni 0.020206538169913833 6.84884758773137 1.4731518485638266 -0.9049781762609899 0.9961885751282391 0.7093570777861332
Ni 7.021154533383482 0.38222282498167537 3.543515383825804 0.1673003971532925 -0.8675799381181897 -0.20897155163983366
Ni 6.729547569354631 7.001633880796016 2.791867422280332 0.9455152171430877 0.8965179613087785 -1.3014373986352685
Ni 2.879645167657057 7.489338011951168 11.382878162231618 -0.131013132686484 -0.02603447639054871 -0.18777074919250242
Ni 2.9676166504606853 2.493685322165928 10.447753511914254 -1.250790265902362 0.09499969070635252 -0.6624593847933301
Ni 4.707167561071412 6.288487330553349 1.5642525121773363 -0.9817688001584833 -0.614286167522213 -0.05425490468882269
Ni 5.941825882557213 3.8919094504217777 3.08681750465683 -1.3509586452938476 -0.5609897700919177 0.5206314208795292
Ni 6.447609112933777 0.8538568497593189 9.646988062621183 -0.5258677295778039 -0.42430889759669504 -0.9971583952406762
Ni 2.4202946466571715 1.8568951909812896 3.1279403394373966 0.5489400380162353 0.3367898315381038 0.2835379141924988
P 0.6445010644127449 6.308007983140816 13.017574888292442 1.0582745458257066 -0.03493357865239145 -1.6100132296330014
Ni 3.7438885471468284 3.1561938672252103 12.564842658160407 -1.1895082791634288 0.7861692989501815 0.6770910186635758
P 5.553285931996903 6.208191889877248 6.223439300830562 -0.32494707326690486 0.7504456202963269 0.01960440449448882
Ni 0.1831286959529529 5.558804235009635 10.769029847864967 -1.0768803338523518 -0.970492713024032 1.6348230895878297
P 2.8312199927999093 9.120184780519086 2.2700471402531246 0.8801588032244648 -0.5402875045475598 -0.40174901001830804
P 1.0399200709083931 6.964520768021539 5.020859673580335 1.0796316713452438 -0.48683247005221314 0.4934900845780469
P 6.523882895174642 5.168143272808824 1.414962674665516 -0.09044292457360553 0.09443507645213413 -1.383106947891618
Ni 3.824734899937346 8.529542720785344 13.38744534548206 0.8899930157060674 -1.3137537541087763 0.848145997763294
Ni 5.572099580704203 3.9781547419335697 8.898095579834647 -0.28037725707633 0.2640443242442614 -0.4871309751292385
Ni 2.649317994488389 7.18119450262127 3.4832024437264204 -0.15241036741533753 0.23758690138368113 -0.47793388201100273
Ni 8.924767071667231 7.841315761851416 3.6229642562194195 -1.5157709859179638 -0.9718235160203132 1.0821325833902267
Ni 4.909783854884966 8.325668510977206 10.040805751237597 0.14702647739560487 -0.5584847442818769 -0.20781532654820337
Ni 3.348039829201936 7.499162611324917 5.751906276607229 0.8556834437909198 0.157336086851729 0.06669570155533676
Ni 4.816339978411475 8.422766771142989 2.6979717978730196 -0.5811089094392959 -0.565605414487058 0.8127961575090905
Ni 7.952811191940599 4.138102892485621 9.213149363453036 0.8190040860920152 -0.4288116705630551 -0.29243701645434156
Ni 2.981288452766771 5.862219082024132 13.385926664419987 0.18008597895373502 0.7931202763467179 -0.7349958614001599
Ni 4.126368464448565 1.2696045132769098 8.572773712590408 0.1986891958772191 -0.44960829559343213 1.486285317754021
Ni 6.21085463176359 2.1431399437631606 7.5876712334401 -0.13187188114235354 0.43192064850568196 0.5598577133700036
Ni 3.259517434283892 1.460431287841966 0.6816352954849413 -1.192156258309237 -0.0791660661082056 0.7831127715120448
Ni 7.818397817891721 8.535116115009517 8.017276173008963 -0.6779279127425744 0.22162137919336025 0.5725196251083883
Ni 7.39740914379232 2.5087252228894794 1.9242588879583378 0.9221716573211408 -1.0054149788225137 0.09851567427941096
Ni 5.721387581842308 7.5918535745753735 12.03826433183836 -1.1666974519165003 -2.8834042636540147 -1.014603073079685
Ni 8.103706020079084 4.818846628532066 2.7501541933504834 2.130014216017383 1.099408339751539 0.562132111226477
Ni 8.4035674839556 8.550642654767469 13.093691660580701 0.27628817460862093 0.2400050239068705 0.32822522979754437
Ni 7.350094975032578 5.148209436135546 7.252243801643759 -0.7010436728244314 -0.012160546621933896 -0.26618759583950935
Ni 1.1356135051824159 3.8661726728099866 3.6962851495270175 0.3200061843218618 -0.40979476314092006 -1.3634068983595293
Ni 0.16071483657794647 1.0375419669478316 10.625572333271094 0.6048152519173003 -2.635400537812384 1.0509191339019
Ni 8.49589117246311 1.615237591992803 8.514154827242853 0.14536708741531093 0.1554499255726097 -0.49011165502411713
Ni 1.8749834720712746 6.277762908059389 9.401558552022664 0.7051818633625211 0.928718457300723 -0.9034576258514053
Ni 3.9524179643217785 0.709850259424746 4.586148696897695 0.4505434058131918 -1.7507338194152364 -0.2454321084597128
Ni 1.3511578699475941 9.302793782710772 4.69541752385778 1.6790105827383213 -1.1372832604204415 1.4658021101990046
Ni 1.482118861412801 7.015498502342147 7.123005328722959 0.3153812839553407 -0.47512726580014303 -0.6723596746261776
P 2.515235167708159 4.3053965378965495 8.816052829568992 -0.25300477860064813 -1.6722120717592492 0.6220807238659674
Ni 1.8510187950941879 2.6539732018552025 5.509083498496753 -0.660385790093753 -1.3033405291952522 1.0642137941282768
P 2.795686161420091 0.10285437357457072 10.093660259494648 -0.3300867084863154 0.1795434761867037 -0.9009741973079193
Ni 8.065509446812923 2.176470126685316 13.097239534597538 1.5224013467502877 -1.3123087941321336 -0.560374505105422
P 7.712319690260959 0.25942084193096626 1.5454654908889005 -0.023241744136759973 0.01244053975619793 -1.0616154372734812
P 7.623329020045662 2.368821091433589 10.42126565745314 -0.17160930894129153 0.807576560981364 1.1998166030679724
P 3.23025481913984 4.680999235636661 3.4609887490863183 -0.0908167629732565 -0.31194243347712086 -0.3696945526859246
Ni 9.133663763585126 4.892338304595133 5.262082970185291 -0.286865435903835 0.12161883595577763 0.5756178044177377
Ni 8.338633309403125 6.984353604140508 6.147215100679993 0.11720836559290781 1.2465044940428145 0.4082505585822518
Ni 5.4872499332155975 1.452305334154333 0.1984045706988454 0.05885692223720832 -2.2468618558367623 0.4990151281613342
Ni 2.300287624400265 4.809517850061292 11.141426237099179 1.8033262487999717 -0.22541812723163113 -0.8335292762913837
Ni 6.652539237627877 0.37631704711513814 11.946196817464052 1.5687228555246469 1.4275263545472576 -0.5787658631284162
Ni 4.9692089082932815 5.890462509756514 3.953526215858612 -2.813272282723619 0.9591055542330127 0.4913167310758119
Ni 2.3912615782274593 5.030103060673374 5.647407430371126 0.21351391959487745 0.3335980640736835 -1.2409653093921402
Ni 6.105281506904378 1.8824207856158879 5.327757203344796 -0.18453167342991444 -0.9744840935716121 -1.4915565934552892
Ni 1.0560526139922024 8.561183439889957 8.719228189086701 0.7196173220615607 2.0904644787492193 -0.12271721122627897
Ni 3.5481678366320453 7.927974237449021 8.262651510582899 -1.7414089424698846 0.40847398744696745 -0.4694237876574625
Ni 9.047813292422 1.5700903442164291 3.9587001987998334 -0.8938666397288606 2.037656333809252 0.16572045426068233
Ni 6.016327564163376 8.054518750130327 0.7052786070619522 1.6639650012591085 1.2470225713298138 0.9833744540827064
Ni 5.8402468705275155 4.125900189151311 5.64048613784035 -0.5570580391376794 -0.30408205689243756 1.2216264998542123
Ni 7.529453595749211 6.317924401200299 13.103568596605317 -0.4971976153366211 -0.7755876667795933 -0.13006979493660825
Ni 5.827924802901748 8.094790425694121 5.031543695852572 -0.04521927684911567 -1.1007815659499818 -0.7434995279957969
Ni 7.7193805471940555 0.2388442744575365 5.80493432218032 0.9028559877116645 0.1084082508027746 0.5791271031225769
Ni 8.846188640414391 6.510514094531486 8.671843319938942 -1.6543074235646862 0.12360835558198068 0.01081637388921363
Ni 3.817600588055661 5.343333325193046 7.487688030168493 0.9429261162596728 1.8157058534112471 0.022544975180051496
Ni 4.202421881843665 5.70982760930815 9.932947259290415 0.6379765691606174 0.392313318526705 0.6800801831988869
Ni 8.777471536009596 4.450598607519404 0.6456598162267329 -1.7701626175638097 0.15420319764970217 -0.4073072208323759
Ni 1.488077894117065 4.133153865324452 13.080467933461007 0.6809857257322918 -1.8240493402799358 0.4859552096535825
Ni 0.661912641788856 4.792320210222946 7.488857800224769 0.6565484186255338 -1.221091967506981 0.5790895650164221
Ni 3.5610132707665065 3.7089423553557204 1.3400450544129703 0.07901977033832844 0.9151995968786818 1.7037731343949818
Ni 5.296863888342074 0.048688694485210196 6.886459275969394 0.10112482976748391 0.049315815515992484 0.6990621236180283
Ni 3.6715262409183143 3.070729034542174 7.154289791326917 0.232456007915019 -0.18487902946700419 -0.46408900570811046
P 0.42204367079850613 1.0669055826461933 6.57746552560958 1.1926992752969008 0.23775582286137764 0.2938562653993714
Ni 8.222170488415626 2.84148532186519 6.5056899407829185 0.3937047995575929 0.5560236843358941 -1.1680372537738464
P 5.386074923403137 5.21217033261922 11.834670169021718 -0.4079458828576394 -0.5448021045884617 0.3195701252257077
Ni 1.7650948689824717 5.473770950149557 2.023691179115529 0.11795501395094524 -0.9211493867042135 -0.5862714274768419
P 7.322916644054732 7.864435706919733 10.19932703941331 -0.26452434920447343 3.922299119401529 -0.6912544546481515
P 1.3536553381996121 1.7998298777963873 13.074783438627094 -0.7977441482719745 1.41333515064854 -0.7259221812336659
P 7.842628769057441 3.364126462942877 4.249994979297183 -0.8088112047194135 -0.6437278698220978 0.8901652796178734
Ni 1.7283582128195119 2.141569844237076 8.387724169731857 -0.42971567043456316 0.03472789039948858 -0.4052133144178247
