# total energy = -340873.948693935 ev
CRYSTAL
PRIMVEC
9.19759999641537 0.00000000000000 0.00000000000000
0.00000000000000 9.19759999641537 0.00000000000000
0.00000000000000 0.00000000000000 13.46161730240547
PRIMCOORD
 96 1
Ni 2.218681851218409 0.5976609647479412 12.00228389191155 -0.2569642774690284 -0.09714193386033593 0.5568659777315312
Ni 4.26998577848036 7.89464954901298 5.0643815667168095 -1.7119587555295674 -1.0498068746743274 2.0055301426986687
Ni 5.492401997919695 6.6393887001391745 6.882090368916019 4.632090456511603 0.1652895373708508 -0.17777430010142287
Ni 2.2061087320817747 7.372814518042896 9.405874086036793 0.7990271287494561 0.19249335147915236 -0.010492414890891607
Ni 6.819965180029115 2.8207475465841516 3.102498545724199 -0.682549984895618 0.18088842025037233 0.6356795455963246
Ni 2.9624917594697973 5.142258565284329 12.681570796968119 -1.0818356209750983 1.5135706358325351 -1.0013541784895785
Ni 0.1516095585959265 7.571501072241566 8.126239597285824 0.07858345413185822 1.6764839596617256 1.9990278228037768
Ni 8.906597088713022 5.363175718570963 7.621954506787293 0.0396950045967768 -0.5612715629983946 -0.0966289987796594
Ni 2.926639514850483 9.01452172656911 3.2234377875146953 -0.5691725630130262 -0.044312962984762394 0.1550442054937588
Ni 8.947471222907028 3.1992655750765175 2.015379021603004 -0.8286565215801147 -1.2672144728966563 -0.9910839069118221
Ni 5.845267920141341 5.063563900080929 5.1922530395923685 -0.9407725602517798 -1.6167726598440222 -0.47836737000399543
Ni 5.07857438320528 1.8364571899447242 4.756258289229671 0.6377773086656177 0.5177965225338953 1.27312826727793
Ni 8.709005048908836 1.5722745264761375 11.523521221524392 1.3307528597699338 -0.3315833476364999 -0.5861341305680292
Ni 0.8515745078682817 7.215774696434336 5.995978873221795 0.8707413665653068 -1.5479375433481792 0.8157367281946533
Ni 3.3103449897167057 6.290532931497318 3.369334716779412 -0.44148540937598163 0.19816726193547807 1.3889541507010144
Ni 4.398807363431133 1.9928439819565746 2.5960731737164533 -0.44542562497065225 1.1457200783338848 -0.07174971903947644
Ni 6.078601833365397 2.387163487169305 8.912869851881409 0.6346410770294812 0.4642746393563552 -0.8838989869931874
Ni 8.19581576189518 7.2170715580278 12.41702298878137 -0.34373438117673705 1.9249430278732205 0.8961621206312567
Ni 1.688421818690785 3.2839202850498794 12.23002750388378 0.23408608731927427 -0.539010180497033 -0.11183501709613643
Ni 8.11939290388033 5.698713362479938 5.371333069969852 -1.3841438737965646 0.8881022264412575 0.2604190687868483
Ni 7.855081474012393 8.007228172445611 6.268133096570208 -1.6530121017920307 0.7490430835218455 -0.16573022445269522
Ni 1.0068244765258614 1.8149440036531452 0.40785837234449784 1.488474869206172 -0.4491382979355491 0.06346716731571005
Ni 4.184797607709688 0.6580468874836115 6.616317440415448 0.6795757327586426 -1.1247974692486047 0.7782549291991112
Ni 4.027316301303353 7.66758839895731 1.5610764485325728 -0.3189255496631733 -0.3094700606772283 0.314760105431574
P 0.338587568053605 8.665417622728505 4.376493066183591 -0.7446896916491562 1.1435976326742434 -0.18732029191864513
P 7.271300607354499 6.796888401745416 8.204990367848941 -0.3121000421009077 1.0749154968164971 0.8278301690240776
P 2.7351914718153325 5.994305829790227 5.5210267684954335 0.18024384468783797 1.3185416624157227 -1.114177013420281
P 9.069247446293305 0.34057700892357873 9.216711646590124 -0.0858283086197296 0.03661893677461435 0.3163863281810874
P 1.4968266140563755 6.288261124308768 11.168740358992396 -1.0572283639493791 -1.7530377849580647 0.5693468838073613
P 5.739835831872691 0.8346058557137993 10.273570147103827 0.30599161521032464 -1.548962642178584 -0.6848189834354529
P 2.5306920344459574 8.62148988534989 7.659821945556451 -0.5114749511912418 1.6924422827631949 1.2561060216883206
P 5.444252562162356 3.620138551355425 7.124938279532127 -0.19503308718187057 0.9563501029750627 0.4193068163964134
Ni 5.922592142951646 9.052995287175213 8.136739577392907 0.2966091455541601 0.01080737502814913 0.08406118941697781
Ni 3.5473027573224987 4.87149042024893 1.5421220345480984 0.3169452860083509 -1.219072623084107 0.2096148416507874
Ni 7.996908465297621 1.1852855084264635 0.5501516819473758 -1.3540501397349778 0.09018967091221887 0.16556670229163742
Ni 6.643794350516971 2.508544213757577 12.189198437929548 0.030939369891333807 0.29271906647113455 -1.7636492419253238
Ni 3.6489730272101064 2.860711118382746 8.719708295974893 -0.03843722093027574 -0.653641529391384 0.26299171461003096
Ni 5.349351725840632 8.745602299124394 3.4100294977743206 1.1949086242433937 0.9563824988748948 -1.7635844501256597
Ni 6.483167464926489 8.180713302771291 0.8594237396687235 1.1628971043338037 -1.1921554869782887 1.2628255998003413
Ni 4.379749936327177 5.069073262453164 8.78069022318756 0.9248880278110393 0.8523140130980547 1.09347629053782
Ni 4.429628520875802 1.5131155635742835 11.745974374003286 -0.5030800422593271 -0.5491164156930994 0.9358093027092336
Ni 3.564373502836467 6.8719224221672635 7.392204898265173 -3.0034202738990468 -0.03030533585176071 0.34814459442929074
Ni 0.59374830572766 1.7612300199238498 4.373612377878109 -0.5817010344973401 0.8350002044099555 0.1589034313388489
Ni 0.7325575644680967 8.341643709160243 10.963343235867546 -1.7513837942944095 0.09296183434071732 0.007996387941915262
Ni 1.9367846102390998 -0.04075364563461202 5.75461269595822 0.872927061362716 1.7700451181493384 -1.4254920977260481
Ni 0.592772440372578 6.592821251573863 3.8265593673551166 1.1822207443630801 0.03139779758499109 -1.4690010767522765
Ni 3.2518390564115607 0.6359993206347256 0.7814041783019222 -0.21904230561227436 0.3729552257150674 -0.18422391238150854
Ni 7.417284913818776 8.522146608250555 10.115045832862748 0.12029497493803154 -0.6353046787554091 -0.5418157682666281
Ni 7.453882164034336 0.8194693654700833 4.548546130196487 0.5739131630218052 -0.5454214833400155 -0.6585978449553948
Ni 0.28095080794407956 5.4626017740698805 13.104588653556215 1.2586007630857163 -1.1496572086047618 -0.590318600963022
Ni 3.063665358959908 3.8138032159794046 4.54604162372911 1.1357642526727536 -0.3432353300531315 -1.02906141459686
Ni 6.941373499417248 4.790956235054803 8.958409928531898 -0.8780247876005975 -1.1781324332263194 0.07469028972503912
Ni 7.828785535744918 7.952962332719098 3.105622050668457 -1.1137376118900175 0.8703513302157396 1.3604578430335343
Ni 8.836152670668044 6.795177648154038 1.5242051098383949 1.4522112588884475 0.781617417913441 -2.084584108709042
Ni 5.066875036064243 7.377588072418837 9.65083560512225 0.23039295473840318 -0.6688745442910545 0.12202969824095113
Ni 7.902458311373626 5.320949537183772 2.9593746928455067 -0.3179320754016524 -0.24041897151583755 -1.0500264468843012
P 1.750220492779335 6.113469934789671 1.7737700277006516 -0.15357996224340648 0.6299734963504828 -0.6334262307857736
P 4.771889610350894 8.492465953200139 13.130353890306365 -1.6885807429252595 0.6915681292338283 -0.6833262009400103
P 2.9684426066398064 2.895330884608271 0.6863874522207822 0.2555583982604373 -0.08142169491160171 -0.09733450948711624
P 0.2889058121439884 9.111197699681888 13.098637806386206 -1.0292979560876983 -0.9117201229705137 -1.0347412385904566
P 2.8085607266455703 1.6343215357634362 4.518566553147577 0.9814474122633225 -0.4470582754780687 0.22960825405357876
P 2.584654353374001 2.111125117360468 10.542694681027509 0.2737345549488318 0.9068923625645672 -0.4826590554008139
P 4.6209018095118335 5.8171508570830435 11.25357534192485 0.5804458219340004 -0.9116908123944749 -0.691165494478771
P 4.943185711887605 4.212657137969282 3.2813366792229 0.04640172719299105 -0.5418563916965765 -0.15467782329327553
Ni 5.5126183226178105 1.356526424363453 0.7117277598530737 0.37378929158058855 -0.5850617234394568 -0.8137592927533083
Ni 1.5274270291021572 1.5484803353960541 8.613268150751326 1.358665269909486 -1.3619431693298092 1.5873052465125244
Ni 8.2965110861877 6.2445909197288545 10.310239138599023 1.0835343488337597 -0.9277787190952731 -0.5010956648394467
Ni 8.717402457666516 2.5154424137228117 8.835182323872933 -2.1288042548696824 1.0709128034150073 1.2315766690883885
Ni 3.283616764251409 7.568447469056956 11.535394403304554 0.7114931502925295 0.14558511696338797 1.1863921021319503
Ni 7.05891882682485 5.029404013853086 12.353174169663152 -0.16300279821920313 -0.12962293720717677 -0.6712633562382052
Ni 5.820057298668396 6.2272442462162765 2.828904897983041 -1.7628611988063898 0.5539626880418073 -0.2033773453815078
Ni 1.2846379831257522 4.075944012258282 10.074243439948383 -0.5579268148958779 -0.03190970422440311 0.09337732461158113
Ni 1.756493255947722 7.958407311891657 0.5800944685964718 0.6787362675764826 -1.0752219723133223 -0.06587423409530589
Ni 3.475211968885818 0.11551817637781786 9.700509083191909 0.5903803074388928 1.2663408120424513 -0.37488226753445114
Ni 4.971560307744604 6.210385045501243 13.387268610291581 1.139484124726502 0.10550136156862477 -0.12343763433207128
Ni 4.686958972378922 3.6035828714388614 13.060838429856705 -0.00017406368401905506 -0.29102239549500203 0.7254341858536538
Ni 1.2939919422786108 4.4381454984328785 3.0593406474617035 0.43092228914815467 0.1809382996517013 0.3025003142276145
Ni 2.5255413784719156 2.1814315714061414 6.780185560229594 0.21502212870928777 0.6612429958877257 -3.3952368552949914
Ni 0.9485300880196502 4.718460752220161 5.525037841835218 0.8356584068192446 -1.2852718446189995 0.9193655553309134
Ni 6.673042718369567 3.458904624168003 0.7540348801198565 1.27783492872498 1.340256685495311 1.590829457615699
Ni 4.755260349634701 3.648807470410941 10.737268988286903 0.25972101427855915 0.7274820695216181 -0.42909757723459
Ni 7.630954358341936 3.5847645819337006 6.749695516383256 -0.5797806775461757 -1.2272811270368285 -0.8185184047048483
Ni 3.3932797484987356 4.4423396040117415 6.790013195780065 0.4825690667901689 -0.3547459017958922 0.3036364847145867
Ni 1.842205689915753 5.486892635547461 8.381512545679314 0.370619121382723 -1.37600530384983 -1.0594860496353042
Ni 6.6110233018821285 0.041034172433198235 12.206698711361351 -0.03307827061120755 0.3624396708957242 -0.42071500959784963
Ni 1.9703374548700017 2.0624054304060024 2.490829636246854 0.9349248432217511 0.8078753231687055 0.261438254079982
Ni 0.49458254230743015 0.21113734525592162 2.130005030785318 -0.486620354041407 -0.5503263768408005 0.959294016094735
Ni 9.0759157062597 1.3229551845326433 6.6781335899439105 -0.7958230199898617 -0.2258721840499142 0.23800907652276435
P 6.392782650182006 7.2139075836437465 4.738623730838546 -0.2878668805851558 -0.11583771049762631 0.6790234597995983
P 8.865768942518786 3.2718254411108343 13.151946175957546 -1.5336519799634427 0.9001799835413982 0.7623523990362419
P 8.040155580279666 3.707672110114278 10.718355043742225 -0.4003338748383363 0.42201573068714415 -1.1330483964034874
P 0.8761918841442164 3.3347186295938687 7.334535026795814 -0.9986108114164866 1.2381581789606482 0.34810217122712955
P 6.70642080860135 1.0316212060008922 6.482845548928112 -0.34383902507540137 0.4050544202424573 0.8481058885539781
P 6.87524275575053 0.6919869510725623 2.359982739786289 0.17008438765633288 0.5852172751807146 -0.1369138144416352
P 6.991905113562582 5.807594550731205 0.9817757328121007 -0.2720003458665445 0.13688836052033845 -1.201767041926124
P 8.511882086702284 3.884863873221277 4.208680095749326 0.8254130749421527 -2.857023716777957 1.3625990577462535
