# total energy = -340886.6321920686 ev
CRYSTAL
PRIMVEC
9.12088505851760 0.00000000000000 0.00000000000000
0.00000000000000 9.12088505851760 0.00000000000000
0.00000000000000 0.00000000000000 13.34933723633541
PRIMCOORD
 96 1
Ni 6.4442336988602005 2.609850072171634 11.699933064737872 0.418896211221556 -0.27864896153131363 -0.8357247412808059
Ni 4.845187479866301 0.7851641000308848 6.19729667892604 -0.0025631327414859083 -0.04943588603362454 0.1822775872884151
Ni 2.8760795883407044 1.6819733066299671 4.983895164714852 0.11694791284266956 0.6907276356104041 -0.2636964539865394
Ni 3.5806223604973333 4.836714177577045 5.303691639274445 0.2579634081575041 -2.354536313797306 0.07496848308709024
Ni 4.3196876828852115 2.8873438814808874 2.332663636691388 -2.6396521139998863 -0.06722123504150358 1.3224258279614773
Ni 4.976984270049008 4.967161076759957 2.939844608399274 0.8377898513399507 0.23665513359803114 0.06157457827868751
Ni 5.512900117852841 3.2971270087700715 0.41804117668928276 1.2139327307543804 -0.21914232152524837 0.39097120267651375
Ni 6.160884281295078 8.146017568000675 13.010183785653284 -1.7519954597364795 -0.054628228867841404 0.056874344589540764
Ni 2.506966487862918 5.422420937326027 11.78035008478513 0.2103674035460958 0.22307379536917066 -0.9375280851725531
Ni 0.8529167710699305 7.793422390500112 11.445134753906931 -0.37851163675692234 0.8047614601300721 0.02510913636280192
Ni 0.46706867054873685 0.4600884571558768 4.572281475779324 1.6422885447269395 0.8273570860424008 1.536965874828024
Ni 8.940893586521979 2.3191948256143773 1.4989572738901646 0.13385523012096948 1.488140882905521 0.14569310329616197
Ni 1.6023388585271836 1.2364636722718787 2.715962449817698 0.641868705126172 0.8721009659169947 -0.3263483244898057
Ni 1.9342296267741306 6.462594040634441 0.6524862323442563 0.8582324354650187 1.5335799890749267 0.7306463261822127
Ni 7.846314403390736 4.269705232352254 4.152004770143758 -0.39080459519166244 0.11711066367277895 -0.7814112154399058
Ni 7.903037188037537 3.9948291170763874 13.15746692670459 0.30995291385091783 0.3733861426048989 -0.25984519856124927
Ni 8.004798903474802 -0.04334791868666704 7.418039593581385 -0.010717900638136381 -0.3374981704590381 -0.5819424610841849
Ni 7.2047695848529285 1.0519208033606862 0.2303926463900477 0.4589627402251386 0.6546609717948338 0.5417586897764476
Ni 2.0015326381760823 6.7953512929690945 9.539476299814277 -0.176155019330445 0.3229912350921147 -0.7306859211708965
Ni -0.08847623415144236 5.282907878320165 1.9478553170754418 0.796981301964021 -1.5753545019085513 -0.5425297636145173
Ni 6.742532247159541 2.3581592469057635 7.309470049480288 -0.810191630006708 0.2744236105960564 -1.3997921218567828
Ni 3.7159124496862685 4.775257653545828 0.6104745233296838 -0.3165249106414807 -0.032665094333188906 0.43619793572479715
Ni 6.107964905749053 5.975967456093401 5.095722688985725 -0.8133540868950896 0.6644838714225266 -0.7681466371205158
Ni 5.445332600782011 3.338991871533991 9.521441573639311 -0.41343673076888154 -0.20507170236479522 -0.7784431339505175
P 0.527691545678729 6.078951370138589 12.575983136772535 -1.9153736390172302 -1.5479473135401922 0.16400629978305303
P 4.314370206852235 6.559266302167073 12.754717826030555 -0.07383488370327929 -0.7559115285069046 -0.1836896371445933
P 2.5072674770723316 8.548513108067992 1.5900128943574319 0.0017545207972614943 0.5692957188544518 -0.639901296987156
P 6.60844611480826 8.267918197813263 5.918108209158936 -1.8003687088335443 -0.00022857107103831602 1.0187368927424003
P 5.110568753717932 1.2532187382625801 12.979173688287043 -1.050147802953514 0.2304911708791643 -0.5260029696040875
P 4.196145293748549 6.839779124455598 8.387882463711955 -0.6799007201982291 -1.6643771490958628 0.2548616293037288
P 4.921848519415481 1.294317446675264 3.8430338741494157 -1.2872623926864668 0.22854278890354188 0.6691455385642541
P 0.19944183477717561 6.101744462087833 3.919124858377737 0.2854932381466567 -1.451900669626564 1.1583480515105404
Ni 0.9733534988185513 7.7558717064044576 2.9176708245506107 -0.4711757373515627 0.6991485126842475 -0.7969108537374017
Ni 2.0547073985058533 6.4813374595843 5.196910700748076 -0.9954689233533952 2.1290004300408882 -1.0239197224949204
Ni 6.287774035275828 6.12116282653759 9.26197063335435 -1.2427270292782533 0.10933333372020525 1.5026156794829284
Ni 8.948080844007373 2.809788995188599 10.185384549800071 0.302613185656395 -0.11262331732538668 1.063879807827626
Ni 2.6160613949477187 5.520488694284122 7.296974436847049 -0.7544801953770167 0.3657977887346797 0.8946279433749172
Ni 0.7695983974616245 0.4584977747885506 9.341626059492942 -0.7683055312958832 -1.1834196497671876 -0.16210445477464985
Ni 1.7091170607880115 1.3219993330561994 11.57236745316871 0.3136555595134856 1.4914079836925669 1.1907200400833429
Ni 4.274858532452824 6.983916472224272 1.788383937219905 -0.2271299677164153 0.46697069813127967 -0.44041017403393184
Ni 5.74875708652652 8.317152735765253 8.553427440978057 0.6172689042996207 1.3339682813834381 -0.6224913290408247
Ni 6.920809067983845 1.1360792104898105 4.900034098441088 0.28644068966159053 -0.17420226647944836 -0.20606620506758058
Ni 0.8087680386685201 7.490545157863628 7.2473951294370025 -0.37363862493533717 0.6895708962981415 0.5618107233313163
Ni 5.093613028254287 5.072151585534571 7.330441700668323 0.31602097442186866 -0.36285130451184605 0.005610404208241951
Ni 8.244778512228935 7.538365958619887 9.340664718199845 0.39465096552094614 0.33067549111024985 0.2758477446370927
Ni 4.767003252499783 0.792884017208092 10.264879448360308 -0.1746460388850863 -0.46120217107861866 2.419886299958026
Ni 8.283606120243315 7.8599318848954285 4.776499918101045 -0.22300720379729336 -1.3043211479409667 0.48820235381654625
Ni 7.156410651873779 6.519335067051509 7.159583807811811 1.2142883143215861 0.1603969851652399 -0.13712490201117675
Ni 2.340555938597623 5.472184486615775 2.814814602897296 0.8550568659505146 0.7473271292720033 -0.009698201124370394
Ni 3.499209339793468 4.85464583775 9.41512762443179 -0.18771829868801218 -0.5368244856996239 0.08771549834011344
Ni 1.2733485317527695 3.9159881859802397 4.13284817509734 -0.9916719182048082 -0.5612018861027238 -0.47646218256148265
Ni 0.7206447827717538 0.33358360452777125 0.47123782714337453 0.2860583666215073 -0.8091426199169033 -0.5078137002895706
Ni 1.3141918553817082 3.652276034108085 8.40729261936509 -0.07937843922932782 -0.028777586353324627 -0.19767026769440152
Ni 5.226458720227377 3.2544959916549177 5.028027479523021 -0.17285963640862487 -1.4262626573434856 -0.5881922986486386
Ni 4.399340372758263 7.471765255373234 6.247663118723128 0.04638964300813301 -0.21285211764116246 -0.598916112824046
Ni 8.395875095354661 7.226340478194251 0.8305760750233196 -0.3254288979993299 0.9059384832917301 -0.6112993169797472
P 0.18106689958671998 5.654438013358396 8.326488873788161 0.7032489080058663 1.1770906222253663 0.9684561422099771
P 8.636785034392439 1.8384968164102755 8.16205208406581 1.1671160275111578 1.4259327848078927 0.24117076208019753
P 2.398601251588817 3.0970147889355655 10.488667661825007 -0.6913544705611254 1.63293230032302 -0.7548342362823258
P 3.990788564962135 6.478382292800966 4.177635369458113 0.5508341697151545 1.113934558392172 -1.5365714676030826
P 7.051620802572108 4.553191463194382 10.646684260501711 -0.2238556678405177 -0.9710994933700953 1.3069315889806203
P 6.687542430688152 8.454823375974097 10.864371513900442 -0.8094349543463415 0.3733591460217054 -1.91323782362115
P 2.1978049653692793 8.565386745565432 6.029068337253589 0.5516476667553855 1.0148126179873296 -1.0389357362877785
P 6.950579637060411 4.4554246954457 1.9629129863427521 -0.30803307112038564 -0.5625164911490893 -0.4632197157292796
Ni 2.99945780154496 1.7828229335538568 0.6934982923481695 -0.5685752957486595 0.21948530668696395 -1.2879771593653042
Ni 1.4358827048362202 1.3138999870574282 6.989819509082835 -0.39085113215888173 -0.33537443924781596 0.2889434014787863
Ni 6.999504064917852 1.3861100346613384 9.551717439752284 0.04365321791357643 -0.9591130104321804 -0.104256176307614
Ni 2.8601727646674417 1.541630247076934 9.065214899249064 -0.08245373572054188 1.9289470068262906 0.5656447523654259
Ni 6.373546839073626 2.0592860828429966 2.4370950352073013 2.3199315792392436 0.48767682033037946 0.24376089140487692
Ni 4.351309791643928 7.47124536492061 10.50503417810901 -0.020527173419074327 -0.1131665914233664 0.9083470927332227
Ni 7.532236723810006 6.6670934062182825 11.754505144670132 0.013990914962453324 -0.4654203229250242 0.22164143379801826
Ni 7.580522689708086 4.33412604405194 8.58622705600754 0.9561073908366374 -1.0535100345575277 -1.506458450267786
Ni 3.3884179480737897 8.569153671125672 12.695019808653123 -0.03935227654537739 0.5020983950723482 0.30285975444956226
Ni -0.12422280716764098 5.361210677193421 10.552090648691062 1.8565408851497383 -0.3527903207314182 -0.5683765494742921
Ni 8.784817000113224 2.74465675444848 5.919216396702686 -1.1933024560985384 0.006036436002067023 0.34068916659251003
Ni 3.870000683135865 3.3135263602405565 12.002949846916902 -0.642222746031481 -1.6436113773034209 0.2167231705607945
Ni 1.3201295516037805 3.928009512586524 13.335346989025576 -0.08378479582713957 -0.17202737031531665 -0.27626606312143387
Ni 3.135851517835079 8.732381031479287 7.984732956180549 0.2540766715085882 -0.8174123161248631 -0.20321073789665647
Ni 5.396161909025957 8.180777261245401 3.7392828936644795 1.3512700058866791 0.06986535753256999 1.6216323019291685
Ni 3.1051871020154063 8.634824044088681 3.8692117265717956 -0.5405906376102755 -0.08294455931403134 0.4831275103968002
Ni 3.635758111130861 3.1383688821319944 7.221271090236912 -0.17693843446368884 -0.7296950180125368 0.002581387573931038
Ni 5.046603986274933 5.028790897608716 11.176853038582767 0.5160088345058532 1.501803210883962 1.4012324538477352
Ni 8.132372723840582 0.34719378932435513 2.540485740729454 -0.1832558920412844 -1.532189536485303 0.03953919574520287
Ni 4.58326302148036 0.33520620999306566 1.7305812397732687 0.47263972349159894 0.13719637867906048 0.016994734785783634
Ni 6.210684314125361 5.741113784784435 0.2861166941147021 -0.5382645605802601 0.4410686335535372 0.5105994905648239
Ni 8.380123326728674 0.5742235653655887 11.392457993905463 0.0794709989431341 -0.5980771618625184 -0.14322612981290817
Ni 9.38356662560347 5.37732728122476 6.215798394419855 -0.9492080926136427 -1.529425857697237 -0.9101142119359746
Ni 7.292503378954484 6.538488925832387 3.0643136794655264 -0.7764209613141662 -0.39394699747538603 -0.8821989735829452
P 8.597410173270033 2.1811319873447816 3.7455708318756877 -0.1346072777956456 -0.1063148586088556 -0.6629419808567034
P 2.0106991277355024 3.4574448067660204 2.0056443331943776 0.45960911555988593 -0.7376086164326587 -0.20221314987007755
P 5.023801773440555 1.4872424090243743 8.297160667640583 -0.6665710929688584 -0.05261942596792874 -0.4730546995418304
P -0.013741525542509904 2.170086595447809 12.555399123202685 -1.058447838178777 0.7599551024486588 1.4925194715891907
P 6.3697616717431185 8.105028310209596 1.8543434422416551 1.6763237799347774 -0.04316213720977082 -1.3300722887631415
P 1.6561429599311832 3.3462520961004567 6.094453226511912 2.7423851687947547 0.34892363868716036 1.48957478713857
P 6.772813585803595 4.213785085597224 6.053377320312062 1.3802805341864164 0.13483224932225812 1.769973641481455
P 2.5257372694681783 8.877184203862724 10.538206837340464 1.6636171310013865 -1.7969936217137246 -1.5024866101042318
