# total energy = -381168.7878936209 ev
CRYSTAL
PRIMVEC
9.19507537569997 0.00000000000000 0.00000000000000
0.00000000000000 9.19507537569997 0.00000000000000
0.00000000000000 0.00000000000000 13.45792226479426
PRIMCOORD
 96 1
Ni 2.0342632776782796 0.952159237128396 1.879721647965221 -0.7350262004174631 0.047482104741363385 -0.009278854198764664
Ni 6.864160453817887 5.648314043768603 6.49564114748856 0.04283612132891977 -0.5278235677525942 -0.5680916712440216
Ni 0.6633437625665328 0.7295814066315646 5.434335447644809 -0.2257009485793726 -0.8280456274689934 0.5478822861756822
Ni 4.325804760828766 8.006915210711398 12.182729904075453 -0.15157321622602282 -0.184534758753708 -0.017362145427531388
Ni 2.8605511297205766 0.86807671052727 6.988389598464481 -1.5149713728348038 0.258539078155316 0.8347747186627108
Ni 8.65084633041185 1.1333389998383447 0.6297900134747304 0.6105914922794452 -0.903445027445915 0.09131555698654596
Ni 5.858964022652191 3.5587515835417216 5.790701623017288 0.6818491021738514 0.2883206802931228 1.032138767970603
Ni 7.746657800858455 8.232369260746175 1.4810038755025194 -0.30445203863734666 -1.7542703718135852 -1.2519189801901665
Ni 0.0874488436498527 -0.1797839502871225 7.818823509936637 -0.4183066572666731 0.030353415480876757 0.3374446915132834
Ni 6.877419752327213 3.547018667523761 8.143240476848296 1.160852048879317 0.8680147116627632 -1.0567802206683672
Ni 0.9018649340379266 2.0496834188711635 12.559848444777817 2.1456668349529755 -0.5312495627150077 -1.1558844204613963
Ni 8.625982846938053 4.038808072151192 2.6303781670679185 -0.058891632129885664 0.26022443627753894 -0.20706919241079821
Ni 8.284091559022842 3.000445004561683 10.041696171126206 0.027710835651707115 1.345165178540522 1.4861302802333956
Ni 3.0319013569891466 7.945859911056807 2.504788151284445 -1.5154372567276289 0.5287645915096248 0.3427686748293581
Ni 4.044150410870969 8.926753758338908 5.369213166207504 0.8913523579474391 -0.6389924120196415 -0.08862129798383447
Ni 8.66360909485772 8.09359718508547 12.52744132156959 -0.15632204376491785 1.13804045030144 -0.05995812572118706
Ni 2.042410114349058 3.3434029212058 3.2750255831302826 0.406675500785648 1.3467500065291387 1.6009878862059397
Ni 1.035834421895983 5.83244542563354 6.651645713673765 -1.2123175637484604 1.042875951882449 0.2436181951794256
Ni 5.406308858285292 6.616463516755332 8.472084872492438 1.517348871928045 -1.0930487160820983 -0.629866024238341
Ni 3.7546342715751178 2.6764749183071346 5.919588073277595 -1.375987306127701 0.4598459141610403 0.9627498358538193
Ni 3.774045075426148 5.032896852415874 11.8435640364641 0.23544208712653647 0.5324343270517281 1.0162658054940885
Ni 7.16166711350528 5.916424047884349 1.7684520423748287 0.435083876725012 -0.010368744828833756 -0.413115857094353
Ni 1.446026728762143 4.667548927539991 12.667013368776974 0.1734849286974496 -1.0905465184855347 0.9239644875555056
Ni 7.030499365075651 7.716286467310396 3.968364600667183 -0.9128894606882666 -2.229372697913064 -1.5015183326536914
P 1.4317008015239123 8.031539622228717 6.40964512572808 0.6458986522211716 0.5215894139174242 -0.18865880822441058
Ni 2.6588847393554427 6.698612319031554 0.09460077317866909 0.19720284113967973 1.037211040287188 1.6822126346153867
P 1.5422715813953662 5.994738503781662 9.06381646951079 1.0541070447115781 -1.5486319983120425 -1.0956900103596872
Ni 1.0962736515088785 1.9198673465031644 9.869986416415395 1.1774791159130367 -0.1653928957179345 -1.4021945606506883
P 5.571728262018137 5.388258925571141 0.1039015917932201 -0.6961876302837107 1.0692235886380423 0.35517090514845284
P 4.528032050784101 9.123813416004198 7.94278507789348 -0.19249463703073297 -1.1331687240314356 0.17157434193829804
P 8.163737219086254 2.0090044059687675 11.9406493189751 -2.2454757741225135 -0.1910062254106646 0.6864770878641661
Ni 2.5765060601979908 0.17847824960173816 10.449753381519505 0.015211674743431866 0.8424828859402457 1.270710916085689
Ni 7.85971125104719 7.05218135251323 7.93336472330069 1.2092903468863625 -1.1637239711104732 0.9982613984968677
Ni 5.789936592756555 5.878531142782457 10.764372995753158 -1.0166116188692815 0.39733031212532216 0.1671276190208541
Ni 0.6062846426152378 8.49225886758915 3.3716538704013974 -0.5766634720734326 -0.14428105343998376 1.8712861617797125
Ni 0.45821634587760546 2.3201473622507027 7.4765892457146315 2.208608211672203 -0.045544264288702216 0.8980626800880792
Ni 5.500117015977481 4.207556093124243 1.9300407777588633 0.06997102987249885 -0.35168320371016853 0.4115819369483299
Ni 3.6123772623949706 5.072316140009131 9.462426659593076 -0.6065677158320327 0.9364330523361615 -0.8619559070631929
Ni 4.94341957516605 2.7255398398367876 8.277725808427832 -3.109240709369987 0.2707363915524563 -1.0278031167097268
Ni -0.2408889033480591 4.4667192890225325 8.356306001999846 2.237588915175269 1.7275684370423665 -1.4214384964819649
Ni 1.3375156457465063 3.0661346221418637 1.3326330607891888 -1.1231157106708076 0.6543583529527505 -1.4909472420060643
Ni 4.976632186966109 3.313445366043954 13.1862197292749 1.6348814536295908 -0.3756651684470627 -1.0575497518445398
Ni 2.1336344558962264 6.690539042962769 11.438022598658979 -0.2380139616187707 0.34811399830167145 -1.7038096440598722
Ni 8.60210323651592 7.478694917946695 5.736937098527776 -0.028722564745673113 1.0152857009690064 0.4786851583547305
Ni 7.283299568901505 0.3329886160589497 5.114736700163722 0.3839664892239064 1.3582387238950284 0.11187821162924604
Ni 8.769701873082822 6.128673969861296 3.8879803333312797 -0.08803585779400967 -1.1494898297889622 0.33236264900468565
Ni 6.4547589234231575 0.1547466798911156 11.429342447623746 1.3243032474898484 -0.6645437781261845 1.099429165687145
Ni 4.467896258654428 7.963008726396538 9.876096543918477 -0.3615405561202225 1.2549055736223163 0.4057468183237915
Ni 2.2232128789737904 4.080884736491464 7.505389140902604 0.9818546750040702 -0.617461222816085 1.3341485157150441
Ni 4.576637218551294 1.288450724216853 11.421845702773085 -1.1543569280732764 0.16082301695906495 0.22042504489241393
Ni 6.43237811026664 1.7129965435469914 9.673271574071947 -1.2257906585342309 -0.503199855666643 1.045722934412941
Ni 2.474192457900305 7.3060297949174915 4.6346526263285055 -0.4723224493614962 -0.7990505257882239 0.818299603825823
Ni 0.5713828954919048 7.542950103788002 9.94937485710181 -0.9150034217074757 1.3096016796136154 0.10941072392535997
Ni 6.42618062954869 4.8960373524069984 3.9646231245482895 0.6821100691447219 1.608912797479971 -0.028563670570305646
Ni 5.608747634971357 1.3349594148272328 6.659410954721701 1.078518640786723 -1.4701791562207778 -0.9215029133888903
Ni 4.2986241183921745 3.6874366616540715 4.00497019523419 0.5879917526020583 1.1714578494196213 -0.6310423039346293
P 5.4277333836158945 1.1820820937342766 -0.029877558007178076 0.5578000595100264 0.055562310646336564 -0.5968042086873656
Ni 8.732783645957342 6.041973605336727 11.340304694970834 0.6925297218161492 -2.035906955218313 0.7966218617420732
P 8.616401578528402 4.592480333205641 5.6739002601569855 0.06421150168090232 -0.068253790071076 -0.28766839142110456
Ni 7.00262909199537 4.519296729297375 12.291820276831789 0.5475907230771925 -0.6961398077649108 -0.8204287343536839
P 4.863118983014915 1.61357019487755 4.341592705031618 0.43825147581971624 0.43874718450921213 0.7155698914650643
P 7.499742445192079 5.169158672533553 9.670661092208702 -0.9217772500961995 0.774415500848363 0.65425345194377
P 4.741100334458224 5.163292214524572 7.0556920322433685 -0.13417096158917538 -1.4069521299403318 -0.40064317854863907
Ni 8.902635075960294 0.3753659593598704 10.772272484899734 -0.4306088716727939 -0.045937128851746695 -0.7364148532348738
Ni 2.5253906368877694 4.796316761329583 5.25180584788828 2.773208324823198 2.5154696310819906 -1.3050932502203008
Ni 5.904727912167386 7.921520546872213 6.498790460761406 0.10211444737426285 -0.3260022540042966 -1.1589874848667525
Ni 2.238072120576474 8.302812732230183 8.598199007565116 0.6582589735587373 -0.24696165773036177 -1.1371570192552223
Ni 6.6646824913620595 8.88913670549449 8.461857190292768 0.09071571861901795 1.0126266660796044 0.47659793680839857
Ni 3.9272718093785732 2.2334378026508843 2.28219468915969 1.1012119686191808 -0.4034796195561696 -0.9220788404970184
Ni 5.21240311143047 9.057820360940795 3.1962964293392324 0.06778327819256068 0.3513685006832271 -1.3292760181140915
Ni 1.3612297448141555 3.114703009608061 5.546656050336184 -2.139924276042244 -2.5445992014580954 -0.8278520234009485
Ni 6.414282202176244 7.288936150029255 12.877145664924033 0.9930669987801218 -0.46839020418662564 0.21348280924662588
Ni 3.4626446570372362 5.6274504180282 2.853563792038721 -0.5812827160129989 0.028082360058512928 0.7856383661473759
Ni 8.123306473215587 2.390857490916938 5.85936400842553 -0.6659990225154724 1.1868770121881689 -0.12779334019760571
Ni 0.10173982960213664 1.8136918126008208 3.295091076339055 0.17430202528210625 -0.45298955336083924 -0.06075516770118569
Ni 2.265951588732004 9.008507172379414 12.649558357431445 -1.437882500970601 0.25180073099021794 0.6616500015181572
Ni 2.780250537569441 2.8271086410392896 11.218429489588033 1.420409026776186 -0.6526441984751212 0.5945712055917889
Ni 3.910922965585522 9.24380914800607 0.8269986313590592 0.23892721746165949 0.21676533665263958 -0.3375074264304187
Ni 0.20382263551106786 6.312069745706299 0.14208046373536276 -0.2956629795908069 -1.092924531799408 2.0410599601741626
Ni 3.336800857176885 4.647733540377996 0.7583095802325945 -0.0362641245383569 -0.7217060862697893 0.6623681106311045
Ni 8.647260251064669 3.487673651865519 0.12995951554188656 -1.2278755660877176 1.1096127910883664 0.468239023320742
Ni 7.438962997794964 7.485131470621124 10.241249533199078 -1.062264640821706 0.9756115223078359 0.006593336946801548
Ni 4.8428162568647135 7.160278657142653 1.4167284604956638 1.5613964970665626 -1.0167118918925715 -0.4088761079813926
Ni 2.6429772591743523 1.217473938368391 4.192089057047587 -0.5377071454148934 -0.3010964919015524 -0.11303366538992791
Ni 2.9907350050985433 2.448593368406573 13.393727750945843 0.380462589835706 -1.9074551555011017 1.3324700995713568
Ni 3.280572972028116 6.777542844970561 7.217563975945079 0.03909825155304234 -0.6323473958992981 -0.776423018196695
Ni 6.772733820615238 2.127657656984256 1.4370238305856655 -1.2332489145844892 0.7671768170080787 -0.5781274582134689
Ni 5.044749304412074 3.5268170872013007 10.49234772859631 0.7555410325413633 -0.3496756863618365 0.8638178999725963
P 4.837869306380651 7.0503515325386426 4.10999542522286 -0.37764157544714316 0.03349196110985845 -0.3902003859487602
Ni 1.2949332522675288 4.221532607503004 10.49711169708291 -1.2494520067069126 2.0095870863768615 -2.0315108830331465
P 3.0899314768867554 2.858187995381536 9.157496815657016 -1.2357166593986912 -0.15118035166297833 -0.029827881994709923
Ni 0.8810601567791199 8.309653868215578 1.231448613732103 0.44151523417265254 -0.9364914163779227 -2.298876044120525
P 1.091639333583289 6.262922068499402 2.4537159448278945 1.1505599229246894 0.7342083325018581 -1.1207073583396312
P 8.102249750894952 1.491864178879332 8.438413426437446 -1.0300021812435745 -0.5210641375415735 0.2893203252022308
P 7.492349604691735 0.5515785424202093 2.7561153040553794 0.2845409015357164 0.8914516025294648 1.7464948416332244
Ni 7.025846656999564 2.5539413455364905 3.752001721531276 -1.121872839402642 -0.09030922720921868 0.3892999856216779
