# total energy = -340894.3039301755 ev
CRYSTAL
PRIMVEC
9.05698663593232 0.00000000000000 0.00000000000000

0.00000000000000 9.05698663593232 0.00000000000000

0.00000000000000 0.00000000000000 13.25581543592891

PRIMCOORD
 96 1
Ni 6.4878273364490475 1.9131887621195705 11.209223507925042 -0.21526535506834538 0.11929147337418165 1.1162853180125356
Ni 4.655752945035374 0.4120910723809904 6.067226319593374 -0.021008226820550917 -0.8039965569395895 -0.8695434896024637
Ni 2.5620765568073725 1.5067836658360745 4.83663636145196 0.4975519133522463 -0.9538129383755056 -0.6745667095798253
Ni 3.4825109194389205 3.9996920170738925 4.878709686337754 -0.696674083001826 1.7724185034775217 -0.2448934623474234
Ni 5.178277664679778 4.65812587548702 2.673035509285273 0.1950030052748835 0.545774238693744 0.3946105992013139
Ni 7.503586481537 6.118429086827487 2.403835606532449 -1.3347848637474626 0.6732934992943566 0.5200909749950269
Ni 4.983815108468712 4.695350089823915 11.611471447424927 0.36702934714893565 -0.7226267983118458 -0.43382275062440123
Ni 5.644549441441833 8.104816413489829 12.343814843817674 0.5423325600020465 -0.04578851908902437 0.27525973334410664
Ni 1.8728308304686687 6.561514978260478 0.39920298065315535 1.17747423081703 -0.029012585182266164 0.2552596360730959
Ni 2.894504187712824 1.6702351004195175 0.37380447353272817 -0.42769555468074083 0.4980525071377487 0.45347600607895444
Ni 0.40106781416458276 -0.03416567001047939 4.718526918166522 0.26919938608263966 0.4523069254715178 0.03864136652128184
Ni 8.83483669285644 2.430378916740999 1.3326205333703334 -1.5673195474192168 -0.4894197711634152 0.23018392405139068
Ni 6.9463101048583695 0.5780585378020949 4.853272234175564 -0.12044924112770869 0.28767430495837554 -0.08062182471812566
Ni 0.8450231762974139 7.3260514330134425 2.497554585290087 0.41021950938316454 -0.4771777205712685 0.5513553323259472
Ni 7.518838446730024 3.987573769194874 3.9377458525048827 0.325992998032916 -0.0573073183619013 -0.6373749310208765
Ni 7.64333578256335 3.7978389599141877 12.605802668255054 0.0859046703836198 0.32916445378236214 0.5009002609991889
Ni 7.66609598952895 8.75172072814362 7.055380675660056 0.5638380381739903 -0.09731265511024531 -0.20131480642552427
Ni 6.801099440998652 0.8784380221306356 0.48811451099959524 0.07473014182403905 -0.2832738618978347 -0.9907872016070098
Ni 1.9598865842901378 6.259382967052573 9.361071154153494 -0.21240140325698903 1.6724748385023325 -1.3033395007539876
Ni 0.16226859215220232 4.898923974410387 1.4347163189017413 0.254596034347168 -0.18505129337881032 -0.21767704983363154
Ni 6.415588812470683 1.9972919383561665 6.947863378035688 0.229356800164405 -0.055748201404897536 0.7093948730026041
Ni 3.601420094628482 4.409484426292181 0.5034289693991709 -1.3994643062037189 0.5712477003745001 0.13970423270257876
Ni 5.828886286794346 5.620648054182693 4.912432469710503 -0.020667298541364405 0.229616738694011 -0.6853154634558971
Ni 5.352724280821613 3.0501937849029046 9.163638812083288 0.6324798077121043 -0.7692447552807009 -0.15700261477171026
P 9.248270010630309 5.6386805142179135 12.50899616281434 -0.3238530688717777 0.051473999509575874 0.5821944291939909
P 4.049505442585553 6.3674237584941356 12.815496358590295 -0.6947192732683003 -0.26587392125383247 -0.48280535117069107
P 2.504220527322193 8.667526982042459 1.4343458881556637 -0.46433017518463904 -0.48029338338211475 -0.6455492393015528
P 6.105296456465322 7.659502503388498 5.866745395881854 1.0447302314823685 0.36713270549601934 -0.15072089552805656
P 4.63802842253968 1.1188276509648065 12.311444268522905 1.0129426546581264 -0.001682015688113232 1.3368083219353946
P 4.047087227201623 6.09332312036961 8.232457429322261 -1.0153949728533609 0.19800425399505256 0.6763644249101964
P 4.62832839004459 1.0340180297845905 3.912228698861873 0.28848034579943865 -0.5250979412913149 -1.112515052336826
P 0.04949824238296847 5.573850605161102 3.7971279864773395 0.9039492207758432 0.11587216327998753 -1.0710066486803944
Ni 1.4330326251194472 1.1672100726163137 2.6724649191385033 0.4131441392291272 0.16075025473960058 -0.47159148473274265
Ni 1.8746693987193719 6.376670941666392 4.835230717153887 -0.2683655773274346 0.04630916747918476 -0.27602180832111173
Ni 5.971325512798325 5.7261438324299325 9.155606170794872 0.17992399945457402 -0.8046876694693431 0.3590977510066848
Ni 8.738778294497045 2.0399775155264313 10.161921596104461 0.7408654328070596 1.122836488867492 -0.2466230434440204
Ni 2.2271673116127944 5.392430109447634 7.026218084968239 0.14882573538787272 -1.1620157301701148 0.17925268441916226
Ni 0.41136107927258314 8.839392357044144 8.955734782271886 1.001002708687431 1.2969454243021856 0.4003901819975685
Ni 1.561795801573861 1.3371372525162724 11.771256613890712 -0.5279544369035036 -0.07980858478821094 -1.718273899114318
Ni 4.316206522774983 6.97681403524442 1.8179953059667873 -0.5671971844542103 0.22545900777189556 -0.4578134571120438
Ni 5.495462387378661 8.013078197670263 8.166284369173926 -0.3356811718549574 -0.9482331302948831 -1.0576711079137524
Ni 5.418894623874012 2.7899412790706206 4.802051352968537 0.2314699898526659 -0.038347232319630734 -0.14263966118181887
Ni 0.5711036779020214 7.281826168145544 7.036902611891167 0.3719645796670239 0.4990138426097535 -0.6004173799599208
Ni 4.882820652490435 4.374759940217325 7.090495517851194 0.8841797514583999 0.6788259990768115 -0.277771958242999
Ni 8.325272520831524 7.010569423768413 9.505148789007485 -0.13062489610912986 -0.13344693893895726 -1.2774068400486258
Ni 4.631924013667886 0.20536988500082792 10.240104220294334 -0.5520677850119395 0.5591725143775208 -0.31098469754954183
Ni 8.176276036632919 7.147800882559808 4.831214849359 -1.1883564249471725 -0.01617326732575279 0.3919646769380346
Ni 7.209469903343244 6.011275880058677 6.93880910867496 -0.09220824400414442 0.05571349151222018 0.8234976030869947
Ni 2.4523692798577827 5.36655429914094 2.5553236677052826 -0.1944517607571038 -1.0163203128811078 0.18972607314666035
Ni 2.5202332793775777 5.329230457953023 11.322017405859063 -0.38566958795794226 -1.3452734219836122 1.5415090141140162
Ni 1.0527659917498882 3.5951888879462968 3.8808915257218106 -0.058997561580130656 -0.41775746963142246 -0.6368725374631613
Ni 3.889839828340996 2.771917876021856 2.7174554993619893 -1.5425120014572338 -0.635588528544415 -0.39981836865449855
Ni 0.9778284858074375 3.279652536782526 8.091217348325145 0.09798756969008286 0.28802988852558137 0.08803842889717095
Ni 3.5135129840800867 2.4882892881449186 6.919296737052719 0.19386426368475002 -0.008600597184817446 0.6411547097782828
Ni 4.0871372213129975 6.772334452012283 6.14857707764579 -0.02585655605178773 0.37958224411328173 -1.0182756368352657
Ni 1.0046099947597975 7.496449576209148 11.628716855337066 -0.3330733019184651 -0.8386429433688652 -0.9171616057010592
P 0.12021428693796728 5.436293094857266 8.032413958056598 0.4642129328804844 0.147126750418895 1.187471451239058
P 8.479196005662555 1.6355830702363152 7.967341321762748 -0.3399504886542726 -0.416424866862928 -0.04028687254450481
P 1.8320834484001305 3.3006919163213597 10.49990478250243 -0.4505881430081982 -0.39794711977371466 -0.16038130143595603
P 3.9094572610061338 6.181474769552336 3.9632104756264432 0.31916697625001805 -0.5884954317113542 -0.6577043866068479
P 6.894603769177267 3.98989235772778 10.50153504006463 -0.2888747530243799 0.31476756163074177 -0.22113672624745787
P 6.443040538420837 7.676910031358209 10.14609360657279 -1.181049349762798 0.7910525951844118 0.9964369436936195
P 2.1993804771637446 8.372794528769647 5.672627005156142 0.6299570412902507 0.3829994973249468 1.2237013801053698
P 6.944634562363887 3.894748715000509 1.62578612798614 0.5374158394267197 1.140561416951081 -0.7910338261313344
Ni 5.276718050477276 2.911676234034662 0.49819855972044663 0.5079078026652737 -0.858289256844883 -0.44090434006153095
Ni 1.3758377556456043 0.9380411443033058 7.035232503588558 -0.21042833869101824 0.22041964557577523 -0.600039942015844
Ni 6.845034882299935 0.5252273244030735 9.231309897791556 0.9858457984413342 1.4307484610289811 -0.3654607171102351
Ni 2.5101437964648525 1.4372531808082534 9.267352175395857 0.04047893395065287 -0.21594232653071196 -0.4312634745376573
Ni 6.578297574164679 2.0494782943194734 2.630020257807986 -0.6763628822482997 -0.7255881949330149 0.2783244883123594
Ni 4.203284015633277 6.89046472636657 10.636797510000346 0.22271924024322934 0.06108606867804318 -1.3007521996427855
Ni 7.928621798961857 7.337870800339392 0.08148299005468279 0.5218174707678302 -0.34543979390361795 0.28487205962289003
Ni 7.575517067975837 3.8159619898139754 8.375885678247307 0.5086212837925305 0.11191009330844598 -0.43988849720250695
Ni 3.211933449046038 8.436093807115283 12.305465751762862 -0.6473888636134528 0.22363146764485356 0.9576803917507118
Ni -0.04359489861051387 5.065029106025632 10.430112550566012 0.7956420143273071 -2.4364609164872553 0.012410200738894756
Ni 8.588432319316398 2.352525061159502 5.7083251172750895 0.422897104850833 -0.2194778504877962 0.04085611478441351
Ni 3.91250946544203 2.5981143059184446 10.978917022113075 -0.6982848791323716 0.45856473345577153 0.5242093680387746
Ni 1.2853403469706022 3.6398398311776576 12.765019055971361 -0.414771390419905 0.11575877763057484 -0.2351340689678144
Ni 3.174093359630089 8.265577923095641 7.716912929140009 -1.759251112857628 0.5468854694800518 1.3124831149264686
Ni 5.788537412129902 8.075517062302515 3.534994344558006 -0.5474397993216249 -0.3969104509790842 0.12749509223089658
Ni 3.08999924037995 8.346456812153663 3.570241418751411 0.0758907377910435 0.16959433539379182 0.4877814642290438
Ni 3.259582254794555 4.073325316966583 8.950219983218423 -0.5028327021352114 0.33095856956830744 0.6869455428601525
Ni 7.048808020588454 6.108819624196965 11.47679224741702 0.16598476366566253 -0.6207861734242599 0.1774590828538492
Ni 0.5822184116816415 -0.12285439849008528 0.24265930964021126 0.8445096865622875 0.9209411273481495 0.8539680037617099
Ni 4.543708965579964 0.6171013950194887 1.6400889209985063 0.8339802477858734 -1.2183393444625084 0.4990578084738115
Ni 5.9114588323197665 5.644658125279313 0.45346519791232986 0.7295659486338403 0.11183861664056222 0.1498364360405742
Ni 8.301307734667187 -0.13937162469110623 11.226548617317997 -1.1862365503906924 0.3450389589207735 0.5787650917974677
Ni 0.03489022892701263 4.776120295044458 5.919132816944499 0.00456062278748892 -0.32360238631355237 -0.2886618656826254
Ni 8.204570062323542 8.796090904794825 2.2931900257859494 -1.2131210334863622 0.43278505338850626 0.2302723700001389
P 8.487700515945363 1.5343712465830779 3.50845646854133 -0.06268863727847268 0.6458289753255007 0.8763247741903553
P 1.6978407951394339 3.226325000525679 1.6960547574101796 2.8318094222958585 0.6865377658987725 0.030975365335591816
P 4.672707623682252 1.1460620092399998 8.113512931885518 0.19750160332702116 -0.7517196019127441 1.7682129500366062
P 8.520432464999752 1.7204108053894447 12.539325293361777 0.16672472715548062 -0.9721158504497517 -1.0404269761213243
P 6.3045954434442475 7.90517326102555 1.3648715564438738 -0.011573306659896195 0.018337879077239386 0.3240322747621194
P 1.7697804385647282 3.1459985876415124 5.944716086588642 -1.495825138923656 0.8610652769281235 0.5119601183577763
P 6.801461720456919 3.957939309508664 6.013102674226986 0.8680987867361373 0.3145544171786712 0.8936121005158932
P 2.2890989850034735 8.469495973167467 10.204711328618975 0.5893636932489206 0.19572522815288873 -0.6290296443799747
