# total energy = -340890.0327369405 ev
CRYSTAL
PRIMVEC
9.05246805161692 0.00000000000000 0.00000000000000

0.00000000000000 9.05246805161692 0.00000000000000

0.00000000000000 0.00000000000000 13.24920203103446

PRIMCOORD
 96 1
Ni 6.4348019050188245 1.8913411525299693 11.530541950539137 -0.31181593520158557 1.387997957435332 -0.2792613983043319
Ni 4.69537021485014 0.4468415794323368 6.167449941632065 0.4077486792451687 -0.9698841329057554 -0.15565124295013838
Ni 3.1923075117332083 1.7889486891029693 5.1069442849318225 -1.1179863598640425 -1.0578546846794683 -1.3579469036862226
Ni 3.1240247470236464 4.35141264784702 4.789520406333873 0.6245078452502212 -0.23080818789895088 -0.03477417025639173
Ni 5.1870731090208 4.537069710213243 2.782597344774116 -0.9083632906831388 -0.08931986671275585 -0.36725251890333527
Ni 7.32778259238125 5.926985618141944 2.734290660786361 -0.40834877472301284 -0.07782909246433695 -1.7632013557546282
Ni 5.075709649991629 4.355450048491388 11.445296671642543 1.2449052678764947 1.5269681401853639 -0.37565025604872726
Ni 5.806433904283102 7.711082184497423 12.379829091511048 0.32422742149206096 0.03674852037394316 0.16635834495499738
Ni 1.7511003211789764 6.67879306996869 0.3732631210524718 -0.185744462791093 -1.0084733060328632 -1.5311970906650467
Ni 2.9562825184583286 1.5258568170687645 0.7524510822882139 0.7966491154355828 -0.5130312399347681 -2.0371601108991237
Ni 0.5932860669752246 0.17343260983224448 4.676994610437579 0.4206820994773852 -1.2732398531551299 0.8592369654701331
Ni 8.358668574399047 2.2786419354192593 1.4451432035590999 0.6188807288714309 0.29266121665000566 0.04107208744996153
Ni 6.76066358886479 0.8394606871614606 4.581826016324942 0.27629537369747253 -0.4711875644261046 1.3744420731277682
Ni 0.8156970539069104 7.423295180270762 2.5136783992090157 -0.9553890246133739 0.08322789488240505 0.11091456216439607
Ni 7.72441646958521 3.715449626616624 3.8022691296658087 -0.27737266592205134 -0.6705470468974709 0.12531351119854547
Ni 7.539293502819925 3.9176093378050036 12.566669311420362 0.9874959324502477 -0.5804941586734326 0.5854815845856949
Ni 7.764211118088887 9.160192179451952 6.733390313839339 0.21055457985623738 0.6724044118211839 -0.021613207394401486
Ni 6.8913088043345505 0.5652406164453697 0.2263795888206786 -1.1063634309131334 0.1976270731612919 1.325762348533878
Ni 2.0366875757272025 6.375698342671121 9.373028371178375 -0.03936461784055156 -0.5237784511489431 0.21695636961752313
Ni 0.19417000309708143 4.6593323404886435 1.29442595120872 -0.8782839547992551 0.3818368444754134 0.07386342294836956
Ni 6.172180761310869 2.078419452342751 7.081923903321669 0.4053845498883663 -0.15458886312389508 0.28447765239794875
Ni 3.453778992028979 4.539459561715739 0.34332932573693287 -0.43941361444861743 0.10561731832119874 0.36016578725988296
Ni 5.913470283697906 5.633006725931545 4.817396575715635 0.5177443291397212 -0.6198531200870292 1.0658274184722998
Ni 5.259420431778167 2.818893214468268 9.383296585418075 0.8291635431235204 -0.6203555136447444 0.1691744742475538
P 0.2476266360233584 5.4531160855618745 12.292940789706488 0.01959154897868239 0.3177284440312786 0.3448769794216125
P 3.985014013136755 6.407970390422624 12.569676541227668 0.18176259532520955 -3.0526283601925814 -0.44173454927231015
P 2.2418164963580764 8.533996770991225 1.269237459520485 0.47323904763849467 0.3774579986814273 0.6489963173098888
P 6.566361419737646 7.661501818288451 5.758023116915504 -1.2123067651151833 -0.0011320567219141793 -0.7798068470672636
P 4.8129527192664865 1.142032181819468 12.806108895554111 0.09921964232497106 -0.414581385896286 -0.5866707197977896
P 4.037138122801034 6.369026673893321 8.143489604002754 0.313306403704183 -0.10027816549647246 0.6129322245974799
P 4.77775672441155 0.9737649101210268 3.7893376793956763 -0.7033795200464595 -0.17473371350288616 -0.3628667311308138
P 9.277331112945488 5.303822786398399 3.467236390679017 0.7724285523253214 1.4858880823156022 0.9370390613512766
Ni 1.3539142434384548 1.0890390352451904 2.48529891261688 0.5720236593085761 -0.11103488979234426 0.10918189574400551
Ni 1.8567335680828452 6.704112822440206 4.686282442413187 -0.534617450745976 -0.8661375492447083 0.5346627021616146
Ni 6.080633154323225 5.843594284653347 8.999904658130214 0.9325609709752649 -0.48018179750491496 0.3621640486368343
Ni 8.625571535382306 2.409785036618706 10.205542194540534 0.6317388157810216 0.1007327365353878 0.5182024997230624
Ni 2.6169326575717635 5.127589343024972 6.947178825179635 -1.4088326347924964 0.6263934923087082 0.8023502795854182
Ni 0.277165743742273 -0.007055493413049561 9.629480258072123 2.1233514592852267 1.5900969503250486 -0.6068111993014065
Ni 1.6181829362882827 1.0364532497224743 11.583167566920228 -0.6657236573668986 0.6272049324664102 0.5354962538065036
Ni 3.8083732087117665 6.7599212865041665 1.6425829580300504 1.1362635609066754 0.7224841020863945 0.2865036816890421
Ni 5.906726195177606 8.13490062254227 7.921128405644037 -0.7686662570694117 -0.5564443168130804 0.3499644212468489
Ni 5.257410783923797 3.044679866647229 4.720611210851687 0.5237763942664141 -0.035446770843384115 0.6315518965811961
Ni 0.40018606557357866 7.631121736309756 6.6006069054722705 0.4546504860030299 -1.0626958148218537 0.07459155936364573
Ni 5.054544980246043 4.7584478105675245 7.120306366846599 -0.09666807954771094 -0.9651782427896537 -0.583374308434705
Ni 8.237836234038019 7.366490944747429 8.811818818649902 -0.7977081528277165 -1.2715861196017908 -0.5798642383989175
Ni 4.657721001218022 0.21707093616910192 10.52324488914711 -0.024863853121215244 0.22987384901013957 -0.11424414075826131
Ni 8.2894534055048 7.310419959116906 4.394958639012191 -0.5027977351322179 -0.37565745513757887 0.7320609471415521
Ni 7.322695105470634 5.943044696041289 6.841967423275829 0.9150193625470758 0.6067944871308582 0.0664892419714855
Ni 2.2377609907780838 5.241587070187575 2.491962434173649 -0.07237603976956568 -0.7631990633072534 0.7609997416630894
Ni 2.489790747145434 4.943733721753435 11.337448285864959 -0.05125725551307946 2.0186247710990974 0.4582070930060367
Ni 1.2252515184196282 3.1608320811492034 3.8479388297797876 -0.9347248113958031 0.406747491674164 0.1797802747878581
Ni 3.440290814988379 2.7982083255167436 2.8656039483806826 1.651941494435671 -0.3752717896633859 0.21096081415572054
Ni 1.126615829134809 3.2924821205461496 8.155095772985138 -0.6938695236734954 0.2579747210114138 -0.07448562991340076
Ni 3.562689232280967 2.774373177766475 7.266246631932332 1.058367362649829 -0.5471793465713867 0.7032602208597759
Ni 4.056030623125687 7.117883021213197 5.989884880243422 0.37228365356933946 -0.1452056221367822 -0.26431583273809317
Ni 0.7450651738000087 7.317200257508457 11.217767419409679 -0.15432841037365677 -0.44014843573211293 0.8095108018895993
P 0.4255429331631259 5.804560043445918 7.888057930231472 0.05857564355136364 -0.9963531257305615 -0.21343292984529694
P 8.557361190415245 1.4911949178147657 8.159666363983662 0.42310999219258744 1.1332813383498999 -0.6425441339266419
P 1.8436527520938066 3.2068638799756815 10.304699305971354 -0.4260778165716597 -0.3827483005460892 0.4288134703352679
P 3.9401952449971493 6.128982384909698 3.956569348776369 -0.9049385812723061 0.23598793232767742 -1.1706839473680741
P 7.049138580645199 4.030620345976046 10.229629000895992 -1.5317825308548716 -0.3396717810715892 0.5729397433649424
P 6.747872451845751 7.893416991176463 10.299213510476989 -1.3069629564391878 -1.136707076201997 -0.04412655800556916
P 2.341701426201018 8.797296849785118 5.7929620216845645 1.2636815200427334 -1.325678273460504 -0.39570460359644105
P 6.920828901871059 3.8771448066832024 1.5826302742015352 -0.02969752706443272 0.9285289669977363 0.2890102501609797
Ni 5.2363366388563355 3.11241043082023 0.37327398401384676 0.13055856164756868 -1.2990902385593304 0.20649892172962503
Ni 1.4664545232832484 0.9472683368338879 7.323442839311946 -0.9414798707314496 1.2841050780044079 -0.36505859657580997
Ni 7.057159067127059 0.8317679000144123 9.499147352741893 -2.242657330837112 -0.49991038628209383 -1.2305073472836097
Ni 2.7913918172539436 1.5458808758699778 9.412881860722832 0.456370296907614 -1.0583573353474998 -0.8536255328206266
Ni 6.172615279765869 1.979765658122307 2.507596951332589 -0.23361274722728154 0.8116468743959957 -0.3118357326959275
Ni 4.490458553446765 6.764791514187283 10.335464117832078 -1.0352973682042428 0.4209965453940104 1.1043679977496594
Ni 8.170359138963768 6.938101010457277 0.2873434333038481 -0.32093512389403434 0.378483097511832 0.07981244144295287
Ni 7.537935632648052 3.9345555575499724 8.131737690288588 1.3042203606970444 -0.9002707434829914 0.5061172864237542
Ni 3.4997745809842074 8.378131380195887 12.651132457097956 -1.4058187876668369 1.9146483308154314 -0.07086423111072956
Ni 0.18879464771002877 4.659486232441455 10.099495249857636 0.06255339725218904 1.9976795363059985 0.07730073076469267
Ni 8.509464583219396 2.3120908039863854 5.750922361163391 0.5183331117636557 0.39165203079362226 0.8919167150913413
Ni 3.6567534253204816 2.6954356584416197 11.512827176276888 -0.7453476369481292 -1.4075702231403049 0.5679826564699831
Ni 1.3897529635080763 3.4838422376342364 12.797973442731031 -0.9882675205089496 -1.1199519682308454 -0.7846464345477518
Ni 2.514694086097576 7.934397512963575 7.792279199788273 0.9767806029152726 0.7495282506883801 0.32401144882651295
Ni 5.519669828919253 7.555343528251458 3.5483881436308056 0.3753646064875084 1.6635489967676123 0.2141890912850311
Ni 2.939146196889298 8.430789585461103 3.5943493332083465 1.2453942916977714 0.7641812247148645 -0.47501105193725296
Ni 3.5235825713310382 4.263413608241869 9.216753808837911 -0.17196360695691676 1.0301001402740193 -0.15122431752703633
Ni 7.048867006610824 5.873630372855166 11.37804317252326 0.8360803248480118 1.1388410918258645 -0.5043578805304861
Ni 0.210633726307645 9.234422415514317 0.48576719102601545 0.9642079084565846 -0.7574652461472696 -0.23174329811871056
Ni 4.841096841695498 0.02751588116282454 1.6482670025695088 -1.668659064300668 1.5448303651777653 0.12636972037720173
Ni 5.803310802887795 5.445919373650951 0.5547198383537015 0.5214233206532052 1.868789363499788 -0.7773234185237775
Ni 8.06994011351989 9.067585433730248 11.5958075277268 0.5850645516529344 -0.9521013550010377 0.022796943289857517
Ni 0.3359569959504464 4.866253649746389 5.676183376409966 0.03747305724479352 -0.33503479652021007 0.4659042045399783
Ni 7.606707230619489 9.04831272975747 2.501210435290882 0.7285627041803066 -1.1834597589765037 -0.32185737859798763
P 8.682900814038765 1.5695892890708716 3.594296828895034 -2.3783645265651554 1.894835666964879 -0.25989199263878465
P 1.835007645332885 3.085443129206842 1.6016558458030317 -1.01509286823191 1.4797950820439871 0.060730485110837354
P 4.628028906793075 0.887903158166403 8.332011772431628 0.5911572948142335 0.9353858420185697 0.03306824330887853
P 8.60002547121548 1.9457464840829943 12.477965989819399 0.28119409655067057 -0.8575099554766973 0.09059153433632784
P 6.2296096171132636 7.623218931909458 1.3941606100859747 1.9869570076821716 -2.2636452459426883 -0.3017701209298093
P 1.819672764858538 3.0358989728691204 6.088498843605491 -1.5054770601911234 1.1387300201692967 -0.0004900522625410916
P 6.833418272673719 3.8912847614063018 6.0867363281224005 0.3055910373377963 0.45518424701931287 -1.8739595948468177
P 2.3783005535668886 8.534548971527787 10.248853726789362 0.5545802670211482 -0.7983596703687863 -0.19270932414470038
