# total energy = -340872.3415968149 ev
CRYSTAL
PRIMVEC
9.24032876505484 0.00000000000000 0.00000000000000

0.00000000000000 9.24032876505484 0.00000000000000

0.00000000000000 0.00000000000000 13.52415517440124

PRIMCOORD
 96 1
Ni 3.2312413714924397 0.4541483047702277 4.489559791566997 0.5657213712396323 -0.5536623831925691 -0.26331901604246266
Ni 1.5580950182009834 8.60136015331834 11.795051600274023 0.3563821518477346 -0.3515975859748977 -1.4912084660872513
Ni 5.360749088324838 0.9727109422780418 1.2957075628885137 0.42331593755580643 -2.2741044936027994 1.1249679333881981
Ni 1.3583930300895626 8.191865737940509 3.0863336097044463 -0.8014388235147423 -1.1948278916041293 -0.22443879403749736
Ni 0.6648074748871327 1.0962079379799268 7.9834575119427935 0.6949010502618032 0.2582266891212198 -0.42204195593938926
Ni 7.373662335141047 3.7715511230581953 5.092019995290692 0.610901053100064 0.2500305264636726 -1.1977113837995115
Ni 6.112329719780448 5.746320292189601 4.343959005111764 -0.7206894720798169 1.3366201171839882 0.49739970404509826
Ni 3.9832378177483916 4.64055785413068 5.21354880093762 1.1743696237497776 0.43557058655344344 -0.5087454680752207
Ni 4.228245138439411 2.9146492228401404 1.1189465393284639 0.8291913110376623 0.7582869707176166 0.290874299952912
Ni 6.1008717119487725 0.21559258171475268 12.19508207079605 -0.5371461307051006 0.8192686526073116 0.37690649705333157
Ni 6.570520668442899 4.121473138040214 0.722073489190377 0.33766786326768294 -0.14193106515056847 0.8000681684194608
Ni 7.54053343468316 0.9262136072707926 2.607362085386628 1.0370189788810398 -0.21576749151574454 0.09727768810725183
Ni 5.9210918729382325 3.083192821912522 3.0022133515621583 0.17506204337658238 -0.05112972879627968 0.2195362145295574
Ni 3.1424880124414405 2.3329150768313207 12.500228224044239 0.2554216155722569 0.03840431080981128 -0.942250430348887
Ni 1.4673827094239236 7.840492991321738 0.42028619549606927 -0.940334958493729 -0.36592582967211174 1.472681096707025
Ni 4.2797045300640875 3.311410464998579 10.438416080740577 -0.7726977468263079 0.09042595529274104 -0.57616622072204
Ni 1.9856450362426008 2.6712219983904237 1.4721313144438413 0.24813768031633396 0.6370478866987609 0.4864987408618783
Ni 1.225738868451234 2.67883602940115 6.383428033143659 -0.563679401108939 0.18840118368764971 -1.1532233286894655
Ni 8.406047321432764 6.142416230667491 0.6763052161330626 0.09565172246805463 0.17857211341236987 0.9781525435621348
Ni 0.11048106841825796 5.0509116200958895 10.131593731830561 -0.3301062488703411 1.5094378446110843 0.3151221167566831
Ni 3.7654617463153937 7.5278279824504555 2.031016899190255 0.20780041414986794 2.7020203918244627 -1.8647272776152723
Ni 8.868507302045403 5.614377635876304 4.20077826079453 -0.536339061422773 0.6252976881413682 -1.2943612085147773
Ni 7.364616053151361 8.07950333855892 10.801567474603733 -0.1431788215147405 -0.22920973306357945 -1.9567277764839845
Ni 1.0377628577094873 1.205363943234425 13.274283183441947 -0.7329569765932602 -0.12653067143509822 -0.6223005531862573
P 1.5634728896187533 5.664968436584708 13.808297498930507 -3.0247660865646746 0.3117745404406889 -0.30142456466493245
P 0.08848354144722112 1.7956176724858284 1.6117138746887747 -0.7401568367758092 -0.31204219227977875 -0.35348014770959124
P 7.640208862489836 4.854101854929077 12.461292250173006 0.4336466300578532 -0.3748724973424382 -0.5276968123667428
P 8.94807577417327 2.3677788377578612 4.681670849489932 0.7793003397444902 -0.8804076860104774 1.233438661997792
P 5.721325202524535 6.912255752022608 9.473264651532773 -0.08226013165249704 -0.4053277285085019 1.665157478905313
P 8.45875415745847 8.1508201969822 1.7317004694428746 0.5068796185110754 0.25186475145893394 -0.011777195140586168
P 1.7381890283940054 3.6919179686280534 10.529393586956967 0.9507309570160724 -0.5912174586282076 -0.0952593721256424
P 4.555315820060356 7.433327138825826 4.195436426659455 0.4512879972887002 0.1829368181389688 0.5595982890610297
Ni 5.637533900090963 9.103294818976881 3.4742065794973302 -0.8984318905020399 0.5213708701487151 0.047745642815395194
Ni 3.517211070181698 2.613137290946949 3.639905081302476 0.05451432899779644 0.3861439564911995 -0.7707982158107499
Ni 6.391313729823942 6.561058571652871 12.212055630946052 -0.3388683113336874 0.16720423789506042 1.2302209263914425
Ni 9.03108164865064 6.704126583957568 11.928642731262459 0.31318299075244127 -1.183103918298982 -0.795945661610655
Ni 8.927682368298669 2.8338979886135207 9.398760803673085 -1.1879399062350444 0.34373540961800153 -1.055392596292221
Ni 0.8293749604353452 0.023862225342352994 5.612794767536331 0.8146638068454486 0.304972687027507 0.15310456526888472
Ni 1.2647884983678945 5.428554621767445 2.4171046374403327 -0.8106240895584362 0.2669224171230048 -2.0097490658760226
Ni 1.340300466110192 4.2521960709391715 8.280001843021221 -0.16938273360361794 0.13975616898643672 -0.03689044526844614
Ni 2.779426249768581 2.135430767655063 8.605541402144013 0.2827123329674099 0.9946963068534287 -0.022752977425799525
Ni 1.8153088133642956 4.269152074464271 4.498985851074329 -1.2111585104433529 -0.7884848344572355 -0.2777380196812701
Ni 2.823280850711428 6.407493545721736 3.624094878560544 -0.21766625120035418 -1.0486254527717167 3.585529599578399
Ni 7.480351172580176 7.4942116659249445 8.263989277076455 -0.49898581758529553 -0.7328263645526669 0.9982889093006937
Ni 8.341596027379591 7.733573145660196 6.0212921514262305 -0.2697804553970902 -2.7584890163351523 -0.8452061984086798
Ni 5.661540274564102 3.5147346620374327 6.588590131600029 0.5906680138826408 0.41348069663293946 0.0635962366944066
Ni 6.702888379885436 4.822952706218935 10.376421790140988 0.040730130729510504 0.6800434164236805 -0.5655341949294905
Ni 2.0660728589578428 5.961666157122816 11.713568531998801 -0.4066101947653514 -0.9398387355836009 1.574141969657689
Ni 9.469211843278762 8.846894172756462 9.555924937709412 -0.7007775636472383 -2.421006272495082 0.956976680815468
Ni 0.7060988085940868 6.788749515991827 7.797581827959225 -0.0362047320553312 0.5465771942110136 1.6137125328614594
Ni 7.794420711443728 2.1955575877846676 7.023053763722016 1.2637041457505527 0.8174120590145469 0.2715825416028355
Ni 7.699956829134684 5.055337737637318 8.04583065602714 -0.19734039515880855 -1.2430736139843948 2.525104325958277
Ni 3.2811761088491913 8.071270205512128 6.112093167360697 0.2548971105273546 -1.6234019922350815 0.369259522031035
Ni -0.17950262914364515 5.139609537173509 6.385010901483632 1.388103886885577 -0.9300934832713789 -0.8108053523313068
Ni 3.6610183087981163 2.456467514506585 6.132122504276777 -1.6993796333129765 -0.4594036844172991 0.47834243030333096
Ni 7.542187453555635 1.6158470738041844 13.826961115235681 1.6694795033194347 -0.18723775950716784 -0.7982221163496576
P 4.69961279610829 8.114459502774427 7.857886062403643 0.28644120388222283 1.6918861531494087 -0.5049934572319561
P 4.532205757490179 7.2091105581519574 -0.024049804018952188 -0.02478800557795731 -0.7875831485785726 -0.7128455505553659
P 3.336017460849991 4.559048912934547 2.586223909002967 -1.2543502153394783 -2.042802653896882 0.3675301980447541
P 6.250269349547581 3.2474766293636113 8.650117672773678 0.9295754059843798 -1.487499135556464 1.7414469947966715
P 7.2604313448431865 4.922517250078853 2.807127831767435 0.462762573587203 -0.6230145485341463 -1.591361675970085
P 6.775110790540575 5.811926627354838 6.313129458964774 0.2060921732095096 0.41757877796171305 0.48994607598053036
P 2.707416366678062 0.6998856114440721 6.920174713886919 -1.422456396223518 0.4423685833118833 0.15363986894706444
P 1.665689407871971 7.027990871451423 9.990564136080435 -1.668413009728133 0.5902144712849899 -0.9968467775375283
Ni 6.171818957216193 7.536310604377453 1.2733857003732094 1.416650073954386 0.8131201165074126 0.28975946962217836
Ni 3.4565852722916817 4.943917851803175 0.29504832183008145 1.0729262343006103 0.8335814696855579 -0.22471055964164527
Ni -0.17543688442917982 3.8141490392711157 0.5032347799342797 0.7616497165422624 0.13287126894114534 -0.3826475133021668
Ni 8.255161990881616 8.44958775119313 13.031024132978146 -0.13658471323699056 0.9437375564173748 2.0513798540429318
Ni 2.7125447492156263 8.88430826445844 9.37365945022571 0.42459480426823004 0.42921944752443497 -0.8402231433717916
Ni 3.311807799141129 6.60556923594737 8.619741939592172 -0.500814386153602 -0.4323860181778747 -1.5341798274424545
Ni 5.199921163881044 4.4091245765886375 12.29835291057636 0.13112703255652902 -0.8455275863038405 0.4230305451049037
Ni 3.8986703276875128 5.695600126876646 10.634070804795327 2.213715965212413 -1.3318468641650612 -0.5108684279554944
Ni 7.696057410340355 7.8056754320396795 3.7269730043627516 -0.03694238155230412 -0.1986953665248062 -0.9563619300496045
Ni 5.101973677578015 5.524598600317792 2.1922652585988405 1.0336631750349294 0.10349050178618305 -0.5074720006794358
Ni 5.272679513612181 5.190911843206945 8.120768799344964 -0.7539706027304499 0.5445902456879718 0.9695748291954528
Ni 7.386404748689337 0.883026158074274 9.281505650140794 -0.09586846646455104 0.09922889829635168 -0.29406683874828066
Ni 8.910458395235569 3.2436234122137657 11.74774388842255 0.4556380467272798 -0.6991947925411507 -0.30286721064873007
Ni 2.324293849970875 5.8144122758279995 6.364792137825174 0.2929381244604761 -0.35849585575662773 0.24734012411570305
Ni 6.0186050637831245 8.145580930497879 5.760979149951028 -1.7160300973854639 -1.7871385832965159 0.8622875793709989
Ni 1.2050497720519433 1.4766877206227114 10.563609600827862 0.712689741703792 0.5520595574818234 1.0142045520896856
Ni 4.524739571741797 7.811672405493515 11.354840483578405 -0.5045337439867181 0.225647726743934 -0.4462460639894186
Ni 4.9170377350432215 1.194035300007301 9.496513319036398 1.4734907370925139 0.3555077196625813 -1.8378301961141121
Ni 5.74136747590107 1.1267841862984853 6.968902664289786 -0.7807653543257908 -1.2587156913970259 0.48209649802912463
Ni 9.080286400024566 3.6124696207758418 2.8043280121117915 -0.7672637202949302 -0.8415758007449441 1.6182237904682517
Ni 3.4895824867811265 -0.055184168202860255 -0.20363744418844526 0.0709886725037358 -0.01982680491794005 0.17439381366496418
Ni 6.680757792178289 2.5194126349496258 11.037644941449164 -0.43633009042728726 -0.8035527845339515 0.26550471083987176
Ni 7.37084403482761 0.5703925663212404 5.058453576541223 1.0112105024583682 2.2582904093886786 0.036157166646847406
Ni 1.2049573687629782 1.1503008233401089 3.518701535232705 -0.6460390344537777 2.2128885842151114 -0.8836097378875427
P 5.666945866968562 2.164620966639145 13.146845187465699 -1.521235865687277 2.2142260720796125 -1.6293360983313296
P 3.299767650588974 4.256150931706879 7.4951819004590785 1.4862040708941242 -0.701478703479321 -0.23849347235835056
P 3.749697745217944 0.5833133182172333 10.998356911046974 -1.8421493923147565 0.7942034821085676 2.729891664313434
P 5.389551193495267 2.055686729278163 4.926416668873181 0.9018545430303436 -0.8177655856992239 -1.1361301206526047
P 8.39940352495617 0.692335338702732 11.511625764129976 0.4561970045545434 1.2870402493733317 -1.046834679419881
P 0.9880036866017694 6.923076177160424 5.239892978621577 0.07519705415812857 1.5587066089392252 -0.7733623769935003
P 3.171853777674556 0.734832535330681 1.8826708110198696 -0.0838560153847072 0.3496260640708237 0.9871691452384482
P 8.203453110376735 -0.018738462969237004 7.38395883363043 0.07964017753114672 2.4146538479144932 0.2583192488350261
