# total energy = -340874.6211861437 ev
CRYSTAL
PRIMVEC
9.21073599933095 0.00000000000000 0.00000000000000
0.00000000000000 9.21073599933095 0.00000000000000
0.00000000000000 0.00000000000000 13.48084317048297
PRIMCOORD
 96 1
Ni 6.922254744096504 8.974231658420072 7.6207610191932735 1.0041664511273933 -0.4169984799782109 0.8615283326074712
Ni 1.2226422701407427 8.340661991219275 0.6275734782474104 -0.9695372910892979 -1.3021809616695121 -0.572417295202569
Ni 4.347393573713242 6.743437520838336 1.4758555268787976 -0.6027046333322008 -1.3593011037212719 -0.42398236749521173
Ni 2.489993451463887 4.696904151324986 2.335663890189554 0.9091950425558148 -0.71236578270547 0.023110103654902136
Ni 8.383077429207523 8.687335662229415 12.100781818678586 0.9478217537890772 -0.2210963599278257 0.10582300657410161
Ni 2.092015982496189 6.000416681082846 8.281766704881715 1.2198516673419766 -0.09286438953090459 0.4736997893249971
Ni 3.6691426275372003 8.124311019904187 4.6067144693068895 1.256578590449365 -0.045679504314985846 -1.3960542520809054
Ni 6.878651121200441 1.2820515155314494 12.23471420570211 -0.25701878485604773 -0.7928719077813378 -0.6920448117599307
Ni 8.858130334675907 6.625549314364592 8.517089028558233 -0.7981958910974124 -0.1491095851768787 -1.1194526599969237
Ni 0.9291237549677739 5.899789393347424 4.172900790875374 -0.7640223305394971 -1.1119584085024077 0.6237059181742162
Ni 0.6825974923620681 5.772229914368216 1.5571586910747306 0.15245484750002775 0.67379203619733 -0.4930630243429573
Ni 4.1647538951314855 7.018691147079558 6.4800390325416695 -0.7507181572314231 -0.5864884285836545 1.4490143492177046
Ni 4.039441835667833 2.8479318522589643 1.7388800593052527 1.453236100608536 -0.7314762782826758 0.7197224801808573
Ni 1.2254975982137843 2.1013004041014343 8.999325386814249 1.7881544261555395 -0.4801051786307087 0.24119055957453944
Ni 5.992163861878184 5.627271355614892 13.196342647023963 -0.866356864344366 -1.7002106138547042 -0.41425999800112523
Ni 6.962966195976647 4.431063896989083 6.448169886952236 -0.17927042503097515 0.795903752629126 1.5245960404087615
Ni 8.09646696582417 5.4964144332481055 10.587543599808669 0.21002210439153507 0.20095588042420875 1.0692217888658295
Ni 5.776190530727596 1.115770103587507 9.509400272708847 0.40887019444412165 1.1591445792699069 0.10864967738961934
Ni 5.925561031890555 2.7845343583017192 0.3282144355547134 0.5011311460630724 0.5138460225265795 -0.29356007431519116
Ni 5.504013290216684 2.5899207232846275 7.372632088572376 -0.0903717050160379 -0.11023013450286177 0.3785473750908642
Ni 7.008789606181106 7.83780187461375 9.872708532428387 0.4394444676865528 -0.17051247633268696 -0.569020096595562
Ni 2.667548803928484 0.29818835818274986 12.799978898954318 1.3056424378555513 -0.13162865478329588 -1.355592287411117
Ni 5.070399484750281 8.5389783419956 11.020265806057425 -0.20968580409803886 0.099529460255906 1.6083985768477138
Ni 8.298209710288146 6.5586148978910614 13.402209037869554 0.5609779430173758 0.8770747649825024 -0.10892401409692853
P 8.749176541850067 5.70288228513618 6.406676443609509 0.7014226534304049 0.5427267101166717 -1.0102098291079957
P 0.11535249093016942 8.8092121172697 7.762996884467917 -0.28504663752754134 -0.13258433382834586 -0.5592383346184497
P 7.978155065507329 3.1035297684747953 12.77586242961998 -0.7780883217142599 -0.49377007771231085 0.4929108150358092
P 8.325547173903592 8.615970881874812 0.9581348092634496 -0.3841714061458609 0.1763735630991543 -0.1419187238553943
P 1.147519509612587 0.7575986711787264 11.252513586150778 -1.8962667429844506 -0.11100763609883463 -0.31626137256744885
P 3.207224231204807 5.740287082893026 4.435332151921495 -1.3657694850544349 0.5293641727668367 -1.5639899688253516
P 3.172923451385428 7.59952014155056 10.219908136448113 -0.12581513342531236 -1.1007098321717816 0.22899813127340565
P 0.8303717730248402 5.084105059500882 9.727115353983992 -0.46591217495977827 -0.6940399878130886 1.2178156107485545
Ni 4.741364372642962 0.20300000988968667 6.605667020240501 2.1752067533936215 0.05636346639139325 0.18784505407386357
Ni 5.25820638607067 1.1776478261510368 4.019879154073209 -0.5482245000064494 0.22536773360966994 -0.029310576038659195
Ni 0.9275671406311802 8.201036448447534 9.759281085263593 1.671777812435308 -0.5756206326312151 0.09311764319229124
Ni -0.10433184564180036 3.281812769061232 2.913129123975798 0.9355344517812921 0.6556745006610127 -0.0849857581137762
Ni 8.424488897002346 7.903787585308172 5.761429405663542 0.4394372685977013 -0.4312449625948961 0.9785649485092051
Ni 0.4132995278370687 4.360141231949015 12.490149091895706 -0.6395724528928276 0.09863420213514627 -0.28484403459843205
Ni 3.09856518192199 3.5098153210614726 8.03227734859505 -2.3322852157085894 -0.73368022791253 -3.010636332031512
Ni 1.6285041288843234 7.097056086580973 6.196698380338737 -0.5301954104188804 1.3880429517406547 -0.746866387585501
Ni 8.487444275645057 1.7917736302479927 1.1838945471159945 -1.5360019682528578 -0.16802159159003321 0.2233000524473638
Ni 2.5441157345516068 5.077777284061593 11.099195363658446 -0.24498679339217808 0.1898785395641246 -0.9344890412359131
Ni 5.715224671000295 7.9222274782185895 -0.14611450608612012 0.4200421519005411 1.6430282511064414 0.13613219908060428
Ni 4.351271293451147 2.125331213593582 11.746842719332912 -0.057379823471049564 1.3109975315198774 -1.4793798488834393
Ni 5.090036773304233 5.820392851445425 10.164110420533017 0.7059583365172294 2.697476481207522 0.6347081828219908
Ni 1.0411907764668014 0.5825292962848193 2.5559810043054525 -0.436889562475183 3.1373150990087 -1.6753326196661018
Ni 9.022541967268793 3.108475933556161 10.589767992484925 -1.7528871183128132 0.18507828996200384 -0.26750477198903605
Ni 4.1126948168449315 4.7396327543276975 5.962671086104378 2.537862911175526 -1.7487460995612465 1.3194176372627728
Ni 1.8345943406078988 4.724582412162052 6.18278648510802 -1.1357313425522892 -0.024293839550358163 0.5420078296727763
Ni 4.267904924454048 3.823182971709941 9.709725484945595 1.5302864059253194 -2.0896250135670593 2.334401233610328
Ni 1.9837529948493104 2.780472423849424 11.322924134284843 1.1537789440826194 -0.4761330813568381 -1.1082809596508203
Ni 2.3676380381661897 7.137399109032337 2.6899677346697213 0.833363697247797 -0.1194303129448911 0.39658314954665247
Ni 2.8992264394808007 1.5837952177019219 3.5821297282687556 0.9316166047841247 -0.9985221083574223 -1.152850775841395
Ni 3.022373976050374 0.5960442088060262 10.20356921235531 0.17727730586034632 -0.1786937265918987 0.6502289041654092
Ni 6.4354028861714525 3.4766474617355914 11.102148325530115 0.4888003924118614 0.0012238451047720859 0.07009624259645347
Ni 6.560843895935179 0.4803665789049588 1.7337303369644863 -0.9193028204137781 -0.05787090417485518 -0.10690646944626751
P 8.188390108304676 5.624581820784799 3.073106708393322 -0.024870280879118457 0.023186465418792324 0.9369961239284831
P 3.6367853129546344 1.3431831685017006 8.363757911035893 1.3280187486682227 0.7354846281111204 -1.6476575223483367
P 5.121150638564668 8.312707408310624 2.8194909425043253 -0.43847387624316747 0.6086510807236228 0.02972760897141977
P 4.35896225777692 5.345864957913051 8.077815225992206 0.401990693715469 0.20107877915531822 0.10058361255203321
P 4.562768207042062 4.414327990186771 11.890049396152389 0.2630212822963857 -0.07856442796846469 0.055611675827033254
P 1.997412515921313 2.4754036460842155 1.5850644570840675 -1.504396939753067 0.015157424466728736 1.0256228212289562
P 6.095416209293659 7.790090263586795 5.784238871599285 0.5598443436335648 0.4644643867696582 0.027430842517443082
P 6.947409263346429 6.892973815244247 11.770716946317828 -0.3600238623653799 1.4486981035288664 -0.7773563286442419
Ni 8.583742517592318 3.3066264910895367 5.255533430564874 0.8513043408866178 -0.19050743139737514 -0.12713539489863265
Ni 6.615491190958909 6.909129445696231 1.9742825163825313 1.5424796055574017 0.02178932796094957 0.7219881362865823
Ni 4.73852746604136 8.401627850946573 8.71265505364872 0.8625022664849662 -1.3017382177051386 0.3920721490501764
Ni 3.2962920456122693 8.935684729434008 1.5206657561541135 1.4105635014406739 1.050379973568978 0.3021501299770474
Ni 3.630761491794088 6.768030185209373 12.391913832226635 0.2915751826746785 0.62972795599858 0.3591268044724073
Ni 0.13697285088452688 4.182162185641321 7.829120756198131 -0.40413987884798785 -0.10602483817226256 0.8427621077435615
Ni 6.180219453062999 6.508665078084271 7.615988937017007 0.8527372166784023 0.20940915339788452 0.5056537165237743
Ni 6.376942346559853 5.5639291260719625 4.49110223562943 0.14380745623767494 0.6528645420160434 -0.788069858407004
Ni 2.9937930631127987 3.615950628757149 13.290573999875772 -0.4148626645821306 0.35693108237266913 -0.29142143070563353
Ni 8.7767442738585 1.8846731107147627 7.386774252196081 -1.528461951122071 -1.6444325876531356 0.10966680580022403
Ni 7.841698015823094 4.661912566326646 1.2059800492241861 -1.1705332807228228 -1.7880811497154432 -0.7476837412804735
Ni 7.090663835991648 1.225414701592309 5.83546622045037 -0.6453602632191983 0.35049715382186736 -0.9636553783872243
Ni 0.9435017134258968 1.8417787144691007 13.215862959234276 0.13371021990267296 0.10417107279297542 -0.16944752540328237
Ni 2.042996446997066 3.4144842063647576 4.352222762450969 -0.82324820608035 0.2684514521730216 0.18356365308969033
Ni 2.953394776247118 0.9064975826728482 5.783483591270287 -3.1333589425744295 1.2197660496067058 0.23777047814939697
Ni 9.385094946659335 7.82101991413284 2.8636545781321328 -2.947685442230588 -2.0143127739873052 0.5761556791990787
Ni 0.2620767477209197 0.9235788920646413 5.178773922299365 0.9480953191654381 0.033360577738316737 -0.16222195418912064
Ni 4.494866663317986 3.7843965635951715 3.8419185292369544 -0.9069370997595735 0.49772623414658146 -0.06427860747341187
Ni 2.623042528931911 8.38059974129898 7.971060956856179 -1.3475851008359243 1.1692911807856057 -0.44918843444719414
Ni 6.852013673499678 4.563818230914084 8.895765400825741 -0.3331337228427553 -0.788375819683197 -0.4773924076852359
Ni 6.525170716493596 3.1509466359587264 2.939322614214882 1.1617588769643024 -0.4831683909370647 -0.34845184125706435
Ni 1.1047632744027172 7.14600193619434 11.827053490272514 0.3762794049922939 -0.9002355193696817 0.6153380058254951
Ni 8.582195113991444 0.5656018061795417 9.738682195900527 -1.4848110472013398 1.7333454487354598 0.018075883665104354
Ni 7.050283970597405 8.79065248479493 3.995438466841544 -0.23281776212981192 -1.6633116839458257 -0.3317211587659448
P 7.5058285378119125 2.4965699167676023 9.094837031931066 -0.896868659779978 -0.10696971858403514 -0.09427541094581829
P 1.7305222377133882 8.740242128202162 4.178643684596476 -0.35776720512071936 0.1221101737698994 1.6041572850728567
P 6.027910727205522 3.0484219366650898 5.195017975814257 -0.8683309573516015 -0.23163351201372367 -0.27904645408004847
P 5.470430947783425 4.650242564170052 1.6191837854097724 -0.5015111551103105 -0.029904757979232366 0.7850254151537255
P 7.980365642080007 1.4397024681062298 3.6254837402268207 0.4217663336804995 1.331560443272894 -0.8345487186948336
P 4.804955292050317 0.6985541709225115 13.065781389273772 0.9600612332780627 -1.2806993947569687 2.068274058695109
P 1.469480776687339 2.5493013787616787 6.748698693081309 0.6749693443348826 0.2962754163638252 -1.5404875148280373
P 1.908446019606765 5.538387755921818 -0.2914866268732494 1.2031901475258957 2.1548636709608955 1.8143274850064817
