# total energy = -340863.7301836356 ev
CRYSTAL
PRIMVEC
9.33229923140167 0.00000000000000 0.00000000000000
0.00000000000000 9.33229923140167 0.00000000000000
0.00000000000000 0.00000000000000 13.65876324841940
PRIMCOORD
 96 1
Ni 8.18088960265097 0.4981002799088458 10.048438555216359 0.049830036148249664 -0.09383292409176097 0.5832071867292214
Ni 4.386544661764273 0.3010879744499941 7.88703416020974 0.8549995303500179 -0.010022160122692417 -0.4529900675814715
Ni 5.7533625592295 5.195123075745331 7.989762245172411 0.26479662902925366 -0.11131616847818894 0.591164236792769
Ni 2.8862468864650506 3.143771687473871 4.820942666199802 -1.2503215537960595 2.141396746822712 -0.8979359247022277
Ni 8.584418227243157 1.4811665615986225 5.2846982179813535 -1.0120988186005924 -2.40597791740705 0.6463529661497708
Ni 9.274047153503307 6.694216984426321 6.320265216215263 -0.25823671642354884 -0.7224805025419687 0.16533941677217978
Ni 8.155272440890897 1.6664033717172702 12.968531825022549 1.1230619746147368 -0.7273851389324376 -0.7257306340481502
Ni 7.949579230561656 4.875351837964311 10.415462957607927 0.13103190173956142 0.43278196806471275 0.15978506261285386
Ni 7.771686940044165 2.7922239703511216 9.225265358256586 1.1416772757230789 0.563779674132229 -0.4901275958637171
Ni 6.515708762150664 3.137612369892214 2.0986008199622606 -0.3606434982272499 1.484721829921643 0.01381865105064717
Ni 1.775227314625908 1.7023793857737661 3.0191602937275226 0.05259628603947716 1.3959249255918926 -0.04475647828008421
Ni 1.4358489158766137 8.395672472562838 12.519963657229466 0.8335845550093514 1.5430611890924844 1.1811678776185335
Ni 2.976191587755973 6.885314478546908 4.73242020733228 3.5363374541244643 0.6707985007866447 -1.1885304886311918
Ni 0.4537709246897119 3.2650729146350472 5.844735102323443 0.5309739404561178 2.003667121348001 0.3714755558457473
Ni 9.070267064544126 3.9069298004398916 12.70342826369848 0.25682132413326086 -0.06204303327467379 -1.302934552006085
Ni 6.226192838914693 6.722932469575954 11.836083427378862 1.8816729043306752 1.5257093280775984 -0.8443397366433266
Ni 0.1292523462211331 4.542618036363713 8.092598584807728 -1.7066885082695638 0.4178500293452288 -0.13078867538050382
Ni 5.226320952526359 5.281409515684723 12.961264763506131 -1.7932853196242018 -2.3692525369615582 0.4050037695101799
Ni 9.301316132251188 8.183343997384267 8.557078323020093 0.12332193468981341 -1.2083819761394803 0.6096435265438791
Ni 6.038996245929154 7.081768712503665 0.4413906963505816 -0.8384596237134655 1.3770376017690864 1.3692484447419708
Ni 8.126836924722248 5.97792567887709 0.388624942504451 -2.3717773602659413 -0.2153561150099388 0.5101765440947924
Ni 3.6336987395978455 1.0774606233184782 1.4049403403759355 -1.0046259072623152 3.275960294319145 -0.38671165606921143
Ni 6.9113142645809935 2.6354413409998547 11.259683289328171 -0.5582186351046838 0.6089974083194479 1.1168036524098508
Ni 2.5731575750301916 8.61783719127333 2.9040575798053414 0.6976953251774888 -0.779752082569928 -1.052539443114142
P 0.003852373178345397 2.2801047103344496 10.982628785435814 -2.526468039075023 -0.546292058870427 1.6470509991125892
P 4.166479710411166 7.489692850097308 11.36261575164696 0.23796253955554503 0.5018243154753551 -0.7776360646681898
P 3.89145684809082 7.175604982630271 1.5346854320036012 0.23640213704696061 1.5242306866495425 0.25229078325275905
P 4.756505005536431 3.523185650503935 0.5094763528361788 -0.08319138521751479 -0.6624064200682076 0.540275677473018
P 0.4591752592526475 8.10890957763988 10.660664457303751 0.6891646619986583 0.10446186456051687 0.07639930199634584
P 8.13283759321468 6.336369965231422 8.816841009416917 0.19362566531138264 -0.34409510695026546 -0.9160886843518545
P 1.6621011817094766 5.431696864677152 5.254212395641962 -1.5336542939562876 -1.7139829850484483 0.7643858845265029
P 1.7340998713192992 0.4948507732695535 1.0896308749218704 -2.0567400899135806 -0.19978782825803656 -0.8779103735099203
Ni 3.974934265921003 0.09393799218969702 10.238362979306622 0.061278387194507365 0.14508400895725337 -0.31788708109632996
Ni 5.069734301461782 9.062390603879098 1.9957224849797948 2.7636435639528987 -2.5316678381084077 1.160233955679344
Ni 1.1417788305499619 8.252552329483612 4.7971760994040356 -1.3448502184032645 0.4934098661594148 -0.17201914278520053
Ni 8.191453765533447 8.336067076511258 12.106609054634662 -0.6391338226935122 0.48861784408741016 -0.3779357096487943
Ni 1.3640088753560158 3.170667374247106 9.767914302419667 1.7559647287968725 2.427170492324265 -0.3768807860217187
Ni 0.19844761310136516 2.9639289463888563 1.1992788598645387 0.22544949469019882 -0.7389481611796886 -0.005580579411571034
Ni 6.150349241966018 0.5584559928294636 5.910338367177644 -1.857908712031542 -0.38538830927209755 -1.1235630826208716
Ni 4.739902844964056 7.371293968039003 7.474853560875197 0.1812234349922879 -0.12343352056701323 -1.278822746559546
Ni 4.563447728548953 4.855436711116954 5.783462024375133 -1.8548768671837539 -1.1425627636518259 0.4545844086517849
Ni 0.3313824846523798 1.7296296999229148 8.24145155938758 0.3343084598771468 0.0009317677856500082 -1.2971657678431079
Ni 1.1972033564855078 6.056438313444483 9.876611326056928 -0.8689007138121424 -0.15111427431173327 0.2428625479603237
Ni 5.952355178613848 0.10270848713400178 11.560285984211125 0.39062127553626275 0.22398550855016264 0.13953171168045647
Ni 0.14038671259488286 6.482560434802111 12.474999705653433 0.9687399919989832 -0.18428356197485038 -3.011054393405537
Ni 2.951516988231881 6.333168986548834 12.695287698961392 -0.5605369988252152 0.6771403838442726 -0.9499179741964737
Ni 7.556418790565258 7.7044850523085415 2.2834176766094316 -0.1499757898319159 0.9219176323288059 -1.6586880691308854
Ni 0.9933486091313971 5.300036785219553 0.5233740130522446 1.8974227109657646 -0.8031779176930361 1.557246222343615
Ni 4.045719756613226 3.1494457254884884 2.7723461727012286 0.2086421933248729 0.4465882778201857 -1.2014610806499308
Ni 2.2825124435709157 3.9261450048347877 7.529734946987634 0.6259258086436704 0.3458557983951141 -1.0931052803516466
Ni 3.4101248436830667 5.266440507501424 0.9327054613903021 -0.24931498845388675 -2.389055173509782 1.5840499728000204
Ni 4.9805081872220525 3.133786127152094 9.887100830544476 -0.056448827016347944 -1.611620169108805 -1.8710239092572616
Ni 7.788373091310835 0.4277860703346128 7.374052595731636 1.0695452336435194 0.5388338028201688 1.1293033275387585
Ni 8.366173074266449 6.220789437581694 3.9150796974763473 -0.5974670390823452 3.2520616333246766 3.020497541096308
Ni 6.025520405644438 2.262438667634334 7.843490584597236 -0.9408815750258183 -0.5585713904584122 -0.673042559625815
Ni 6.4764944402141165 1.4548588096854547 3.6832224526441766 0.5657028592968708 -0.9270924916615259 0.1692480077979666
P 1.5083982111490388 4.887465162541569 11.829459361288771 0.8230983107660471 -0.35425482109208667 -0.5065520599683275
P 6.267562922004821 0.2967223248065106 8.956802169160703 -0.02433600564220325 -0.4478671445326093 0.779452034831006
P 3.271558862694519 5.8772954948119285 7.9225612906667235 0.4433623146837203 -2.092418002931164 0.6328886131147488
P 3.852410507542862 1.429138992632354 11.867634998305867 -0.26846225080629893 -1.69968225215506 0.9503098103182538
P 3.6366757430956462 8.961209814151333 5.782410274236567 0.36148090652688064 -0.0799476814692365 0.5035775507210359
P 6.126131925110867 6.11793816626739 5.604204418460375 0.33544463036411903 2.4000818636375887 0.39744446910568326
P 5.114417350826893 2.6868156490104935 4.786262908525264 -1.1163768492850772 -0.4795747600485354 0.2898733694922233
P 7.8027728292328 3.151769468030659 7.058329709415651 1.4400468556117716 -0.25122043300671576 -0.540436114310282
Ni 4.122645900288375 8.816829810657676 13.378062051337107 -0.24542439515022893 -0.5155048982862412 -1.0103730941587372
Ni 1.750048770936044 1.2744841275365693 5.473695011514622 -0.00970797131638328 -1.3983425338944497 0.5842477121785937
Ni 6.3651881056740836 4.215110322408157 4.141610065830322 -1.844792229254242 -0.29066655481748005 -2.6808990364648153
Ni 3.9305125209381444 3.427818883281281 11.854385932895747 -0.7859610395941173 1.7706385287589637 2.1464913877367997
Ni 6.330518613528848 7.476058360723367 9.77638243086451 0.06618096670244732 0.7656840345126361 -2.2605977173656164
Ni 7.611815319602704 1.253486453962739 1.5629445677142304 2.229417692218386 -1.4935738809956343 1.2634411218971533
Ni 7.07713055971869 7.454715392072989 7.130529976691783 0.018742570714825785 -0.5770933605219997 0.4167963912697338
Ni 1.5629548332435328 0.8590922839901362 10.37687669941872 0.12653015721446598 -1.598275372370783 -0.47873992285206585
Ni 1.4126861488498375 6.343798475526875 3.1496155733369524 -0.013119310990777407 -1.1273693437408392 -0.9001036217775078
Ni 1.6324151374257636 1.9395784387631192 12.522367657546184 0.3023900139019953 -0.17681193618815355 0.9182607523025089
Ni 3.6599598300141825 5.203540809773594 10.30139799537526 -1.2065948023320705 1.2850224476123546 -0.7304522078935356
Ni 5.559418713802237 7.70889922990873 4.061747047544647 0.48793393064650803 0.4712947794279303 0.6919229414700858
Ni 8.756039212586597 2.7552494002624477 3.4830940924269687 -0.21584411038995086 0.5458845390193631 -0.7480079573891117
Ni 5.7818634014937125 1.4591516673938822 0.34202503884953356 -2.1598287282756545 1.3941256675996248 -1.5839777248011881
Ni 7.728039775908697 4.799704219302324 5.51646027335999 3.619733499153618 -0.740612436255989 4.086952051629645
Ni 6.924155508508811 3.7245673385260165 13.617623109296032 0.3733308638869312 -0.09737796113054197 -0.5359634232509092
Ni 3.962438317069733 0.8128666055398013 3.970097335159529 0.7137505788681385 0.5572845533261885 0.7216209827551507
Ni 3.9574828661063086 2.1676318383736484 6.564442962670619 0.2858110264973916 -0.14177628474025908 -0.4284239482063331
Ni 8.742526043104418 4.946491956032447 2.3732102614206863 0.4662009098447906 -2.9120003301241524 -1.8142791482670497
Ni 3.0491421719011425 7.533638647812493 9.16714753072397 -0.2681478048896737 0.12352093807449693 1.3314483431750617
Ni 0.227949811087565 9.326410685246756 2.918686892291713 -0.5424186919579498 0.15454129771541128 -1.5473744717558575
Ni 2.1234900623717743 0.0875845627812243 8.03738963498754 0.24189735583357697 1.0015881488772556 0.7478881439817959
Ni 4.379228139061214 5.767902281641956 3.2077604645377296 0.7337020822894009 -0.5086277115504337 -0.20135517274515644
Ni 2.15144963127275 7.323335281596375 6.708296624480027 0.5589727396618889 0.18269333466959503 2.5083697868124157
P 6.997442055431162 9.164765927925728 13.610329917341387 -0.19119494438270299 -1.2529859880021004 1.1527417610673567
P 0.5402197466380761 9.031734000461306 6.737922942047796 -1.1658147922012307 1.1274737305291873 -1.8622387068654638
P 7.8784857739903495 8.731887221827009 4.049960353445203 -1.125857792192319 1.210085331983832 2.115035483220364
P 5.755639640274839 4.913175647295303 10.630629385023743 0.913696015749962 -0.02567400772733643 0.6900956584533599
P 1.831043797134832 4.01083562158257 2.5035554198975953 -0.19831201504345847 -0.12090046973251437 -0.5216822307415467
P 3.163668149722496 2.1997722773906583 8.554128383190456 -0.04046222178010451 -0.38431513081257684 1.527782408556543
P 0.31028775516514157 7.262815320206912 1.5108638046415748 -0.24287668902771078 0.14595844114240666 -0.5716464784748155
P 6.607837221493266 5.7363871066824785 2.4206472723287473 -0.2855102074275212 -0.18352354388037423 -0.4975161750183045
