# total energy = -340884.92910202994 ev
CRYSTAL
PRIMVEC
9.14488621975449 0.00000000000000 0.00000000000000
0.00000000000000 9.14488621975449 0.00000000000000
0.00000000000000 0.00000000000000 13.38446536187784
PRIMCOORD
 96 1
Ni 5.811675625161698 3.1760554755482726 9.252158221883699 -0.7933118235322337 0.37546513662111464 -0.08438463419466757
Ni 4.737380146301583 0.3367275041098091 6.191224972296069 0.12844845728310136 1.1556123977469324 -0.9387277619076091
Ni 2.6914679682080087 2.0271468720912673 4.90947501183063 0.48743539374353473 -0.49423030517818106 0.5352681969560975
Ni 3.6691020024071195 2.9782515921029074 2.4762330176227816 2.215613439345442 -1.4664322875838358 2.663648991135116
Ni 5.536313963838379 2.9034921493305603 0.8578908973598317 -0.2063559683938575 1.2040859198672877 0.10438601701725894
Ni 5.229612778309453 4.672497180372555 3.0564495119984834 0.055523744098917284 0.09755922390341264 -1.0737919247350154
Ni 5.01290641557229 4.553494779296525 11.861688011836023 1.218624736913411 0.7755933232065482 1.3201560580906941
Ni 5.564141851833027 8.10625554244373 12.681606599199082 1.1052174902341483 0.3319780119717573 0.3974262142732381
Ni 2.5875363392040063 5.29334348860676 11.842374012675753 -1.399197168585261 0.03072648254957934 -0.04580960213494691
Ni 0.836043764786971 7.464156519224458 11.493200318766169 0.27437887340105005 1.1245876672306439 1.147017971209702
Ni 7.957431668232456 0.04233350611397526 7.284495175047112 0.5743733904876752 0.09636031849930501 -0.3429651071108803
Ni 8.624404781279347 2.697192666822747 1.5650320075239412 0.7124920238706891 -0.5812955715288053 -0.06790977646809594
Ni 1.4984261450789125 1.459706697898715 2.85968448759886 0.09600627759399595 0.2552400956890701 -0.6599109073398636
Ni 1.9122505248139872 6.7606861662871145 0.5474604273339565 -0.3326508696690658 -0.3859292693772321 -0.6459793848604358
Ni 7.088137098072977 3.7626724756116032 4.35882484827172 0.6682929607559717 -0.14352129245582376 -0.34270336880906144
Ni 7.732001084283695 4.095701787836747 12.774347631246446 0.06361629129906464 -0.08093524219348641 -0.3901602767394442
Ni 6.707106279412109 0.9026477982548067 9.45117197374237 2.3006650177001475 0.8263353296461059 -2.2507151681445814
Ni 7.059943414639687 1.037816528741596 0.4846021391578094 -0.5324510392222765 -0.9140096903356388 -0.27224125823275697
Ni 1.797591944571824 6.813918547495412 9.554969172922672 0.7358726075781585 -0.588992940173063 -0.4614577387328505
Ni 9.475930838006818 5.054899731928329 1.5626360474008398 0.09867379712383006 -0.5170789276415805 0.30664313275139443
Ni 6.5290553496533805 2.185664325426541 7.092187368067334 0.8453092996454474 0.42279400361406544 -0.33323065343193575
Ni 3.503405813588508 4.37705334946782 0.6315083307820064 0.3307194569743078 0.7069106731281696 -1.3462571260531202
Ni 6.039858819786235 5.900600496295435 4.888407938030673 -0.39647027811787205 0.7772709680192871 2.206386778540852
Ni 6.303176666292285 2.0860765172564055 11.481435422970865 0.020438470360009963 0.7820341937358855 2.377971919112427
P 0.2044366692365314 5.797363878624851 12.68891427757454 0.7844777701803716 -0.9070623124835282 0.4492126028169102
P 4.238499182196404 6.31597036175877 12.937597563069144 -1.2586771248496065 0.299242212301633 0.14685549903537934
P 1.9007554031546798 8.934626747905197 1.5030891224329945 0.5330300516541981 -0.2467731958686395 -1.1413962541475504
P 6.550408658384076 8.10295423860999 5.913684999135639 -0.7175123599034159 -0.21914206441493225 0.5779479952128111
P 4.721230277685563 1.2968911481594045 13.126345265942343 0.6701498114590523 -0.7569325135722512 -2.256579340234843
P 3.823586561031371 6.562351879455719 8.414023021676297 0.14087896973697028 -0.29989527250459963 0.14888101410584037
P 4.778769900183863 1.4677267628909287 3.9949955601129656 -0.18263188530404031 0.09200178442029316 0.26334575551534
P 0.1259250797523199 5.809078477547343 3.730571182405026 -0.14858867967640216 -0.7369768963859307 1.0113845661423873
Ni 0.40734614251673473 0.26775220171098035 4.964860099195332 2.1976481131162733 -0.31966319916014624 0.16248652070441694
Ni 1.6731391914600362 6.990552019929404 5.028490215747013 1.0159014801761341 0.4267259916786199 1.0577027324826365
Ni 7.92177575785088 7.756436219584944 9.313593565803531 1.2200725251035311 0.3305021987571792 -0.30337397508181946
Ni 8.300282587985123 2.789235944070903 10.398177041375437 0.5628003409380953 -0.7031977430529567 0.723964800396979
Ni 3.317910946653428 4.789222504843043 4.86536008193047 -0.8685831825717235 1.9015629583863831 1.3102395703079306
Ni 1.4619471949603937 1.3082399516432555 7.267857884009103 -0.4462992858248572 0.2163400761897629 -0.8134821278325216
Ni 1.5705244260351428 1.2669142119627375 11.85553076011509 0.4448026466746727 -0.10525993498178 -0.8548936008997728
Ni 4.070919146868789 6.875609948222293 1.7418273444395314 1.0724891467631916 1.441524982819195 -0.3728814350543384
Ni 5.702851482165865 8.124700777437225 8.061516931320687 -0.7777746471285831 0.4435093817845459 0.04211724088502424
Ni 7.376447917924203 0.8194979226086215 4.986650533475204 -2.112752857833774 -0.03575350345052552 0.5107573562989268
Ni 0.992732240929037 7.990060621359273 7.697325505677679 -1.4865799661763042 0.2016937870314978 -1.7939532922255041
Ni 5.061602933341434 5.066083927464792 7.374412266308164 -0.8277427515165938 0.21722839233198718 -0.09374987745965144
Ni 0.6222774828878893 0.297346881674267 9.628021265485161 -1.9416613690691655 -1.1284834027406243 0.19591446134555937
Ni 4.7215046242645435 0.8171705491302652 10.394496224774107 -2.2519423556834637 -1.803396697026591 0.1850222399130878
Ni 8.350314259105307 7.269781968016356 5.066662798746441 -0.14384190902003613 0.6451175510807728 -0.33411665558131487
Ni 7.4381027391072205 6.525214497547646 7.322172105227182 -1.4959238692850496 -0.6264873375740952 -1.180714592131199
Ni 2.7279377734405617 5.303366283625535 2.723631446639155 -0.99908543706006 0.11700987642885653 -0.2017071567679365
Ni 3.965103671355783 4.703781835262365 9.705985990788603 -1.4452438264316785 -0.48941102941266673 -0.6084888441141456
Ni 1.2525110165662303 3.8841897203282936 4.058089786347037 -1.6539238149730229 -0.31520979137448296 -0.5188432186308549
Ni 0.17070850081659628 0.04893337031566365 0.1250215650188755 1.1329951745680487 -0.918504749992515 1.0411769669134714
Ni 2.0064519951501274 5.854546850570475 7.242936240774459 1.5189704666918677 -0.9336554895910243 0.584017855555975
Ni 4.780891513727983 3.3483725618062947 5.386510672340141 2.187418722078781 -1.9601452868059663 0.4935924144838661
Ni 3.9979338119738532 7.136943354473712 6.139453943865144 -0.055368963688607865 0.252062726402353 0.12918842077291945
Ni 1.2720079134458195 7.292388126124398 2.7923744689344465 -0.20392164792075204 0.7670161230604984 -1.0169484333834098
P -0.0557463103603607 6.095770652582581 8.502360791131013 2.404644286197291 -0.07723491052376376 0.04420343399009161
P 8.625575326683 1.8074592765291773 8.423673619836254 0.10056510060927197 0.4852872370522804 -0.6958595575203306
P 1.966333380417126 3.4749286386902707 10.63678174804687 -0.8880636598938382 -0.20526016422651747 -1.2273968266790862
P 4.104892398232614 6.761308018532805 3.970768928211742 -0.8437884921255467 -1.5322077913177483 -0.2528448559840162
P 6.767928915972216 4.54242946727762 10.6865582768486 1.4783200401603573 -0.35705912331010115 0.010068182869279433
P 6.3088922200210575 8.312893385732286 10.553851349663871 -2.728700215108494 -1.713433026082249 0.09359124039460011
P 2.53607806587312 9.098603698162194 5.729140285852431 -1.048720069368052 -0.930171644807482 1.0687039686891466
P 7.089801467318796 4.199770590130241 1.6589509008837309 0.11101380674642172 0.27635913705587245 1.166622375704191
Ni 2.756003428470327 1.7870296012810523 0.5392510632022457 -0.28622677387857154 -0.7157424124871867 -0.10054144646018814
Ni 1.1024891622934048 3.5641370012889553 8.374458587032837 0.16821365299618124 -0.23761286952561014 0.8688806592074843
Ni 7.9827812921303085 -0.07051255772971952 11.454144339782422 1.5090730050724979 2.3189728148704 0.7182152995077115
Ni 2.4833120738490906 1.4265747760437653 9.46535934983008 1.926696263118901 2.8536288321637953 0.30609497355740833
Ni 6.658272588353475 1.6677528536260409 2.9250941989595316 0.23883851440259515 0.6965020762003359 -0.9150461020199531
Ni 3.926484817921212 6.862020647676763 10.732252528555094 0.722275328509698 2.2618691278788723 0.6786727613283989
Ni 7.679655757014102 6.834714018182178 11.527236669843159 -1.065327596017746 -2.569980360535361 0.9554589586193609
Ni 8.021875679635114 4.229619497923383 8.515317265567694 -1.884357136031058 -0.08816158473859655 -1.1508381162867407
Ni 3.259868355426995 8.525484549784732 12.94905519069599 -0.5895914929890105 0.6156090000986947 -0.010616856283897844
Ni 0.1711657451148981 5.078008858764503 10.487919465314539 0.26203680689592934 -0.23043794904372572 0.6560498817225604
Ni 8.72003285382619 2.6904071614359486 5.85241060520881 0.8203518583691615 0.2399769988824125 0.7131520260521911
Ni 3.8139295614512365 2.7866662311144466 11.289233696668292 -0.3786085673461028 -1.2620493837559492 0.8857447819526745
Ni 1.1853052496018295 3.4715084513389733 12.783649809251097 -0.9796406980718869 0.8907057255023756 0.4745402829484214
Ni 3.130641971840936 8.604450640101456 8.350474294609713 1.1826963984479177 0.4427028267228504 -0.5023596191535348
Ni 5.71435574871114 8.200027203139467 3.839039589336779 0.18049992656270206 1.0397201798622866 -0.5611527780323433
Ni 3.16143280288858 8.837828129954703 3.4076579430355114 -0.1584385758872884 -0.3729953349243834 1.1287399988361206
Ni 3.3810380944769762 3.484576493384439 7.594130954482539 0.3197691286103912 -1.3682140899401856 -0.06450409322065666
Ni 5.880454312512257 6.1254275177704365 9.465346546989727 1.1547238244943918 0.4682256535843033 0.23158234706081407
Ni 8.342495381604346 8.774307752034614 2.6089134246382124 -0.3521136063793678 0.6337103376850957 0.27416315784581813
Ni 4.694042531708536 0.6246002839232626 1.8459052916189906 0.6839571496557898 -0.6045535136154814 -0.49168542726914033
Ni 6.077224823843459 5.79042291017663 0.6254370409891549 0.27708753058146474 0.45492302293812625 -0.25476315605265154
Ni 8.418553398183871 7.078297200773521 0.8111376678584711 -0.35454329886678293 0.24915300895472575 -0.42287010826763954
Ni 9.222617496747612 5.315373518898941 6.167374195208049 -0.8711105769792674 -1.46039842268493 -0.799864537049087
Ni 7.276494314315427 6.258915418216669 2.980519523822484 0.32057465523082207 -0.5324826637911605 -1.502894901286244
P 8.789204771273289 1.971134445549295 3.714483499013575 -1.5112617851937005 -0.15692548167687168 0.5125679271451044
P 1.8495623315168084 3.3982944942948867 1.7772564616491493 -2.4908037529041938 0.7133471727821327 -1.2774963144386386
P 4.791636754738076 1.4536162038453346 8.13107567744415 -1.1271114620937621 -0.4462002983531477 0.9586610104964266
P 8.714811123939583 1.8071666401782642 12.522318231976872 -1.2505370122409754 1.4315005087036572 -0.0544456805433901
P 6.486348732191992 7.881583984030151 1.549653052794858 -0.08479472514889268 0.9882479801249239 0.18744087665690945
P 1.6901303895849316 3.637716753771683 6.215089466713037 0.368611604034391 0.05949686981405238 0.35987448127170923
P 6.766008489919348 4.406271260129306 6.474440261687019 1.9083013055514813 -0.9463888779972928 -1.047314190159461
P 2.556571755323007 8.735332248047369 10.726310181654364 0.020646472605757988 0.05185709388060747 -0.3058736015752216
