# total energy = -340862.79506334057 ev
CRYSTAL
PRIMVEC
9.29892319935957 0.00000000000000 0.00000000000000

0.00000000000000 9.29892319935957 0.00000000000000

0.00000000000000 0.00000000000000 13.60991405182637

PRIMCOORD
 96 1
Ni 3.01770512266759 6.194793787290804 7.303270055792063 -0.3495453314315593 0.7226797630369682 -0.10660847858987445
Ni 2.8240271523145157 4.825118208013589 4.8186033824888455 -1.0181861624452528 -0.10447523429695556 1.1850828964022235
Ni 4.726819291910154 4.381708358853035 9.576724709342466 -2.559820903503856 0.44562822789976153 1.4240211696074765
Ni 7.727963032534398 3.844686250832081 11.709425283478314 -0.10669486765609366 0.7732191665474167 -1.0097100066534417
Ni 1.0056971312476357 8.989017891065776 3.448534458764448 -2.1682125814639757 -0.7010426443831669 0.09439676701503098
Ni -0.0019090689126889898 3.199164308065608 3.2342054399880915 0.0481737314917493 0.7694650988216233 -0.049931594723120455
Ni 2.542306978038696 8.297894029410715 8.766975415576923 0.2847689583861225 1.0818952705684401 -1.0267847027475412
Ni 8.718251848203243 2.4263122112735602 10.043163341563293 -2.0281185695221455 1.463521541694944 0.6333439554846124
Ni 5.6426609292303 5.89814884143746 8.189384895742096 0.06091431898686928 0.2726950579407239 -1.7317670485047465
Ni 4.8437439509854165 6.037428111648155 13.462994814391077 0.029448130057787996 -0.9492098923858556 2.2097996608771426
Ni 6.364192269426485 5.968532390390908 11.353757283024333 -1.4457487910925553 -0.260080711610823 -0.42055637253279826
Ni 5.956239214051041 4.554807812383018 3.419001078994841 2.5719508539981706 -2.232678365247529 0.7558755330626465
Ni 1.7559807416729214 7.8199665776982785 1.5272225839203375 0.18951549979775104 -0.06704125782021357 0.1634314011161895
Ni 4.052163823067429 2.585695753229183 8.327783557935101 0.9265515315563914 -1.3166254192296163 1.1626111976622688
Ni 3.6849121541062058 9.167994263995757 10.852178020403837 -1.2494856881583256 1.6281629039588346 -0.4761065989942768
Ni 7.008523950035997 4.67607506854657 6.840287833287974 1.038555213019908 -0.7449779123135363 -1.2773168514379807
Ni 7.780771616826462 5.429734188057614 -0.014806675254138717 0.6630903335091097 -0.5069356685599915 -0.31033420844973647
Ni 8.291524267086352 0.4591055014631736 5.244498709988174 -0.10345939143793151 -1.5893135351918048 -2.4762991315301157
Ni 5.740587888409684 3.941748410163049 12.524863658397209 -1.8835377254535561 -1.05419857598412 1.1921912253122307
Ni 4.711652748331996 7.909468712547921 12.380435574465345 0.055848988648819944 0.8405686996366685 -0.8561614118686031
Ni 9.362248767581109 7.575944237674975 13.551990157931701 -0.6825191316576826 -0.34800626907921356 -0.4950720843531861
Ni 7.02004531575846 2.0172432851259647 4.090826885537854 -0.959369863637993 1.281153965795884 -0.18626151163682758
Ni 0.6138340025143044 4.597285293109581 0.9805751605972677 -1.2605344897733195 -0.5951502180237105 1.1207220136276506
Ni 2.0717442734224587 1.7927672814615119 12.313637690259744 0.08011017518902977 1.0095655106557775 -0.810875800557926
P 6.759489490461111 4.317741066839457 1.4692038130146365 2.6863016955376255 -0.5801421746506525 -0.7985571310915731
P 8.118601493095293 -0.07100006755506208 12.752230697253845 -0.8893309566420361 -0.8143714724160105 0.12242050592146657
P 1.238718845242148 5.239673498790929 8.843273079622774 -1.0584110714035708 0.25168837378206976 0.01441463276343324
P 3.8547662834738485 7.227913442764059 1.9409781673109685 0.1334615942269766 1.3394992385039965 -0.9929289305403609
P 0.3972518546705123 8.408551214315729 8.489184036311388 -1.0791112800653995 0.09961610643244136 -1.4438631440340683
P 2.170108281987603 4.048035101210468 2.6879848372353696 -0.2325110295226705 -0.17343427796517227 0.7922036780697196
P 4.200518842224954 5.641238193995807 11.449612442136758 -0.5455461818433379 0.9398017116980781 -1.1615524173804512
P 1.4482700773290764 6.511701086581796 5.5194464785693444 2.335874475721745 -0.39149442216983543 -2.299907827819149
Ni 1.02010116313149 6.023628509765883 3.3111289215586575 3.9190677569484245 -0.15037096838780556 0.33418376137382444
Ni 2.73207010176614 6.348923437694213 9.925233468900785 1.5950905468848982 -1.750051191525915 0.6010588701986616
Ni 9.046773502447712 3.6729258422286795 8.035156676753813 -0.2786993551532749 0.5320291211935096 0.012630030059184701
Ni 0.6768230478176298 3.7683606900169266 5.667875889111681 -0.1644608708219684 0.6031779734241934 -0.042577725461210546
Ni 8.424954514666354 1.0340309499371796 2.4884234382361266 1.312263542716495 0.4702118307763966 1.4043584010712264
Ni 6.040971001349736 1.9957348759927471 1.4676388042566941 -0.7079691962996711 1.0787994052519356 1.3390598369737325
Ni 4.328090768251162 0.576782443417328 5.2180813993498 0.1257122892988609 0.6691843622219894 -0.2663295207340123
Ni 1.176025505693443 1.7120247321732582 1.427516740751681 -0.4297274975091051 -0.2801738828162723 -0.05596931627676813
Ni 3.252893485744697 2.7012069759930535 5.9899134042776385 0.27072250759538535 1.3161487367035138 -2.4079746361221046
Ni 7.08934089070906 8.29135688647053 10.970448233651851 -0.3243683179452994 0.11665737818544424 0.7909530934920701
Ni 4.979164168109088 8.879904327395574 1.0226937028921217 -1.635255549139558 -0.4684552530966061 -0.1790706503153432
Ni 6.3935210728878635 2.7008443179921042 8.314023941422164 1.3067865787623238 -0.7421615259106639 -0.7533723070248187
Ni 7.856985590564401 6.394292883505268 9.325186049776411 -0.3006213520373468 -0.3797259687799976 -0.7939206607608262
Ni 2.2940815247736217 3.8156271161406385 7.778869057159944 -2.754945007737636 -0.18730615085125807 -0.05583253358858772
Ni 5.751049176898604 9.40316402922666 3.179888570369003 0.47688230081803684 -0.07526595972285102 0.9107258773780443
Ni 8.396165048744848 5.625736889186003 2.6097688053537285 -3.8016485608962918 -0.16545254531127634 -0.964532638785855
Ni 8.790086029160488 1.07870297651564 7.219405858018715 0.06039367059670888 1.582209834267488 0.9718839369446036
Ni 7.233697372933044 7.144427711160933 6.755225934219183 0.25186449434861785 0.7590323335240734 -0.14597566753358732
Ni 4.753330521671851 0.433803131704641 8.59381644893909 0.6209257843259176 -1.1887981404702819 0.9005026569881396
Ni 5.65674879772871 2.066025435715183 10.506431970898904 -0.3692206983732996 -0.09170276512263562 0.7415447182622713
Ni 7.881730024936858 0.34979852019246466 9.232720348134396 -1.7357358033445072 -0.669651274556079 -0.6060360116982789
Ni 2.5981377123386706 3.862400699339984 10.296267009887291 -1.2445440278823339 -0.3601552457369217 1.0669916139837303
Ni 3.254083747901658 2.798938657787312 1.1425986668213384 -1.3918456133161963 -2.467486418334492 -0.00792362572245087
Ni 6.309058954359105 0.306472977679067 6.744556349852796 0.40415993345264584 0.16312569695031262 -0.09334338604985215
P 6.350122998774276 8.069828641429176 8.540547567953515 0.895581051316806 0.7486448196421622 -0.08094835481960898
P 1.1721292569140143 4.046640262745279 12.68879530364166 0.911221071846908 -0.2921832485723226 -1.2524748526936365
P 8.142295149157308 4.775694431730384 4.698523598805325 -0.3918528339505187 0.1821732005000669 0.11592255690194875
P 2.7641606853885943 1.7371969170083732 9.930378563052713 0.2312553027386985 -0.7368696813841052 -0.29338806751370117
P 4.556044569155486 2.0160251261996995 12.75345536542628 -0.7949005081755923 -0.018349191931149044 0.33680602948801996
P 6.666351476678876 4.424102149271686 9.613335499484442 4.438413112026678 -0.39111441312259737 0.38787353758779647
P 7.062225230945781 2.5346911600187636 6.162052279051261 0.51382673925287 -0.9531025425720423 0.9308329325405648
P 4.760230322612987 2.015643870352548 3.315143266661472 -0.6964187724579103 0.29788621249437086 0.33884465718460355
Ni 4.761104421384505 7.31873602469408 9.69846528069187 -0.19438619762649104 0.956268856115166 1.6666209508247167
Ni 3.202242251612125 9.29753756171943 3.04622491981916 1.633037972662949 -0.46871570584684435 -1.795962866456365
Ni 8.269894971952818 2.725895616826903 0.6457804528286885 0.07101001265997449 0.6564957110107275 0.6149055462737668
Ni 3.3821950114677386 4.333800307035336 12.826024161308526 -1.0301551618816709 -2.820052538870246 -0.5417013541759509
Ni 1.9108357080782294 6.157588795962655 12.263308198866476 -0.12400764790292837 1.211446988218049 0.2593232646195083
Ni 5.748464076276453 6.0493307332177695 5.094027255932801 -0.06101664889268846 0.2617784110282201 0.9423481322690158
Ni 3.854366429780494 7.622234276873054 4.556149646986531 -0.02478620580574441 -0.5392168971912004 0.6352200894614027
Ni 6.6690109686858365 1.4856424492730465 12.91857076358152 -0.13784738199949806 0.05194939648409763 -1.2502030259403243
Ni 1.9895882878228133 1.7549485612086815 3.7322334438762153 -0.10943977739108247 2.2590445139458835 1.252495935739559
Ni 0.29045930220638455 4.87966569092559 10.765114993083655 0.7271066884600703 -0.7702305162327381 -0.25791430008712357
Ni 4.1212455227867 5.703726957236284 3.2953412099173356 -0.9421303598312549 0.05975655123334225 -1.163587959753241
Ni 2.8779888030711365 0.9915999638261233 7.233056677131367 -1.6004428123357468 -2.0452750266967743 0.5862220622961452
Ni 4.780408985742724 4.204740553312927 1.4332597556590203 -0.5348948727770788 1.5220912717090365 -0.15617446244346006
Ni 2.621654688861761 5.483798126968348 1.033362357366199 1.4781279787542092 1.4749513807984402 1.273901655108845
Ni 7.121896420486577 -0.06536027069414696 1.2033011069340633 1.7399601258385002 -0.46399541755303964 -0.9671024563955604
Ni 0.7162486219823583 7.16872579722453 10.167993945059248 -1.1973979663241507 0.8920951496507346 0.9608274220201258
Ni 2.886832078940436 0.2749152223503158 0.3087233170695723 0.6237786803936805 0.4395480831439526 0.7247158196303907
Ni 9.432083680071585 0.2090277027163273 11.039041739908308 0.46937313692518523 -0.3548862840284985 2.2817658668027994
Ni 6.634670045672879 7.359111948799758 0.15569186948442162 0.7817331175556989 0.2513027083078769 -1.0474802834236798
Ni 0.2403250881982432 6.31735359376543 7.104660866518389 -1.0751145002011808 -0.3205576859499576 2.289316425456548
Ni 0.7865717279356486 1.1028708776558187 9.13448466470805 4.26222184014166 0.22072123597659407 -1.8306406203442083
Ni 6.200084874535421 7.073374639744194 2.717191824804122 0.1656186385754954 -0.1618771692551922 -0.16864122745190313
Ni 8.867183400593047 7.168232954300163 4.785123539755063 -1.7392193910177336 0.5702336572876889 -0.39106967592759107
Ni 1.456071873811035 8.715852726043117 5.982755093274288 -0.078165135647517 -0.46425741296517464 0.09057765037925691
P 3.6876646353441793 8.280393456134142 6.60563973764305 -0.5983126749120922 0.6317455006492411 1.2462419844100474
P 8.346341418768288 6.440648015165056 11.585398106938309 1.4613386751110122 0.9083602053593454 1.0077037748566904
P 8.61267187531152 7.881320872320402 2.2075550453163832 0.8721436462294722 -0.2982659644312928 0.3314223965786034
P 1.9952048373759752 8.577094195526092 12.338870318095017 -0.4986662294623476 -0.8634628306260226 -0.7233127686352769
P 4.221497212741401 4.356601266479629 7.208205305143246 1.824989335595702 1.3838831639360103 -1.7162560973533412
P 6.4229428655802545 8.104913478290236 4.880542579374039 0.3434495029464666 0.6531064828235204 -0.1273318271801549
P 9.02008559314709 2.328292262863163 12.212244092548207 1.007333536001465 -1.9473319370913817 0.10274976696541659
P 1.1007414242656297 1.6907394971944707 5.850452805066469 0.6883840750788919 -0.527541260625485 -0.25340329959064745
