# total energy = -381160.53099878604 ev
CRYSTAL
PRIMVEC
9.26729707638213 0.00000000000000 0.00000000000000
0.00000000000000 9.26729707638213 0.00000000000000
0.00000000000000 0.00000000000000 13.56362602402933
PRIMCOORD
 96 1
Ni 0.11874002076453984 3.442003783110702 11.894703364102572 -0.2854474725103858 0.7056449190418685 -0.5482165295866495
Ni 9.124052218373997 7.341135516728121 6.366603263702893 -2.5783210191905725 1.1610685357654973 -1.41282710066387
Ni 6.70591792312761 5.514152818677446 13.123689639522292 0.46987321649005526 0.21887544101710693 0.8989923909912002
Ni 0.727753405861537 5.578180572444165 7.436474686278832 0.577883974744095 -2.4523927572261637 -0.38428479179527364
Ni 0.8446742562592501 3.2075411734279737 5.672267730193764 1.6743167768070777 3.31048583889984 -0.5268257226156992
Ni 2.2820811105526273 3.5227682749441 7.304527840808409 -0.6704693995820001 -0.33734364715904486 2.401458689380458
Ni 6.541182454759223 7.859603704922188 7.987537810867211 -1.6003723641091276 1.898861243184504 -0.6110877151895734
Ni 0.8577689466735463 5.888227255034889 10.837540185663311 -0.9919519113390721 -1.0796812936362568 -1.9158071270102233
Ni 8.675607724992684 3.9229486864587075 3.6427148977553077 -1.7003114010986267 -1.232233585946097 -1.9268145338643203
Ni 6.9740208202865555 0.87349647611594 0.8347397140624168 -1.9856773696387997 -0.28612752929654595 0.7884287844083196
Ni 3.2658232031629417 5.599977254577515 3.1666186441063537 -1.668692488641765 -0.02581593262183941 2.6277347937370097
Ni 1.3916328950836576 1.7138846075934404 0.16380503176711572 1.307922749249296 1.019220003026406 0.6028216185260392
Ni 0.9213787453534387 5.1793346516724155 13.445703182503658 -0.06683428401573006 0.3149534523893027 -0.8666263159556687
Ni 8.258505229474888 1.6966937719823156 2.5718398269331773 0.12168517041733883 0.49420510836720044 -0.5592424483835079
Ni 6.41215388105912 0.4750546094857785 6.0747278967274205 0.32722044268211387 -1.5786262306812877 -0.4679276627279102
Ni 1.7009845304124775 8.099673029184284 7.201443991300707 1.4847732519848689 -0.5316290575416135 0.8155762913573888
Ni 8.85968404183569 4.1509612575509545 9.559086933248949 -0.2644775551269381 1.4488629112415048 -0.5963956603950374
Ni 4.312323429874893 3.357875262529682 8.165356848893703 1.0789148477838773 0.5142481430610046 -0.6718462253248687
Ni 3.2748773521613614 8.070879537947754 2.7385501562550574 0.7517787372854537 2.0593214774875115 2.137535721205409
Ni 0.04468968548114702 7.293056780797923 8.825254180669948 3.327998136751991 0.13309572624712562 0.4680898993373874
Ni 8.811586771311841 1.7911738631173122 4.976250182310824 -4.578278038676838 -1.9295648429159482 -1.7385444764378963
Ni 8.646656689710122 9.153438816607354 7.746213694614954 -1.1113930229172408 0.6227836634702629 -1.8108073876683652
Ni 6.567705458273531 3.3263201168391805 0.17278874930966262 -1.6447218367587801 -1.4220715020802737 0.43926706156842416
Ni 2.5866971572036657 8.316935535959063 11.17692898346263 -0.06841088447423056 -0.0785698272851034 -1.1872608778901488
P 8.214355827398663 4.236266724828801 6.657149700313602 -0.09260342256003407 -0.1774562546403718 -0.005741530469467532
Ni 3.695325341833128 8.306268877313022 8.377274905589271 1.3451446097152315 1.1385166186069102 1.2008748691291575
P 1.4948427798281851 0.008022698861752477 8.971226153155937 0.6662016254445816 0.6424029803630872 1.0089021660401656
Ni 3.153855722918407 8.722194426133992 5.335902851348572 0.44006847442379693 -1.4177466494526745 -1.3602652674067541
P 7.43889623093931 2.7129177399656714 10.479067243511436 0.9764658998883312 -0.25447313561605855 1.5693278360984972
P 2.3747262769161934 1.5035725734377159 4.783144738170828 1.6976796199027342 0.2303135076507195 0.09226635093558948
P 1.8049450661998627 4.345305739276507 9.364787861277842 0.8802140819424326 0.8374679492241578 -0.49486253944554137
Ni 4.322841811771727 4.817993481153078 9.953110152752759 -0.5710610382849907 1.311323804511045 -0.6984705127806164
Ni 4.588822497957655 1.296022193735962 4.254570562788656 -0.6376014452093858 -1.315860516039134 -1.3870029405119146
Ni 3.227299050259736 4.231586739931971 0.12044705683977931 -1.1071296196551965 -0.08828756879349957 1.8428898700252068
Ni 0.8659918191467275 0.5310550307423314 5.995814084070055 0.6289694805660007 -1.6841831280781963 -0.4618102369762627
Ni 4.727173972264115 5.980761213836551 1.534289955495201 1.8547498546875862 -0.09181357966888705 -1.800567969328544
Ni 9.161946195093075 2.112554449725507 7.416875280222785 -1.280192630323879 1.150850971802547 0.9762424710236155
Ni 2.272674804274842 8.611728247975172 0.008524986349689389 0.8020504889568123 0.5127041956126526 0.29994643745750926
Ni 3.237659888110538 2.356719919184433 1.966739094555866 -0.5382699598968987 -1.4922957856141588 0.6582427756088213
Ni 6.791269726889583 5.016934542104031 10.357781496308958 -0.39969212748927935 0.675331612770308 1.5887599766811802
Ni 0.9189590541523256 7.433595337155179 3.3549764520826955 -0.01177153871363134 0.9028223062602515 0.7837943709601017
Ni 4.459719785882948 0.30773263857342187 1.4362521491089317 -0.5251802165924763 0.8417136118743892 0.8713494324629509
Ni 6.517365501917935 0.2652170609275147 3.0706011084280225 -0.5321684749848513 -1.2415432933827972 0.7596118601766272
Ni 6.374250637043217 1.438265932709092 12.18169579238074 -0.5105256999040949 0.6709882481999476 -1.1774045539213593
Ni 1.3971469366947733 1.285772563447065 11.375283424524538 0.26708568217374645 -1.866387438926515 2.197208197365377
Ni 4.801506960100683 1.1188870822151846 8.04009635808281 1.6161131718831523 -0.49514484657265045 -0.39046983756006304
Ni 9.260652173580457 5.567773398109236 4.780771383453842 -1.1550940633496172 0.2721049897652088 1.0020710020509453
Ni 2.8880233134816855 0.9841405863738065 6.991913190267363 -0.8391473938091097 1.3693592592882222 0.9878332611850085
Ni 8.777093892527686 0.35301728451075987 9.868324580826817 -0.23326359141797895 1.2026777266658513 1.7460958064225927
Ni 5.856301417471372 8.003904783790558 0.911484979262637 1.2079451457123775 -1.8599254853512548 0.15981257341667962
Ni 0.10280212368420959 7.966539042990528 11.460178350553019 2.007627905767962 1.7383896960275866 1.2131572860409365
Ni 4.665963476732321 8.814709850342002 12.499057152355757 0.7285009977044357 2.8485876701954616 -0.537776565200248
Ni 7.633500196975974 5.98405110420957 8.033802936808677 0.752911051117684 -2.3626890248114276 -0.5709260553690232
Ni 1.050605639205606 2.328019100916156 3.3904183020617715 1.7872023466549156 0.953475609640745 -1.5510385508710063
Ni 2.736197189591087 6.654132268467251 1.335507365319962 -4.8861879539557975 -1.0350088904295467 -2.7386239019801097
Ni 6.030044698354051 9.254665499831246 10.104968712182245 -0.8388437465257618 -0.6945536942247136 0.7364264231990995
P 5.173385047110505 7.156271479654956 9.632819400251233 -0.730215152182065 -0.32202398608283894 -2.126353993556977
Ni 2.5205657270575803 5.8070550021411735 12.128729484104825 3.7658639470975146 1.6489528441209926 0.21446599909550162
P 3.5972402722330488 1.3508289871614028 11.623294822166006 0.28949721709972726 0.06801673435960542 -0.3727603360954419
Ni 6.917212290746828 1.5614653767060165 8.684450579623485 2.214223500976451 -3.38205866604182 -0.9499431710074543
P 8.237301654338363 8.815497570572163 4.421524622017045 -0.17387419371606833 -0.28937149015514035 -0.08139058456335015
P 1.6232597119378123 6.6629732696386865 5.333854778750159 2.6043359551970955 0.8003962411828409 0.03717223817492308
P 0.24635996534718207 9.082154769426344 13.427039773426978 -1.5573089572607501 0.28207212828024975 0.3797102850507138
Ni 8.477269038335383 1.7744556596442829 13.087393344775911 0.22315092846400922 -0.6687120505712612 -0.5501787955193428
Ni 3.720495320010926 6.617711791943412 6.688739135002359 -1.5971091199768237 0.1613506073277608 -0.07029036088513056
Ni 0.448990337164329 5.646702965171204 2.0032392698324033 -0.12537701744662924 -0.7316984215958109 1.6645165028872042
Ni 2.531325058671875 6.438083777576602 8.785092496417693 -0.41299758634893385 -1.6250876074676206 1.6267688518247856
Ni 6.79920253297213 3.643094856925149 8.557006713680526 -0.20822490328179624 3.2958518910367496 -0.8716044858965506
Ni 4.658216016586282 4.045471617787377 12.023313055986169 2.480603158222108 -0.16007096928438883 0.511985315168757
Ni 8.302070791851115 7.226341510951838 0.8064364628279496 0.5682683060312019 -0.07383154126916962 0.08854879287468621
Ni 4.567813536054464 3.7192349676426706 3.2987415682164603 -0.6822190839187606 0.7730286478031655 2.1585010106031666
Ni 6.696511616849825 2.3438661784875974 4.412220256004338 -0.7659100344805132 1.0971887063924006 -1.281715751836625
Ni 2.4939129813877177 3.593134859739395 11.329764315977515 -0.40186805209467563 -0.8262471408076738 -0.16493446802427725
Ni 6.343334934833669 4.693200062102184 5.4975680642787035 0.0851906750357307 -0.3677646826530634 -0.4440750244800287
Ni 1.1211019661564563 0.30744349891246925 2.1748464387968265 0.1844537690041275 -0.7230214626471032 -0.6855252654738581
Ni 3.018293704956393 1.7978277822379525 9.489817596397783 1.1964834249296814 -1.1858979361043511 -0.07824304007330396
Ni 4.304427692979649 2.0739283565572215 13.54619682254866 0.5410601210475262 -0.09424198660472156 -1.4122948823094839
Ni 6.955375019073842 6.924551989832547 5.61154284101562 2.797109299810512 0.20783769514570657 0.28362430325871796
Ni 7.341904702364629 8.497026915167144 12.609804129608387 -0.12146996908273917 0.23229068598174832 -0.5084276797244857
Ni 5.347415614194772 5.5728055402854295 7.813095775803896 0.13568945511623084 -0.17083669244132516 0.43211219569119774
Ni 7.603057126904521 6.924598326316675 3.2374337660679977 1.5374898656522942 0.49822991325587734 -0.5534487245198663
Ni 5.514449372175859 6.244489946893906 3.745079605029358 -1.2336196676603464 0.5479082543176113 0.8090469748793034
Ni 2.856060406730866 4.82676034394991 5.531164795459841 -0.48204070509052466 0.6386167738477776 -1.2309714314042217
Ni 5.33235625685349 2.404817189708281 10.159020220916416 -1.5074514103086747 0.33570791132783473 1.018642276146065
Ni 5.693919842496638 6.898140193880145 11.574085476023107 -0.562328029287367 -0.18279309347225295 0.9281438157441757
Ni 6.376391382609885 2.684837830584697 6.628218126354373 -0.3671890126552515 -0.33108738183668784 -0.062482949025569806
Ni 8.588078106476742 3.996290073534957 0.7347696762880507 -0.07354949125237654 -1.0029246083004921 1.0238335905390175
Ni 4.006428496261949 2.8594244354784877 5.720879335691422 0.47351929788307484 0.11375974492267506 0.9023263404604396
P 5.1098206581850585 7.483675809199664 5.484913570463613 -2.1045962901649107 2.356131426198568 -0.7426441219740371
Ni 0.9110948260662876 2.3649585460622173 9.610941165905816 -1.1761352002906325 0.023149441533269807 -1.9086070097173577
P 5.989611482304813 2.6959956559624834 2.3308817689055235 1.5375731693947197 -2.323480730043082 -1.6229777602134694
Ni 7.653526825415673 7.495148722669514 10.06250132447983 -3.349302554656722 -0.518455753384449 1.119921629213542
P 3.917249298911084 7.100825242748562 13.238505886810955 0.4453052973427041 -1.6529357400281404 -0.22184120851365022
P 8.193439538463727 6.2351485116938985 11.753559653262617 -0.8672117561454937 -0.9563403327830498 0.8186965821539255
P 2.1178924126969396 4.081586273515978 2.1322159466702844 -1.0684764260593729 0.9592716474972317 -0.18831170929763696
Ni 6.406704710525783 4.803805249713383 2.206720379498122 3.0814517121821767 -0.6201092019618933 -0.36423712911577916
