# total energy = -340858.89930679323 ev
CRYSTAL
PRIMVEC
9.36284310498363 0.00000000000000 0.00000000000000
0.00000000000000 9.36284310498363 0.00000000000000
0.00000000000000 0.00000000000000 13.70346729482412
PRIMCOORD
 96 1
Ni 5.25638429515414 1.7561416370606568 2.57658041212465 0.30008142037347674 -2.32691906630067 -2.3892950574347305
Ni 6.508355565288973 2.2428315762073527 5.726007644179895 1.0518519301288143 0.17357491730809463 1.9852536518378197
Ni 2.06100516620699 0.7093383443891579 0.5082029433824236 -2.307986491062225 -0.36474492199013314 -1.4322633550116108
Ni 4.830337489765031 0.28455739536627245 13.61429832670756 0.8969913014007713 -0.5288874902407343 -1.0700319434719507
Ni 1.5308529101075818 7.65602476501165 4.876365225684793 -2.122793272788912 0.15639532020501454 0.9871267220362872
Ni -0.45007092410280203 8.619189781651572 0.9142422896814304 0.6589457152131168 -0.3617696414118931 0.35319141282457883
Ni 4.784927701479669 6.272140400618573 12.5221189519853 -2.1943018223518598 1.0342519576588638 1.1877478448288963
Ni 4.23340007493583 4.113771030621997 12.153687336945225 -2.0794377886214126 -1.004146139412419 -1.0183031476390914
Ni 2.517050520393275 5.802153773286536 9.515741915871896 0.1243694021177213 -0.8901907335391701 1.1581565043250246
Ni 4.962269309709167 3.805986294476688 9.46036631755541 -0.963848725344953 0.4750293067696981 -0.5204295892813682
Ni 1.5033823289056731 2.054160928013877 9.6576142661712 0.08975206915416802 -0.6058511493809824 -3.6167862435998357
Ni 5.990918049909466 7.1029709950677065 0.8904990562560997 -0.9556826445943929 1.0744845799266658 -2.306914598154285
Ni 7.347041584969325 0.5238594893557812 7.236883056294801 0.9269305121623649 -0.5629358380746949 0.09540926743994536
Ni 4.860289224347481 6.748887000557217 5.656216076580322 1.238633318824854 0.10981978643832056 1.7713383830394656
Ni 7.0191080108054384 5.592426091308775 2.024015382582457 1.7213900761457965 -2.586893848461248 0.11619200851325151
Ni 4.232604233285468 3.822895588836144 2.3345228334562993 -0.2399417747691029 1.523499722020789 0.5201321126456074
Ni 3.2765737029699684 5.041329155540426 0.5603324440497262 1.1722561769512003 0.9634293784193472 -0.8979459520045566
Ni 1.9089057825583866 7.492362270325434 2.3539263891764204 -0.3107579262507164 -0.7949334182960567 -1.0066447374645566
Ni 1.608405338224626 2.760840225006531 4.3519055780962095 0.4494625140441872 -0.42591532285186645 -0.4393516508624304
Ni 8.902940099955947 -0.2242691133563171 9.057498166162024 1.9817777774740772 6.868215128436519 -0.09368097189492898
Ni 4.071806768540554 7.189605380841823 8.369104501441804 0.9450891853492626 1.263884894302791 -0.39226035380158253
Ni 0.5135921957818164 1.073084792819337 11.250080300565518 -1.8715615269282861 -1.0401459545457958 1.590200051561816
Ni 5.8263286337716504 1.3455996995891901 8.95572312706084 -1.0988452681592171 -1.2096117347815232 0.17522350865511113
Ni 1.470911989570902 3.1581431025531517 13.259790195411641 1.6450941324965345 0.9564521757705656 -1.0867196885402768
P 0.7579801860592859 5.19504831101859 5.229311634777412 -0.06749891418292246 -1.0109338517582138 0.32766807174249374
P 0.3067173720495298 5.583756098741301 8.484063359694455 -0.6409644481443478 -0.6220100185290319 0.5094972586395806
P 2.9204111573255926 1.0547804348610101 7.862186140111495 1.0306817238091024 -0.5382424490930731 1.8406807781890298
P 6.402340094617804 7.457036263892304 12.207569561811914 0.045068610203864316 -0.3926689020939108 -0.582296501989494
P 6.740273185047416 9.18761733971192 1.4139372176793363 0.7058547210598295 -0.11243254147081927 -0.6015409520414028
P 3.8346085053608845 7.060135988592338 1.3909701639341825 -0.020631560207422534 0.31530955017714085 -0.19144382716871544
P -0.5048866244111502 1.8105023032018566 8.201346699251253 1.299601116757478 0.2261534627357589 -0.39396062432214085
P 1.7888928616837911 3.763104473786592 10.673040799563955 0.3947777209067975 2.177667556229288 1.6603358891469533
Ni 5.031666701620736 8.676275035089894 10.77803759292266 0.2899587301171781 0.764288182606374 -0.1751000957033694
Ni 8.933668950502867 1.5123706581332916 4.968068654629569 -0.5524768475249001 0.1478003794471519 0.5456060885469958
Ni 0.27136046823468074 8.86732384539151 6.749656626247332 -0.3348370786871072 0.21284980364831727 -0.005743587351996559
Ni 1.0209243947703144 7.456568121745033 8.57658884624984 2.5522883425722367 0.8760828333828783 -0.7297423263107045
Ni 5.469716671665894 6.357398448479712 10.260073885769621 0.2152134187844874 0.042750246483332824 -0.5784701862648682
Ni 0.2959032884475515 5.617172085213561 10.681044157713712 0.46876584235848945 0.5585027420040058 -0.22812909840489098
Ni 7.45521987236089 2.7714015118489823 9.640621642509528 1.9602357896372433 0.48882327522999686 -2.0419963559455026
Ni 2.3849688949620127 8.997888690265611 9.536736218608446 0.598842065053001 0.5465815650863877 -0.8186431032081707
Ni 6.5207894207205115 8.76227274754372 5.049837170924944 1.3493385931919213 -2.4218873895484547 1.4460305839990322
Ni 2.5521705442816045 5.546829046164502 3.8896198890867923 -0.5731400323012066 -2.1288268805775012 0.061235963992346154
Ni 4.50337765126747 2.4500219277469 7.226537114840094 -2.2436816583365684 0.7189660616308069 0.12291724305222702
Ni 1.1988371364194843 5.828004582658884 13.334775331993047 -0.6058202961430469 -0.3247519265369633 -0.08726504106625615
Ni 2.581298348684855 6.049098755972403 6.964951454640449 -3.3269298433884766 1.6750734524674444 -2.171750933634537
Ni 8.828093533450135 4.308527526730006 12.375641955525433 -0.2355729562774459 -0.5865570770380608 0.6004569749486046
Ni 6.322578035565636 4.639110785447452 13.05828028068709 1.06415183054209 0.1561772906569375 1.1466850133503155
Ni 4.982802024288508 9.653559218891532 6.6640371726484995 -1.3306860110877405 -1.7340062222479105 0.24078921037106274
Ni 7.740758493667844 8.001438766954665 3.0494732659069514 2.107047322808565 1.5207553265064326 -2.0653807963077138
Ni 3.794526174711474 1.8782518347550299 10.26863807821181 0.5861534138417389 0.04933818411349567 0.41495419585467247
Ni 0.7338306052501233 0.1448291361014729 2.6887575697382102 1.228450207644265 0.3913257578024551 1.6086520876194166
Ni 3.6063143058223246 9.397017322186592 1.89003684517045 -0.005383890019732663 -0.8799878248642392 1.650142236443403
Ni 7.761675084807948 4.420310508655564 5.896163270448772 0.9271477703794935 -0.06811675027257946 -0.34079895269749694
Ni 7.022478634265794 1.649573758655707 0.4440880674606686 0.4479208805886802 0.81595810017684 -1.4759469119424904
Ni 4.172588410005225 2.734867698675892 4.404691414053988 -0.8606767832404532 -0.26083970126403466 1.1432307362531278
Ni 3.7347069711330856 2.3120229855741226 0.4788963086789151 0.20499405504932436 1.2537750595622987 0.11773467041002304
P 6.918111023953023 3.2727349373623396 1.8012246621272243 0.38891817680222696 1.0927928913175502 -0.5934183229342683
P 6.65880708857918 4.626611390115294 10.417073781415864 1.4795585405531486 0.5143445594295528 1.989836386112496
P 3.6748128648111327 4.755369206300927 7.91861693082793 1.8216175909099919 -2.19627822935194 0.9086679664077512
P 3.2909082155194307 7.979042846629184 6.14826624331328 -1.2515911645371025 2.3143093479564594 0.8881099397507415
P 8.62485430163356 8.185858684450913 10.761702240835758 0.32030623206078385 -1.0980320282293023 2.709629057409656
P 6.190149984945393 8.50440132714053 8.760352428455612 -0.8384331413509043 0.1581441845753212 0.14058149310120951
P 5.039924729098611 2.1962046183390824 12.368612333041998 -0.20335960476969495 -1.4453775237960655 -0.21976144316648605
P 9.073952426354332 2.0656304106220356 12.987679763457031 -1.6016789987356932 -0.16502445663492227 -0.3922451842929309
Ni 8.199331815449396 7.346901142325144 8.570517978884018 -4.334175961882458 -4.518016522782619 -1.38753387331472
Ni 0.3957046402558348 3.7504739986531987 7.555584867314488 0.2603221381976678 -1.1222718746132736 -1.212416294109854
Ni 8.64817714341064 6.87809423320423 5.928407965268558 -0.4603465079465427 -1.0381060412976315 0.06636557190942764
Ni 0.21032784021056328 2.3744356966483973 1.420652248639803 -0.08886838099763404 -0.26052345557519646 -0.7751102129225425
Ni 2.826754639342399 3.817877105017391 5.973725061408762 -0.723840873224605 0.8287066580917599 1.0841830381613522
Ni 8.130898796361206 6.415775774244504 13.472631958953055 -0.05931277882770431 0.24112782465740407 -0.3255525680613877
Ni 5.5698616398102745 8.245312737154432 2.8491149808646883 -2.5097288719434716 0.285557772836005 1.0605646274114637
Ni 7.687483917308314 8.92390350531078 12.764436817687535 0.40484024734912216 0.5563766967999386 0.1326907774992231
Ni 8.132556019562548 1.305142855221962 2.7205631472238556 -2.3255520107498144 -0.1490892734619045 0.6673413954759797
Ni 2.6569220311551396 7.675958257642483 13.193451644290345 2.4760700462384455 -0.14437438448473844 1.3275199546549332
Ni 3.589199028918068 7.471464404871221 4.054417160337996 1.0065418933381052 1.7813039788926097 -2.8943918730137703
Ni 1.4934109011687842 1.348352375415148 6.431489433559829 -0.06858263416540447 1.9211107986113238 -0.48822266553152044
Ni 2.7710831751888376 0.29572164929441 11.655237667059062 0.7084605341137927 -0.0028762931065305303 2.0587530065785513
Ni 1.6191632447689317 4.228915273164966 1.8994371394876672 -0.29446535973828 -0.23097171006000863 0.6048041961737068
Ni 9.256902377508146 6.365132156752642 3.4934246358606167 0.7946200008206961 -0.8955139455242963 -0.10681159573961603
Ni 7.0370097665171105 2.816193352499947 11.746406477671654 -0.2919557059425488 0.8623073768653408 3.0606792555215163
Ni 6.38626409328049 3.2756748700472063 3.773085264366426 1.1568138742542011 2.7685985939653284 0.86050631910086
Ni 9.00558494716676 3.5764655625122757 3.513555684477598 -1.2472215747144972 1.1778195299715908 0.10574407370705013
Ni 6.86326348997866 6.3718359523015735 4.180420428129081 -1.1739998991151845 -1.9098889617535753 2.1398875092670373
Ni 6.93030144546798 5.233894746399203 8.199921674554957 0.3553969051163299 -0.6954209273210152 0.7320519482804876
Ni 0.8353256953472359 8.333510717700436 12.259135419333901 -1.90815063890623 -0.39724520861068363 0.020858588616564075
Ni 7.097531183316407 0.7844929484278762 10.95357872645375 0.22274829370895186 -1.461358215495038 -1.5697009031671998
Ni 2.749174122696518 0.41765488925711436 4.445911330121269 0.5522503333363908 0.40663153492159004 -0.07716009142177034
Ni 5.295361810335988 4.443858058663334 6.211904550529113 0.036000329354008966 0.5556894409249269 -0.39561050122073804
P 0.005027846661698999 5.676654226445914 1.441001451497413 -0.2965466677473409 0.266005047515058 0.13893264464387683
P 8.668213627313873 8.761018126589033 4.756404736730693 1.8878036998187617 0.43713201750329234 -0.026342237438954634
P 3.3053925335560197 7.39593435083039 11.057286256338871 -0.7816385009593636 -0.24718457237444527 -0.3413712802611992
P 6.533326267424449 6.764597851019658 6.792877381852052 2.174510241547229 -0.19634794933855215 0.3788299393282895
P 4.9115695151596315 5.38090074348549 4.111396613651035 -0.6384195702353069 -2.29725984867334 -2.0334718634142592
P 2.190699266687166 1.9774417929189763 2.4263629599080785 0.7341574246592646 -0.35038839615814493 -0.30846321667926874
P 5.417668627732216 0.9416866549230916 4.546919552385218 -2.67247558828781 1.1116984699728016 -1.4419448439654328
P 6.369626321366451 3.180904173753506 7.80953700166072 1.253747548758473 -0.21111610878666223 -1.1047603480920716
