# total energy = -340855.665697911 ev
CRYSTAL
PRIMVEC
9.44082420122125 0.00000000000000 0.00000000000000
0.00000000000000 9.44082420122125 0.00000000000000
0.00000000000000 0.00000000000000 13.81760051161687
PRIMCOORD
 96 1
Ni 2.7275579276231237 8.321491660235656 7.534184520457627 1.5976403098899452 -2.848803899971326 -1.0790470024863674
Ni 0.38901198872694054 1.738310616554797 4.720866146833733 1.3151439495880834 -0.32749452227910697 -3.165370719594336
Ni 7.660945521383182 6.219529940697189 12.867916868177929 0.14959783766720688 0.5740124076038308 -0.398059734092179
Ni 4.939080410684151 9.131807032394626 7.958882824231123 0.7819969127400468 4.9041460810961155 -2.495360004816309
Ni 7.248305982215231 0.9218284981025963 11.072056876157312 -1.1409864203036415 -1.3665544428495755 2.2096022001543556
Ni 2.8424244342822353 2.8443598032199455 9.549329365780057 -1.4913897288601219 1.7661655805892742 -1.0820001715774203
Ni 3.996027051870532 8.015741131373817 13.239913659653967 -0.37069522603629707 0.38731766508432647 -1.6625915179503497
Ni 0.8231378994331059 4.094579814508361 12.823092779498156 0.4367322109617124 -0.01493245294011622 2.1642697947661436
Ni 6.443456847202281 3.642562598076077 4.767127128939454 0.38479181333867923 0.15533602570256475 0.8457299321226338
Ni 9.334775309427933 1.831689807593284 12.04856096287383 -2.9684645837594683 0.42399599434196655 1.7257264987376215
Ni 1.309385655837824 5.0716201400329854 1.37204912571124 1.1531209987836464 0.6970265812452383 -0.7913976372286564
Ni 3.9009673941446676 1.6970825377695302 1.4128769135552435 0.4478494039207965 -0.46804207681858745 -1.0178272364439374
Ni 7.771403163193948 1.1994944634722402 13.809268046408771 1.4450918742348466 -1.5681500137403124 -1.2347213853649572
Ni 1.466905805719247 1.137402163456051 1.25596758499221 0.018291084999703982 2.517244720704542 -1.2996823636173747
Ni 4.834929239363093 4.419495216265571 8.71662602338262 0.7832133016456512 -0.306734149803304 1.6461647398528942
Ni 3.0108109726870937 5.9441411020971815 12.402691938848784 -1.0755073647642253 -0.6488266245012438 -0.27818410607975314
Ni 4.214978644082097 -0.15554324131773295 2.7425867754862487 -1.5483044397692949 2.117876809323901 -1.5407294556355142
Ni 1.6397861763892274 4.8942081738015375 3.6340016587945385 0.3620483489945765 0.10721063095024762 2.069713619355113
Ni 0.7111300743073535 7.260843396601959 11.28005333609903 0.09228537709898299 -0.09047120670837967 -0.17869038415778904
Ni 8.868172019782175 0.4579649356067097 6.303271938508288 -0.7361032355317259 -0.3595872890485936 1.9169726080732339
Ni 4.71611646823587 0.15565086671231781 10.474873772243056 2.186904244336208 -1.987053681161036 1.5181595407547983
Ni 6.200025198134706 8.551347404267002 13.086179280231187 1.8981953274657313 -0.33867316460374575 -1.8505111340158906
Ni 4.065672011155834 4.464688441167122 3.963398619745558 -0.09510947681133942 -0.5493521858529894 0.6311850001600807
Ni 8.62358859017606 8.053022945690973 1.0484459985020378 -0.7652806284266304 0.29604787373405145 -0.055971630269613284
P 0.9411057168045966 8.985285442573849 2.2562483871703014 -2.1261750447769514 -3.317906299733628 2.035101428597882
P 0.16270788271689457 6.256368036282284 13.763615053374213 0.696918080691832 0.23645510177208312 -0.3284095778942086
P 2.975077453520106 8.062426006481017 11.041658366681546 -0.10060366715669125 -0.3984682823845073 0.2824714206011974
P 9.493220660069822 5.989872453971656 9.043923345056827 0.3366209100604074 -0.3062207005019952 1.9804783419363634
P 7.577309260801849 1.6879249384057318 4.079633101814788 0.9278874767589955 1.0619993029754613 0.257591369530066
P 3.1691713559122054 3.847598415584303 11.425483566655423 -0.6661067517379302 0.6523773179669797 0.6283788981698534
P 7.144589088802148 6.1796707814044485 3.402694860101114 0.7627956572212476 0.88362850694062 0.6568471808128752
P 6.250561929469154 8.309143062330657 1.2548762257278232 -0.3521642571116451 1.8695128719293737 2.642822284197752
Ni 0.6836355623205589 0.39435832740706334 10.369584037537178 1.391334992228365 -2.2336281307553083 -0.16233559694884947
Ni 7.749538214609869 7.835440272971935 7.179887385978753 0.49464502411809647 0.19675521207929986 1.676322751493513
Ni 5.988956694035277 0.2689464202434539 4.156513508679899 0.8613555544750326 0.08711591708290158 0.9777853900307032
Ni 0.6498421325033246 8.133364358666155 8.667407231090634 -0.5699554639256378 -0.1785353466371635 0.23533512923502692
Ni 3.184654307413886 3.2029695061414833 13.477797880488382 -0.3668506554792263 -0.33135194835198417 -0.8859237307327
Ni 7.157343642142861 2.017022625233213 7.378087102766023 -0.35076454855064104 0.7012779003224245 -0.03504362186769449
Ni 7.542935220303302 7.332537014714007 10.694172786781 0.7325240028208997 0.2816563808990698 0.9887853406856326
Ni 6.182276448852292 6.344035528748504 0.9661682725067371 -0.69559062012966 -1.279259062766016 -0.5408852860325589
Ni 8.72522850229014 3.181973113373351 5.830032693612208 -1.355508469448059 2.0371377423016206 1.731570102002592
Ni 3.8917531498363505 9.273494920283174 5.243530938069293 -0.2736605071777868 -1.660231245248289 0.6432725274522341
Ni 8.151925018819998 5.239138122621896 1.6581532996492996 1.9610600853107516 0.9588394450558195 0.5856787881981654
Ni 1.227665882546029 4.726850685222096 10.69914715699212 -0.17939023843829105 0.2141451254209731 -1.4929689004217837
Ni 4.621491088417979 7.3602930375279945 8.772642209016809 -1.3034454302042326 -3.513562365211478 1.53095977784326
Ni 2.6587626425055975 2.3414282224897587 6.983760874160853 1.8561837589206358 -1.6163193743566875 1.7702389793276996
Ni 2.5947821776721303 6.464708142220745 9.485700099602603 -1.2338621226884556 -0.2893966869661209 -0.35401339450524194
Ni 8.588931324954922 3.513657586000503 3.3265876567286785 -0.1336549411847053 0.5562990494844677 0.3929301261750975
Ni 2.635915848216533 7.981348209227098 1.1966093476314394 -0.30466261198625594 -0.5001780381211837 1.7104726579023444
Ni 8.749123228052794 1.2263252855257618 2.255170245059636 0.24875320241314577 0.5348066839386467 -0.6443143384531872
Ni 8.395705978378771 4.007743114561743 11.519014754961699 -1.565676355388839 0.23812580460628668 -0.8873992868369619
Ni 4.8902807909816 1.0001136995917623 12.71769164306806 -1.380085387456475 0.1740891379403518 0.9262733381943402
Ni 4.556349402221886 4.056693787449676 6.285432557314645 0.14659144674071528 -0.5220843512759719 0.3550387504459627
Ni 5.668941079978903 6.374180080056349 6.972154325029045 2.1660929640178117 -1.095917810099777 -1.1839320706272318
Ni 6.604488983643842 7.746573795846743 5.220331056959397 0.02631446952481275 -0.9185741697778695 -1.044969344076368
Ni 0.34207409953422496 6.292951229617047 6.9909868809165765 -0.4387358716553025 -0.8271506264585495 0.3756181172592111
P 2.7230640953580023 0.7192803377411343 13.503001104469408 2.405372679722883 -0.02552051286860766 -1.6108228700184903
P 1.5638819507346486 0.4602656644365631 7.462789232386709 -2.220114155429273 1.7155963522821547 -0.31915154963105036
P 0.22610679278664036 3.281148970400882 1.4769083588387777 -0.23877346549261458 -1.3380892455303472 -0.3649917478936166
P 1.5175369452945584 3.326021207283495 5.69565672397857 -1.5789699871739515 2.145365501662473 -1.6524402884489606
P 3.6674391695437154 5.6846694929068295 7.515807012291059 -2.200772774788184 0.6785058967332315 0.5528779396180606
P 8.370952137624254 8.801123287120632 12.25545190231503 0.6907152943152298 -0.10576644230455333 0.028366209847518885
P 3.344902855456276 5.901836769366067 2.3690690672498924 -0.6731649441362922 0.9528261489822042 0.4297825191167565
P 6.513932599007186 8.331272353989156 9.187004698580525 0.7890011119720218 0.6697096385978402 -0.2393308806579814
Ni 4.790453517092107 2.5316041828860056 10.655594747316783 1.3342894121682827 0.1627755126997455 0.5459650145483113
Ni 2.096032882012214 2.665645003264576 2.8465226960181376 0.2676839778793777 0.614261999152497 0.742468001407489
Ni 5.17588460124308 7.602440734519821 3.3814020254566692 1.4110098449494732 -4.0827822365226725 0.039610158192454364
Ni 1.4741752402657677 4.306639605136861 7.988535508604067 0.4977120930791945 0.2653234480670011 -0.38110665117760817
Ni 3.0797384293418295 0.6589289256864753 9.240092340583116 -2.453938761557045 -0.544550650699288 -1.5589063836548571
Ni 6.232001269315311 2.8306894899428525 12.534552872945808 -0.007534617814148314 -1.4293814054781255 -1.2305664826563194
Ni 5.596681012421672 2.288351909476072 3.0725643471185817 -0.29638545957912826 0.49356104702529835 -1.0979129861529349
Ni 5.414567515795201 5.035631718615665 12.7435302345101 -0.8357561087393734 0.3347319205678106 -0.3982219707016561
Ni 8.518257315844204 9.076842554563662 3.95861778642821 0.8639353993870669 -1.2659559178992068 0.44713309458006223
Ni 5.0249258241016985 1.4447104282921432 6.252464255522562 -1.1277745495990577 3.5503476523606277 0.17203482651448437
Ni 0.24602032303206356 6.7168159086237145 3.0287353212975145 -0.5560157139160941 1.147264025782237 0.3774042626253565
Ni 1.8928474660249208 1.7013120269602333 11.598203443315933 4.946586509648513 1.3551629131831822 1.056444434595503
Ni 7.3168935692028585 4.128698952756576 13.769805401727659 0.9639425706103398 -0.3750329341797025 1.2896668883629017
Ni 4.065511517146365 6.335302766468594 5.53477752888721 -1.4814981807780228 0.7835501161597795 -2.0976679384761936
Ni 7.120637718094975 2.6927968133370346 9.674282448893068 -2.0437441918745445 1.5881177151114907 0.005638429232699966
Ni 8.444024116052915 4.044382952841024 8.26575775524165 1.2992506753965947 0.46115666255266385 0.5954993738330131
Ni 1.5135623583541882 9.343829059726781 5.249430509040878 0.3149773636487027 -1.5418522563860477 0.6397565438791756
Ni 2.759826664350406 7.764681296444439 3.9762079298659727 -1.7437825849083841 -1.7973661745617948 -1.1840796519486898
Ni 8.331215709044638 0.4073007531470959 9.165449409026477 -1.8638590160777062 -0.8648777086956783 -3.0028705720431637
Ni 6.785356291490908 6.026115777639309 8.850933075000427 1.3562630882258964 -0.20531749982701417 0.6235012583625779
Ni 1.026689619394951 8.786131258471443 13.32909262805642 -0.6737434423475815 -0.1746979751689443 -0.6682230267499847
Ni 4.062405486021943 4.002088060933994 1.645206153497224 -0.6134546727598532 0.6056614019676795 -0.709754570334868
Ni 4.699292919713923 6.512525916218314 10.844729384816304 1.0609677763871534 -0.1944964979521102 1.081845134056795
Ni 5.972661831662168 4.65815924916952 2.6274578139175357 0.9409245124486117 -0.43809695251972297 -0.08349040451517235
P 9.151028550234518 2.2966126305516634 9.95471079939039 0.6059205691663372 1.3725947355063843 -0.244290795766418
P 6.190386116742501 1.8836332217166036 0.9410934437332844 -2.696234895490937 1.6457423076034945 0.35538867758621373
P 0.6892773987945857 7.118069813943477 5.195555502309483 0.7951519620647661 1.5761520581091824 -2.671452289229619
P 4.8492320878539745 2.251372201529681 8.416369110056653 -0.2643016916707061 -0.6727054880013704 -0.34624069253835854
P 6.972945466087484 4.345696294382258 6.811994520733068 -1.1724911757801422 0.298884314741582 -0.6181685332957547
P 6.371055167283754 4.921426069642601 10.63615325827568 0.2865851856592549 -0.8017008189268773 1.2067215577179216
P 6.511440221448378 9.563177166549975 6.512235138836453 2.2947807910052282 -1.9110307886675024 -0.7203377451673529
P 3.7691451674263994 1.5997193189665864 4.085864045711806 -0.45600597158965983 0.58478790095278 -0.4112335524699756
