# total energy = -381168.7310426453 ev
CRYSTAL
PRIMVEC
9.25564533396031 0.00000000000000 0.00000000000000

0.00000000000000 9.25564533396031 0.00000000000000

0.00000000000000 0.00000000000000 13.54657252121347

PRIMCOORD
 96 1
Ni 8.614432799496567 8.03670466917218 10.196031006775447 -0.2760788868112923 0.026311641311335333 -0.09083450358506936
Ni 1.043981267431538 2.1298350746600536 8.897971166294665 0.3004904828864373 -0.19292401125866776 0.6497131408712552
Ni 7.008772690867068 4.774478402204211 13.036666327957295 -1.868311138311789 0.2779776464959019 -0.37345427683867294
Ni 8.206962266335175 2.971043662632665 7.275512061261205 0.7578192870525788 0.5641722815849574 -0.32399113711153876
Ni 7.50858679820053 8.463112252825306 1.0695138908364765 -0.18185669770091262 -1.603604240782864 1.4850532451191327
Ni 2.283016006057042 7.346289056082935 7.409189496667877 -0.05723121370832724 -0.7199546507963214 1.2452929902332166
Ni 0.95414597316331 5.8488366978438995 11.313501173131394 -0.5205159783475876 0.3696269326727828 -1.232321003453581
Ni 5.774217684615953 7.189424377816097 13.067714390457066 -0.09869359461817197 0.11482366741081515 0.7064460747869252
Ni 4.0092679186243885 1.8402074187522242 12.483667431016984 0.10511029677779317 1.210355040705451 0.8487610056394738
Ni 0.10906112089649538 0.4107757241343141 0.33009889099099976 1.4427179746860315 0.2751301497447778 0.27951593751729925
Ni 7.587852145420095 5.213149716014499 7.70548029170034 2.512509777122718 0.14352077823519155 0.38804143062422847
Ni 2.9351317584743377 4.625166330585103 11.475030696680655 3.0001488022366263 -0.0118260461006506 0.5870970087019308
Ni 5.967188635594552 3.8925172075282184 7.557619505280209 -2.7901989458439234 0.6042979459612495 -2.153189882802898
Ni 2.2839138036610005 9.039905562964131 1.3684610560992077 0.37026688024962684 -0.11770176028955859 0.22330159510926056
Ni 4.259161088823017 7.962715039831542 9.148637182884329 -0.6555716565345613 1.0257518906076526 -0.055020064989621364
Ni 5.400011941028022 8.183415904433428 2.325066254245731 -1.2264974547932683 -0.433914281896943 -0.3767159783090802
Ni 1.3425035985703344 4.398615898089387 7.1832869593502755 -0.6146201538228641 0.15219825140453144 0.5179289343467015
Ni 7.41312407152811 5.7278098785721765 10.435073783869745 0.8706948295980875 -0.8751798619526348 0.03114891479897861
Ni 2.8731744681558213 0.5332380940078306 7.815912173680817 0.47674757501238546 0.5631806070956494 0.22236674199981707
Ni 7.728584233751891 8.9670821449441 12.448826405031626 -0.899038156627471 0.4173754037016554 -2.097758441307471
Ni 5.880750163188723 3.3191669974788005 3.819496644261133 -0.3649002166210748 1.019330046241709 -1.0563153652168067
Ni 0.4620964267572763 9.162107849201863 7.506196990557829 -0.3555503999750586 -1.258370135132149 1.087217968332934
Ni 3.025550158402868 7.414790087700404 11.738227006015045 0.6835023215065583 -1.1226778518024407 0.1953213078462507
Ni 8.429616072116804 6.60841974901953 12.759584699391377 -0.5022390344152705 0.41863498714036934 0.09523828907971986
P 3.679341182637859 0.8779155520709391 9.840650320369894 -0.46119240088660574 -0.22955040423244982 0.5308057903093697
Ni 2.309959189821189 2.3687325381215447 10.899504484397312 -0.21276341458209808 -0.5735701778600897 -0.1226040826871824
P 3.8247751388336835 0.9158794328148079 5.919906171060322 -1.183184136717614 1.5975377228738101 -0.08363978560884305
Ni 3.1125439695327954 6.303251864482363 2.0056779961134983 -0.03683105278542044 0.6954273550789184 -0.7495891858333026
P 7.885994995097425 7.284553901254058 8.115345260327134 0.23342994179251414 1.7108686077891826 0.7715728891932453
P 0.840665281587536 7.75026095528251 12.082134394380738 0.01022219194864046 2.8336978975678226 0.33260536114311107
P 7.461827277631492 5.998694852541704 1.2812238214952174 -0.0003861796948251414 0.6694059913144923 0.24919080417119663
Ni 4.15355417479041 5.222331316252917 -0.01052181769257383 2.1908249195468525 -0.4227443813230526 0.15382627392625767
Ni 0.301528564765246 1.0459434642566836 11.326573846696657 0.13653329117376486 -0.2855181778473212 0.24925919551528683
Ni 5.066827217860119 6.998758082542503 4.731980180778082 -0.012002166667198685 -0.7363400341328803 -0.9172623929449816
Ni 8.215218302033431 1.988899362129422 5.0332967912636315 0.3857678040987033 0.00476476837849502 -0.29551025606302656
Ni 2.0933678317776283 2.722973854578158 2.1983647987782677 -1.8017529907755807 -1.3557529813586973 0.10826426902574257
Ni 5.423993318263648 0.06603995550517551 4.854427741618956 1.7132661614870814 0.19255248685186194 -1.4073748193000473
Ni 6.216517211423681 9.073003750920362 8.47709290520447 0.7460300077271345 -3.616454828402346 1.3289281478563695
Ni 0.1630761418958722 6.831508570135036 6.536545960217707 -0.11189338113789762 0.2950842242692015 -0.9944096288509455
Ni 3.3243409032583124 9.059101771527114 3.612856956153405 1.9266489548207335 1.5598623198102233 0.5298637381110745
Ni 6.022657718486525 6.712471714624663 7.178992339883919 -2.545709146692822 -0.029022869594911307 0.47953953593522575
Ni 5.761278292344474 3.3211569612401513 11.734515492208992 -0.42866074680748756 1.0969778759331752 1.5694499634986583
Ni 4.310640988546887 8.252463019129593 6.590786818964883 -0.022488668020819332 -0.8632324597827714 0.5554115046731919
Ni 8.972367118468432 4.529472212777643 0.5090123677336024 1.4612697695462897 0.8073171366723902 2.0422858621614632
Ni 4.125305945024634 3.342787404543762 9.617890074666144 -0.47705739294332034 -0.14823181055761567 -0.15947653023349953
Ni 5.9180689254480985 2.195633457820246 5.784603444321123 -0.012463165464017245 0.17832914416362836 0.6323620511873174
Ni 9.278691958680804 8.98887918986494 2.723565290319322 0.14496728087373098 0.2273639381040923 0.509197982231607
Ni 8.036380721583122 1.2540196285307443 9.44530745937826 0.2826334001003584 -0.3876421383032808 -1.3307986254062047
Ni 7.124505280969059 1.5025614745007347 3.0202892495565816 0.2865507328768936 -0.801661995269142 -0.6806859351036858
Ni 0.6076581108596426 6.1211285299144755 4.3372870660936425 1.686138194922038 0.4340695765278847 1.2683503862733123
Ni 2.264921219296854 0.28492393691472045 12.477097773910906 -1.6803249306743704 0.07436787338861385 -0.4148140707323824
Ni 9.206757082619328 3.910667528160816 11.876646108560974 -0.6996755888323112 -1.2674186184876624 -0.8797826508319687
Ni 6.031015566284198 7.559307735001466 10.687365091791936 1.5257370959917402 -0.921458176193884 -1.2134287945347682
Ni 5.040087658294808 5.615094628871117 9.536706032154822 -0.036211674033866666 -0.22648410660230028 -3.4459462087244
Ni 7.939224211802203 3.873607923972687 2.9009173396826697 -0.4152408738571558 1.5371011148543074 0.4510787094913716
Ni 1.5290603872856035 2.6518812422482325 13.322430677474484 0.2910887299565632 -0.3082413304764498 -0.15890137445631988
P -0.3561313192476264 2.2577203271743853 2.017192944557667 2.7268580196934327 -1.2811151421381484 0.7064617585162091
Ni 2.878579765070374 6.082976759568953 5.2246017260699364 -0.8027526572301594 0.7119844881066513 -0.7463519098429275
P 7.081873778249148 8.640533719529166 3.491439548645733 1.2704774599186441 -0.07629851475242344 0.46300682838752516
Ni 4.889507563255677 1.3853294698436798 2.385348272746552 -1.207344021793269 0.2240994084202076 0.3432805814687701
P 2.0361864544863533 7.606076511215907 3.245975204771785 -2.7377594970972847 -1.1906033119998203 0.0293537705717688
P 5.114345701352091 5.629089164718383 11.485421084208525 0.6855610038077999 -0.21303055220055572 3.496780260657133
P 3.8107898586318187 5.803280411177074 7.141332969873764 0.8429179165951355 -0.3599953231202897 0.9711820257815726
Ni 8.920109744530825 8.968303890137117 5.214292788221601 1.025398363922976 1.5450663924479713 -0.6409731898950961
Ni 0.8216014287537972 4.8096405990850055 2.5992351312037565 1.5382655674760541 -0.6417756311917334 -0.8688454350941746
Ni 0.6882969958568104 7.020814285534589 1.1674923019290593 -0.1375501624740534 -0.22435343341254263 0.3525362957390832
Ni 1.5647223890180868 1.388504156216439 4.066233639377805 -0.6200703783041579 0.010173598098892156 0.6471137555751952
Ni 5.831056603027368 0.8040675341049478 0.25387587441495013 0.13031893483293688 -0.43582101200135265 0.1011381995039226
Ni 1.248160804991512 1.8248430473855173 6.719466205854675 -0.05531677029443376 1.192393314020708 -2.828403481938103
Ni 7.615563547752578 0.8383874672541946 7.14868935683898 0.07647592087055216 -0.6034993613193542 -1.9680370308492168
Ni 6.66171375524212 5.28818523328552 5.075155447592507 0.7112689500968654 -1.3865954206608506 0.8114345012748736
Ni 1.9982660752758725 3.7617627049393807 5.03431306112873 -1.2213087115034773 0.23668598683596653 -1.040280423241131
Ni 7.3446878294284526 7.587157972014974 5.583802217332745 -1.685974158540348 0.06923440881679044 0.4925560027995518
Ni 4.996021530537643 9.112803026147375 11.629244558104464 -1.3220000532779683 0.9765715722282601 0.2050691312616339
Ni 3.8766252643736188 2.5250881558912925 4.485229302193308 -1.4214338684962746 -3.4753254332174666 -1.048712356058568
Ni 0.42234065306365176 6.123858945307956 8.622867469151075 0.33873744218277796 0.09234245558916356 2.2236543073720476
Ni 5.508330759163307 1.7684761668895859 8.056322935165475 -1.6526274647591022 0.6796600649423328 -0.8452347376537701
Ni 8.85895769536225 3.939174915997839 9.344533843374384 1.0650450317803206 0.09379307199276105 0.702506630523203
Ni 5.737796719960537 3.1930680845269834 1.036620252643621 0.16663448143451948 0.17312908801992763 -0.09223729746986696
Ni 1.89790711218599 8.551244508339634 5.545871656912322 0.4890209930630997 0.3969384760035422 -0.8289005192701208
Ni 1.9671023172085815 5.084070485243356 13.397628168540034 -2.106907711906907 0.493064567004854 1.9610713981646613
Ni 7.900776260803829 6.600367337520112 3.6374445781628375 -1.599661454085032 -0.07995590899935262 -3.046395234798676
Ni 1.7211798188872527 8.738597282559445 9.627643673790384 0.05816092461144822 0.050460727753713096 0.9688533776483959
Ni 5.553165105488806 5.331529420701357 2.3310130064162786 1.0457273052883151 1.0958136804217449 -0.10400060865338218
Ni 4.387157409082168 4.293277397773428 5.547957879385849 1.5193255360384412 2.3852082889598663 0.32606370336985135
Ni 6.574710688466792 3.4840007864364426 9.60292184492263 1.4721213675488132 1.353864506086733 -0.03805412655924414
Ni 8.14556957038616 2.4543842806682354 13.679735612559039 -1.7417064191056455 -0.6122390551851972 -2.0635249740458983
Ni 3.5244479568415685 4.283595992683322 2.8695573619328645 0.8338308666922026 -0.22107681954379993 0.8114625262993315
P 7.752324964207074 2.2044355765971972 11.241393216500908 -0.6157550387582557 1.1673813653574026 1.3753260183946185
Ni 3.4589550099796296 3.218261951310222 7.354637648235205 -0.5284776563968254 -0.5596990763049522 -0.1366819009364872
P 3.5900982496753358 3.1660878781812296 0.7476784400600527 0.10666247175626146 0.2529559276405837 -0.44157128422156855
Ni 5.649442328956569 1.6325755254574417 10.296194675747357 0.11163832770429806 -2.6324630524506145 0.8799142913138265
P 1.812014722858857 4.429557520667039 9.822958154184677 -1.9245946433948664 -1.8956334802758255 -2.4941086489077113
P 8.868722401260971 3.9831762542371916 5.254904709114876 0.6030604740097227 1.1034498568107642 0.32253177895719287
P 3.9511517211475495 8.764179886449552 -0.08074254822566594 1.1604872093407304 -0.4278446786640954 1.3404760005949687
Ni 2.61980117528618 6.375732823622534 9.510221928402595 0.411270319245182 -0.5748842686858229 -0.010072296634337492
