# total energy = -340874.625279008 ev
CRYSTAL
PRIMVEC
9.23051161987917 0.00000000000000 0.00000000000000

0.00000000000000 9.23051161987917 0.00000000000000

0.00000000000000 0.00000000000000 13.50978679010617

PRIMCOORD
 96 1
Ni 4.827372957061056 7.293488741484939 1.8209030235179826 -0.38787070937431906 -0.6611321813414743 -0.1951626707811994
Ni 4.29851079488504 9.222148757432327 13.407193488462777 -1.644798969853619 -0.7840795063006883 -0.1560785602955441
Ni 1.4325938614895217 5.606446597203829 9.805686932025369 -0.6410374674741282 1.0610137991337405 1.3526517167255545
Ni 3.793167976268225 6.941547795164192 5.244404702038171 -0.44982786780340595 -0.48087959490288795 -0.28937431836861777
Ni 5.182203053512897 1.2183629177432407 4.103556851566167 0.2106499677835211 -0.020432299712422875 0.9203248339203891
Ni 8.476692640540188 7.850190126649399 2.8304625383362967 -3.540458418271374 0.2738834218218702 -0.9966562587932771
Ni 7.120610489710882 5.176692438087135 6.447207746375701 0.05382167380614602 0.08105994069680877 0.8805593810969932
Ni 5.929939106770469 5.156163780286637 8.906084040550965 1.5623889428868187 -0.5586215269700573 1.4061162643025977
Ni 2.896008401214591 5.404270701608379 3.3863765608611964 1.152280248049906 -0.017705387699563056 -0.518023808053353
Ni 2.0457582861169485 1.2282487956678503 6.576807821457579 -0.4903728791053039 -0.014310245975085031 -0.5612779907562979
Ni 4.941222087147084 6.209300540373002 7.166252600424063 -0.7006947741254449 0.4121437229890708 -0.8600360643326608
Ni 6.685705705120861 1.7616431390399299 7.090881780997725 1.5198230445001502 -2.425998583503351 0.08248921694416761
Ni 1.4095914265799723 7.175661260898904 1.6312390863976107 0.5849629930780635 0.39310444696943264 -0.03112963152526897
Ni 0.8958765339411027 9.033523252867061 3.5250548441026 2.7915536600996056 1.2721558760623317 -0.5482905773576945
Ni 4.583308999820528 7.043360338122591 9.540841400966478 -0.7802045967263144 -0.39688782527126487 -0.10519360052021884
Ni 4.374745590197225 3.034263003973512 12.732244634434439 1.387887657109713 0.3430090729749383 -0.8052836511821294
Ni 8.550195204418497 7.064248985875524 0.3100694995965497 -0.5647309823019049 -0.13442858612593622 -0.39349216932615455
Ni 8.441293628550573 2.838714615707539 5.771096770936805 -0.7729563998043333 2.530838657338893 1.0666648267719308
Ni 7.217152410545142 7.744916141840647 9.774006893159774 0.20550030526178156 -0.9089083645533313 0.3128328065018741
Ni 2.406292838738173 4.95528015631532 12.00274345684453 1.0140695691737183 -0.7186937818060267 1.9068830850477159
Ni 8.149886377308809 8.978241718889016 7.334570979467255 0.2555121184035341 -0.2683882030352539 -0.07086705932420699
Ni 2.6865311709427955 3.6721190471334615 1.4481814264300337 0.9356336963633176 -0.3407045932114777 0.05828048090844802
Ni 1.1125720242848354 6.752894599064124 12.286718300145216 -0.5318928527259614 1.3397681758946667 -0.21157299381842268
Ni 8.77502277548266 8.636768172723738 11.409501245405417 0.07271388272495864 -0.6018805947690086 1.3415676909972507
P 5.3735792505352435 8.605347511234129 10.813976328447392 -0.013247351928209444 0.5363544880417408 1.4003893891211496
P 2.9334750478028178 5.962688961930614 0.7596332596600271 0.894559294920511 -1.1204582184433027 -0.9277003004488538
P 6.3756343594219915 6.01913354037038 0.47996906527698285 0.6187187493722699 1.9950834934440476 -0.4398509590963522
P 8.473886565013501 6.38149573428859 10.901006207076883 2.7602335098300848 0.34102058178999983 -0.791216888676418
P 6.991586398552903 2.4870875067812253 3.470569903275716 0.10054915976967199 0.3385680064844492 -0.27006044853135425
P 6.346105952810575 8.224671982299649 3.9338068201736696 0.16953828534487575 -0.25207069682215294 -1.2774927148942128
P 4.669235832313704 1.7699782910155812 1.1024110771145175 0.297368649428004 1.9322979255763948 -0.6778734053555551
P 0.706567048466207 3.395342156779192 11.911052169856566 0.33778947644721186 -0.10469866316167131 0.7185899092383109
Ni 5.896829261657888 5.960815168075623 4.478696842693563 -1.1104756533092939 1.0082712173243862 -0.35341047081392035
Ni 7.986552474530126 5.298489038661574 4.0701202463429125 1.8634733506035133 -1.0446191598258008 0.8052407137593358
Ni 0.5028727337124022 7.827990746249132 9.054596510852013 -1.1134347359376178 -1.6797024665990232 1.0738870555519828
Ni 1.1616045019090435 0.3765347214302983 1.0316259758515278 1.3355605655712224 -2.538178385533416 -0.08421108473128078
Ni 4.188981544228252 1.428495514338703 8.5349565528165 -1.0571527735164374 0.6882665756644212 0.5331100129625141
Ni 8.45957004152044 1.092274129274362 2.318266064855782 -0.8460266374274462 -0.69317918247469 -0.11111690798318928
Ni 6.158025048429765 0.2981390633523312 2.016727404080824 0.8371681585955517 -0.5916835996313488 -0.3546844524303375
Ni 4.471075209264664 6.852676429470315 12.266642860464325 -0.9034347430332699 -0.9728337024523827 -0.5159281018665889
Ni 7.789628740035614 0.8074094646553468 4.805728330408005 -0.25668839809982247 -1.0663784058797636 -0.2735466073077418
Ni 8.11502273499205 1.7760427371374006 12.088962896555456 0.32668153945950834 -0.2586802317188706 -0.5394169290171484
Ni 6.803154734731258 4.9864054414337 2.215483395128124 -0.33713333092045167 -0.5894660231547396 -0.5481514806766689
Ni 5.954538420186982 8.650337024777125 5.976999947116716 -0.8027513716785788 -0.17828929206462843 0.5114736656396611
Ni 0.8438736776837111 4.916613543218971 0.6767820336322848 0.8865101993637893 0.37278681845800316 -0.43820031086680666
Ni 6.765411172795003 2.152795298641481 9.724101209138116 1.6556006884548131 -0.5049721170757174 -0.5668552277337593
Ni 2.9316566370174324 2.86251087461477 3.818554652324298 0.21031675281381843 -0.38250944506240575 0.43247009325124874
Ni 3.7533290881985555 0.34947363056981434 2.2837614894402978 -1.6628949081233813 -0.730447322797529 1.0881808464668357
Ni 2.4383134834818434 3.0623052982171766 10.56370762130871 0.28899379510074746 0.40049431167560057 -1.036885024406337
Ni 4.918736560887187 4.629858469824082 0.7327438563153207 -1.876511414734394 0.5757286189639892 0.8023914172359987
Ni 8.192152889929526 4.025703024519175 13.202790270418019 -0.7581363040723652 1.405859153986469 -0.7375263411314975
Ni 6.784158341856518 5.714009748889615 11.923859504702875 -1.2954480138210527 -0.47378103618489376 -0.3076335216891218
Ni 0.9018837508909961 4.155308637908012 4.187656042762357 0.33563412066710585 2.4380146341276205 0.6294286795906063
Ni 0.2945022417815597 2.258023130892229 0.3913875376473754 -0.6683042736098813 1.7640639608652393 -0.8154703619071441
Ni 3.461589538539158 4.796146136315066 8.658854940882474 0.5527115892435255 0.14634667771976087 0.3695042910519894
Ni 1.2638878009590904 4.428984076364365 7.8889315068897155 -1.4157067362045102 -0.09659351755603365 -2.0806703754769327
P 2.5407444707175055 7.2337765619384395 8.479755324289382 0.7682355972898963 -0.4925614021161904 0.037352215396213084
P 6.789558191143069 7.2255890981484034 7.64263468889292 0.24048916263214068 -0.8264140054028413 -0.26856972291844067
P 0.5152674646901482 9.086164860527239 5.553265004614997 -0.06049471495094742 0.27272102608265286 1.6821509281395157
P -0.0030645298515130036 5.3424816569516675 5.9399422121924115 1.0461286544917916 0.034991942694152636 -0.21187072756449962
P 8.821664550602224 5.865630132446701 2.117496899228316 0.5587827351382699 -1.0209868651188416 0.6770251984226469
P 1.9468810458476495 2.54030140616066 8.487955710795658 1.816241157089427 -0.19646699141491972 -0.014977447245438725
P 1.9626282986388581 9.17253475757726 12.439054971402534 0.5755658681338798 -0.4136321346091393 0.4411069429906403
P 1.2762197644579498 2.160742769129893 2.3775333337431155 1.3240101417294619 -0.19955900007668212 0.607487913653457
Ni 8.119278000840083 7.390316808178829 5.202321876598313 -0.2519989630439531 0.7639829926611295 1.2349466140018863
Ni 5.053271267470929 3.5832661424627856 2.940216090424986 -0.1253981004925518 -0.6149253437681087 0.3811138502664597
Ni 5.237964574094193 3.2673241913857165 7.714723138393963 -0.6380182210318301 2.429824127897028 0.7081103498632256
Ni 5.772660419602005 9.008702407172127 8.542859716849227 0.24705550299574872 0.6658074753299565 -0.09784307369241858
Ni 2.4007176097312035 2.228042429212367 12.978433455445504 -0.8649345300755427 -1.7101566693238224 -0.4718650501091035
Ni 5.863802491149714 1.2279257277618174 12.260077197562573 0.2249113627985417 -0.6076761184048631 -0.8888036233836565
Ni 1.0733885025388332 1.2122892411098203 10.929161113562078 -0.0030704113952076152 0.3413165157638638 -0.06587089166119624
Ni 3.8150073667160553 8.784124059921188 7.21899482066069 -0.5150816947058936 -1.5614337780624012 -0.4385116714596383
Ni 3.122239010042098 3.3286147884159765 6.443479542740081 0.024783120481950867 0.8166057610631678 -0.05850956620011859
Ni 0.7632276208774342 2.0422322306853884 4.510634412832825 1.2145950469287277 -3.165083270260904 -0.5630008869846755
Ni 6.403501273945238 7.960402435164656 13.105304068246982 -0.08933940709678162 1.3048173708510948 -0.2785661720095203
Ni 0.9137375738889268 6.7300490828517905 3.9394263556363236 0.6793744153811139 -1.3867576572703277 1.4264783728987174
Ni 3.702441277742558 0.8463317629230422 10.965853320226985 -0.015663160458553666 0.2343048881982997 0.16541320743290866
Ni 3.150133616100147 9.134071215736132 4.928505211314466 -0.340013223571408 1.5263983837248227 -0.36510487643271317
Ni 8.75956166855108 3.4140893258407066 2.293907667792054 -1.3468577357515965 2.0463086101676113 0.6746029621343995
Ni 6.040252950913337 3.3283747951143523 5.467289250410335 -0.6742437790227678 0.25500021176412213 -2.0907766106729992
Ni 9.218188867955524 1.9601729825530072 7.884798083794814 -0.06508002032878468 -0.906242130575078 0.3677726530728634
Ni 0.9483704534156642 7.186571725611219 6.883898634960504 0.29672510230673416 -0.3000276843174059 -1.3062145083089376
Ni 2.4753924485828303 7.986395555832911 10.624204394341291 0.2609834259307505 -0.39991941300873707 0.4572874094052447
Ni 4.774426742518049 3.097408933835562 10.165128592073042 0.4156337384202003 -0.6571287166090359 0.2579222705069235
Ni 8.458573146267538 5.656106749616901 8.485361937035794 -0.24024413650087012 0.2175515799993608 0.26015553071281644
Ni 8.376901579622396 4.180101792068146 10.62284012472667 -0.626314816551973 -0.06947120741794488 -0.6365704328417102
Ni 2.009565450129652 0.31953354314099636 8.759340136272657 0.05482568959062816 0.4354908823554435 0.659166315864355
Ni 6.693782402771687 2.664119488775707 0.7817846413999695 -0.7441219920711443 -0.9528588019923525 0.5897856112776875
P 4.22254368440928 4.9123398163477345 10.863746323948517 -0.5159895512321436 2.5872905696790345 -0.28850271439694186
P 4.5704785886952175 1.653046170054838 6.277309103746429 -0.40030096471787185 -1.225063036339587 -0.7018335157155784
P 4.269074693389633 4.722588189367153 5.149606424845328 -0.8201173737608521 0.019236993852741063 -0.49634915129339685
P 2.938173378207698 7.745303823327887 3.3179360095448462 -0.19320271884135112 -0.7332179435641308 -0.2549053380574707
P 7.781792035686413 3.4775398625855876 8.067247453047889 -1.4821579258492086 1.6670061020782774 0.4380696988262133
P 6.462087331076422 3.3986743714671324 11.798637461273325 0.5581119343234904 -0.7948182328744311 -0.41214937941602564
P 8.097373996811045 -0.005521692039683972 0.23113385658992744 0.07499985054565794 1.4583423114868497 0.09858380851318506
P 8.771441336981495 0.40263122382848376 9.48024955366441 -0.9648224021121319 1.1188625918214086 -0.056431857735483454
