# total energy = -381166.0404778812 ev
CRYSTAL
PRIMVEC
9.31729017546560 0.00000000000000 0.00000000000000

0.00000000000000 9.31729017546560 0.00000000000000

0.00000000000000 0.00000000000000 13.63679597792588

PRIMCOORD
 96 1
Ni 3.568699218389685 2.77600279314144 5.34382377844564 1.0411396859176327 -0.11892817649749195 0.15631638733796305
Ni 4.9586153181197234 7.291674129781796 5.755505455737844 0.9509034780381945 -0.417980384275506 0.059638023377606965
Ni 3.0332531786829904 -0.06610710649966883 2.3743977653227306 -0.07048602183570442 0.1358486064019144 -0.791205061601876
Ni 0.5982585523516915 3.026460874044824 11.537356481564688 -1.9021836226895177 -1.4994089996201725 -1.0500662989833012
Ni 3.8814713369063214 4.6891872341391005 9.567944056986219 -0.051985134818039506 -0.21500104566336523 -0.07424805998129794
Ni 7.778288250958131 7.597663260950578 4.924083576761734 -1.9279275644228409 0.04569750203711485 -0.6360220165374079
Ni 1.6915074698710912 1.408811564484775 9.629691603348443 -0.8102746766388175 0.1543682624726567 0.2945664040925185
Ni 3.399953773531191 7.316411535562776 3.9581889736144187 -1.697498871350496 -1.1204260796537866 -0.7366799339708023
Ni 7.195845798912733 5.006357113683466 3.9862806039080727 1.14996882630791 1.20769394893352 0.04718617076749938
Ni 7.276384456378186 5.715328368179216 6.319577938202158 -1.7079810018287425 0.17440795473235124 0.13103113040861306
Ni 5.930194400086993 3.328518108701525 10.673942754569909 0.4917928993812821 0.3173960003925243 0.11782774434446158
Ni 1.337413168816361 8.117978021188984 7.869904234876693 0.2018467676695943 0.42800357283946283 0.016186379951875347
Ni 7.452639637228948 1.8793254080002681 0.8106117110620552 -1.781389853738197 0.37556952340946287 -1.0968691182694528
Ni 7.330462009354759 5.031224961528826 12.379837984142313 2.1739037183114815 -0.44656950876710827 0.13404369198269173
Ni 0.2026137951461993 1.2340285155034656 13.185977395854135 -1.5317640189121104 0.3840917019478611 -0.9401567810446517
Ni 1.4037615931351362 4.724397274231875 1.6983398388576039 -0.35858944391169856 2.2438122703771617 -1.0001994960598453
Ni 8.520559501032494 9.069841716853974 6.522615670057598 -0.2232848829387122 -1.5674085075885973 0.5835951661962595
Ni 2.66970182796058 3.1928863136153844 3.041292136765035 1.4863279980664983 -1.4204455364410762 -0.16066540833527812
Ni 8.998825330088392 6.52084538489813 3.1674324082093372 -0.21275595838293035 -2.804867860710008 -0.8341077745026731
Ni 8.06473902434058 6.536107106430802 0.712597543885565 1.8294607411034947 1.3285262844322603 -2.5818179766002376
Ni 5.146917755345177 8.037308921659148 9.967516052058635 0.8531511642873693 0.29882440803792404 0.7756113209286771
Ni 5.499670366594836 5.463714943277022 0.1545663924601917 0.9967233645857867 0.10950045542568884 0.3533839884513591
Ni 0.655335341080014 7.122369647504524 5.235984528634106 0.2947852049715439 0.7099402039831129 0.2708487487606045
Ni 4.071795626129691 4.237214798346449 11.862758187100578 -0.45508731643013234 -0.3868085866583919 0.532965774075166
P 5.2675207611564705 6.1200994112462785 4.071415480684921 0.31398337516654956 -1.1116730160515047 -1.240714883944231
Ni 7.056570943314215 8.121080678863208 11.57905787781852 -0.012218910663695084 -0.5482314419849849 -0.46952611756328166
P 1.1936939657385481 4.483768934608692 7.09057532604049 -0.5375127700159 0.08360610415743021 0.48899039693548035
Ni 2.4557116213422243 0.9096237600310664 7.524906404354532 1.318354228995265 0.21793081771565048 -1.151437440433636
P 3.9136812095183147 1.7636978352161086 1.455032778269437 -0.48171777453346715 0.06946195144656424 1.32635858735698
P 7.494250655766744 6.205976876061072 10.292753773285016 0.16717287043649273 0.08164486666600132 -0.3500351265837843
P 5.759781160262474 2.6673818226726462 6.24293856673269 -2.9185062495634706 -0.6905147482686494 0.3111595325645093
Ni 2.363442495372721 5.168682945516313 3.9339015929555576 -1.2924943305093677 0.8833821952577691 0.4386181151305156
Ni 5.165421893906767 8.592554203280939 3.544312142724475 0.5627008392457535 -1.246881417766259 1.0652190954643395
Ni 7.239273689061562 1.6102886502127898 11.947770075645295 0.8385606680677042 -0.5716608766525187 -0.31038460207169766
Ni 7.577864019035483 3.0300014443637586 5.5467534297334495 1.9460674685566617 0.19729745773601504 -0.9231350496756746
Ni 6.685174434148269 7.103902778104184 2.397731055453542 -0.9279977770846147 -0.748492353224698 0.9024713506787361
Ni 2.6012570133213826 8.188677620083924 5.860304473720252 0.9575711198663573 0.588165302065445 0.3370561978256131
Ni 2.013736638055408 3.6722049964766494 13.049963591865163 0.549355271176783 -0.2519578253933725 1.383442991074798
Ni 3.060860309880369 8.137600234588133 13.09571521421805 0.15729777741462586 -0.25600988397555907 -0.4671357629542342
Ni 5.634277259746549 5.810588344339188 11.292521385365193 -1.7073778210271047 1.7968822929468407 -1.3527136803117412
Ni 6.77025992928646 4.995157730727255 8.511188170435693 -1.6627221299909427 1.531235657212466 1.5479383146791277
Ni 7.47782427294495 4.826458872320327 1.7463555627565472 0.23515592334468535 -2.1311192761561037 1.004842137038179
Ni 1.273077279205191 3.1173044545964395 5.193587130793893 0.03989220820924742 -0.07813119708578802 1.1645798913528653
Ni 9.0705777827887 1.207306526885821 4.5793727187812125 -1.5059252034721353 0.4680179084488714 -0.5532728610636343
Ni 6.624900883113561 7.636441823233228 7.7096850423836125 0.07332092018133823 -0.135935766799082 0.21088419528151425
Ni 5.236242617575776 0.2849357819775581 12.38769245987616 0.19738873189824072 -1.2689445682138856 -0.230872465477983
Ni 4.818837328844304 4.914320919971788 6.155404487700246 0.19822176932249733 -0.3488511335780121 0.7189166964501102
Ni 1.599974409836314 5.896596251218364 8.91966469986023 1.703063767032783 -0.508810002764569 -1.086857756780038
Ni 7.2480971629879605 -0.04931362243954239 2.9621436190142796 1.0047197525277018 1.0378687284758448 0.47057461343245405
Ni 6.014609050322648 2.6977841409639205 8.397143605275708 0.21195377419660916 1.9597447089334379 -0.42890448738717746
Ni 4.395208090183758 8.799519173003302 7.1781364252148405 0.7915213072907142 1.7303393149192845 3.4803699376199098
Ni 2.063267353359243 1.136737370055263 4.082788165240952 0.5690730613206845 -0.3681272081988047 0.6471155553474081
Ni 2.5499560128580803 5.898413122829396 6.183264117465106 0.5276474471860462 -0.588033147362955 0.7689071694356242
Ni 5.750333427885106 3.3703247903358946 1.675757522326019 -1.750361266567166 -0.7241213805795013 -1.0718250308166315
Ni 4.109744949574484 1.6720250158266368 8.96263417932566 -0.37979487434472015 0.0863391868178771 1.2098775868484002
Ni 1.2986066546627733 2.4536245483121153 1.3790894083863487 -0.4142016339593641 -1.9932364129329803 0.0350194534979784
P 0.31001606404205456 0.4750951551623886 11.044114040059696 -0.4111659324568338 -0.379178838027276 0.4575704878633023
Ni 4.256473637423392 2.1952095014814414 13.065782487358549 -0.6082823845302944 0.8421224172770335 0.6035479551691024
P 3.462547329853833 6.667313188618275 10.736549355098989 -0.4494270328205615 -0.19480734432430966 -0.5109859273699651
Ni 5.426306022670382 3.7742013735329105 4.154491236302602 -1.1770104038067342 -0.5200688635078398 -0.42585978702358274
P 6.152756513793296 3.1880599572332575 12.976161335295998 0.8638348692534608 0.9843393890991371 0.015940582489656418
P 1.121773801812607 0.29005842819163796 5.921342042560624 0.4308819228285225 0.26038101646006123 -0.6972448679036314
P 5.25519398607239 7.624208221052276 13.41491160440549 0.3335453564588771 0.30537892132699024 -0.7590063653821444
Ni 7.401934943345676 2.4691005675219855 3.0494196091050534 -0.1591037202751131 -0.3718403953843338 1.0828144399485997
Ni 2.3437084744898162 1.1223887429732642 12.292357945393684 0.01491754054178076 -0.5895904645477459 -0.8490476836419572
Ni 9.080687042778289 6.483156945582101 7.7250408685484455 -1.537105742839998 -0.4334093172360665 -0.673878168153233
Ni 1.3932237377911487 7.526078519475905 10.435503978170276 -0.32037025252949985 1.3966060108193172 0.6842589971669248
Ni 0.9395276032905957 8.860146781069904 0.8199187523556972 1.4044586740945166 -1.5397660632809806 0.2733676585277163
Ni 4.338009244952334 6.7226858449483515 8.309745558681836 -0.6955708226353181 -1.0679346946232897 -0.9693452296831498
Ni 8.762753145428258 3.636007323610698 0.02071885846898755 1.1263802403546923 0.4985379314145995 0.04028095900723385
Ni 3.067689883679788 8.777996232380305 9.405475670611585 0.2035879187304171 -0.034002582197689826 -0.48908989862782215
Ni 4.266508359090478 0.5123894730981787 5.236079564995299 -1.579046348937842 0.3875194966824874 0.2618799696030909
Ni 0.3063627545103326 1.724667706095009 7.259739117234037 -1.089471283143485 1.457237251348129 0.8970697200471904
Ni 8.567928604983717 8.538290304498107 9.06972431899603 1.1809189948325212 -0.41366478761928754 0.6500730953138352
Ni 9.32548952846169 7.685031492215452 12.438312366417582 0.6037582714076957 0.511825392552125 -0.08203875967031032
Ni -0.007058779141118392 3.6339575197418412 3.363474718497787 0.5270954313373181 0.4908734728908063 -0.6341145151020499
Ni 0.2910833301260664 8.604144912430293 3.113676301748563 0.9136656767326589 1.5022765509759546 1.099870624099938
Ni 3.9985337723986802 4.974696961199938 2.038360372894568 0.19639037254071337 -0.5151590849110482 1.4448771871208794
Ni 6.903692843858736 0.794189986885417 7.829143884944472 0.197025435021551 0.17770385187480364 -2.075618414875322
Ni 4.198706437482877 7.253575729691995 1.6747894558624998 -0.8088680260992779 -0.8967447326076039 -0.4466343005667727
Ni 5.114940814991008 1.5170039395991712 3.3984397138553306 -0.24957878363823466 1.2759413112466929 -1.5842075814238072
Ni 8.355270770880118 1.9683614342311648 9.624973327533944 -0.24519788096171968 -0.5156535080489636 0.13518860422041232
Ni 1.4987047814244663 5.231705097193352 11.199204995964509 0.586873322726899 0.36501205960859073 0.7398274784608484
Ni 3.261433618448024 5.552341008734147 13.587144511028136 -1.833309425425623 1.4540218297346248 0.008123143327766657
Ni 0.7884635802590555 3.7779096550774787 9.3789251201357 0.7494313200991997 -0.5144420042393656 -0.9435745484769492
Ni 8.50310821627627 3.9603515166960626 7.675866073734567 0.25070338416098115 -1.0383788353430439 -0.6034772498321671
Ni 5.465885871919948 9.138072233815972 1.372148027103174 -0.133500417884712 1.9831276066337522 -1.3207561535685381
Ni 3.0319953444907375 3.5908743693345926 7.598354603891803 0.22479592026659995 -0.3831995291508949 -0.10126341222787721
P 0.5209185206506863 5.713846919019452 13.201223277993273 0.11399140131750689 -1.3029291526894462 0.013583652221705638
Ni -0.18659178272398808 4.970476228688156 5.394034655942323 1.4164916939996508 0.19527837042345725 -0.22372736979276953
P 1.6862991045861317 7.051371895319568 2.3387377001078384 1.005136014129514 -0.129013585757952 0.20769474180993908
Ni 6.529771349017971 0.6040278185134925 5.38420305120406 0.8405607292168684 0.31846120843224507 -0.1772261409074367
P 6.780350554695423 0.07328701041485604 9.670192932609963 -1.0306015053904702 0.417562580011797 2.7343178184055876
P 2.71731318145994 2.887633248381328 10.816910984048496 0.34599463796582347 0.43113723337243814 -0.14163513117670445
P 8.858115611781674 0.8352140161334954 1.8296894073158962 1.3669665906863295 0.4105936048931315 0.5463167414607752
Ni 7.612990203515441 8.82022219207876 0.22190990338439381 -0.08078174733475764 0.09682568817149775 0.3654388627333642
