# total energy = -381170.6371516488 ev
CRYSTAL
PRIMVEC
9.21323296164760 0.00000000000000 0.00000000000000

0.00000000000000 9.21323296164760 0.00000000000000

0.00000000000000 0.00000000000000 13.48449772722737

PRIMCOORD
 96 1
Ni 7.633108183833023 1.9947017772398894 4.190779950092171 0.07080432440707161 0.5102649900435406 1.3594875087004652
Ni 1.7666558363323692 4.047188951270824 10.489199329041579 -0.5628671896202887 -0.567778510878977 0.9702042352493355
Ni 6.635600670253664 7.909560450432533 6.114343592089283 -0.3895961767058581 1.4577198474115023 -0.4952147805786374
Ni 2.69136959671561 1.4362416645981095 10.018024463634921 -0.2558139659146691 0.8664118859520176 0.5721550426801177
Ni 5.201063453743301 5.969963019207829 6.5718322000129845 -1.0955452572517068 -0.6607043497754362 0.39863694675188766
Ni 8.005626829951066 6.972353546227758 4.3851717938379675 0.4168933218589143 0.840037766833863 -0.028984560157808148
Ni 7.683099185584971 4.997782682889086 10.446831356196665 -1.2220445612282371 0.8462994314728586 1.3135066710949765
Ni 5.827471159072256 5.810620156085836 4.370811127706238 -2.016872050074049 1.9142786061808388 -1.6052291779807968
Ni 7.419692856781399 4.387636333640519 4.3580544854235725 1.6452026330499407 -2.085807953813814 -1.0205790881574617
Ni 3.236654786300758 5.559292375622995 3.88735133754174 0.1332412506860544 -0.15956137663782197 0.8244316848654899
Ni 2.996963318999124 8.24158693792547 1.456487743910661 0.4928766193637641 0.9940257631489655 -0.181581589662655
Ni 6.823688820044672 0.6162961822138127 10.28747190925544 0.4407770704550473 1.428540911854701 1.22023064794795
Ni 4.980775054943251 0.04851596316357911 0.3242901358211525 1.3832095349077533 -0.6169079214157762 1.2752771953001327
Ni 9.296152002896243 8.672821517358138 9.622051690506202 -0.9342918376234426 -0.4938112153628915 -0.1059919280517981
Ni 1.6026234376608481 2.939242414838425 0.6686337943871058 0.8825807824023961 -0.5454631352112284 -1.1877774125152512
Ni 8.919819078354815 7.570780663218957 6.910143954994898 0.4664482499689064 -0.06702351720840069 -0.16878469500830287
Ni 5.798292850456624 3.337889789479969 11.090796719475986 0.7399874010774804 1.3164737241431006 -0.506146854110109
Ni 5.080812337844587 2.465792802227095 0.2977237787345803 0.18271081817109178 0.7188711879241555 -1.439009672596509
Ni 3.638471513062219 3.2656396170253483 12.086586886441529 -1.5898143860876233 -1.0647074459352437 -0.7794065263050513
Ni 3.3536075648188604 8.911600874602007 4.009251622130759 0.011140075777219524 -0.7900915168227232 -0.5150860655812677
Ni 0.23444360983795737 2.057305694841158 9.569961914298101 -0.2743256515656114 -1.7481897128371442 -0.6650934799820674
Ni 5.021036882745687 3.732971642986606 5.315238442540021 1.7587556612784483 -0.581190927630141 3.4217798958908423
Ni 1.7071291385219505 7.0503619892490885 8.948542253264852 0.7651615863502628 -0.34796924519369105 -1.1871572624327489
Ni 4.133516943606938 6.4433942053533455 1.7172775145687196 1.1490738252974664 -1.569733299067032 -0.31204887714799806
P 2.031932451416008 7.255540686082091 3.034713619511183 -0.7636605763247042 -0.8840622520439291 1.0357953908865838
Ni 4.469376135989077 1.6666277666639406 2.346963288165891 -2.205755829825072 0.5103662915080952 0.6562386006945988
P 1.532860838091046 2.106918954043929 12.0682746647161 0.11724873191254001 0.3633516411870323 -0.5316413988367877
Ni 5.175892901442099 7.914130213954273 8.145472649595824 -0.5439513265523922 1.3062990976029438 0.22468999081635496
P 7.935440421667553 5.526456413543389 6.018347233140842 0.8740429201347141 1.514275889429676 0.5092172655053167
P 1.825417835811529 1.563706741862797 6.460234152460277 0.7848660067577257 1.308266762852276 -0.6603528799732886
P 3.29707516770313 -0.31981066198189767 8.910245608041425 -0.062105768191809164 -0.3572038764180816 -0.13295045891851295
Ni 3.4039118164896363 3.9005787760259403 1.6397822486202944 0.9398341075979104 0.4377858490372073 -0.19958162578450145
Ni 7.191177040995635 1.760879139299846 12.51935823312304 -0.4125201324918831 -0.5753133858034414 1.0536244486482047
Ni 1.1942929552343253 -0.07662830073190152 7.712229585389488 2.1267054633591247 0.471832139988639 -0.2689425328768271
Ni 2.5596387926151043 5.171102020330596 12.628366440905664 0.03875320950879778 -0.13788723409849798 0.7904118762766194
Ni 0.8538151691960384 6.222184483262623 11.200533693981532 -0.1797815603394388 -0.31801177959965227 -0.7603891046622839
Ni 3.679240068674524 -0.007570513479464662 6.6102891554889895 -0.3728649799941062 0.31345501346690535 -0.3494838820660046
Ni 8.558724841041125 5.522761907147789 2.5008353335878644 1.7926628555488546 3.6900490568497286 0.33583518093431836
Ni 3.74233228761985 3.6624996244829853 9.393786474655503 0.14130808685458887 1.3074224125741096 0.34342739145927953
Ni 2.4240292174608626 6.8152218590033815 6.267338537738535 1.4444874078816285 -0.5997728043973863 0.5960668163007089
Ni 0.6651521136716504 5.35279618648433 7.169396958404113 0.08715088408589507 -0.3818332449309876 -0.5881822713463095
Ni 0.8627059389510383 5.689143680210527 4.515944421716173 0.15956908994730581 -0.4991423977678178 0.13366805381082786
Ni 1.697353898407904 3.181633359381733 8.103670369251383 0.5954608072855939 -0.4598849949290918 -0.14117156127672462
Ni 2.5065337181406804 3.8486622085964854 6.034851818569968 -0.9141981521973611 3.3208522697358287 -1.5450581649178552
Ni 6.2333601347784935 8.516067572682939 12.006704471846968 1.001631086300049 1.0411905937602264 1.9285050341928656
Ni 1.2694821489861947 7.265518617320085 13.375327456172673 0.8549722766565081 0.8337928143654156 -0.03470243647819185
Ni 5.9170237829257255 3.8027895219538483 8.280358064643597 0.3605272843643597 -0.8796584665492785 0.7064561020892542
Ni 5.608362054084269 6.130881345156873 11.341082483297075 -1.134137258592292 -1.4004642082231429 -0.1990211252953411
Ni 5.307273602692149 0.9998108218060431 4.63807411580457 0.22928918015126315 -0.20337888804340457 -0.14794179012102263
Ni 6.590216284955084 2.112511386418318 1.9787555137249113 1.082531361490542 -0.5208877598647094 0.2272639221911183
Ni 5.724531707805298 4.6466295238817645 1.968251506887942 0.8352269757087809 0.030471429115979783 0.1426383756302382
Ni 1.5372555501875589 0.478857780327584 0.7639105998455309 -2.970977837099625 1.0808999965347061 1.2541344997842465
Ni 7.550658962550646 3.6056908303800532 6.7521195055018595 0.12037596468761204 -0.3245341540992024 -0.38294704682045655
Ni 9.444669317352822 8.506255479637264 2.6742320621857916 0.10707539092396398 -1.0316574574588104 -0.855445873858817
Ni 3.1101294587925574 0.7877857716000455 12.88470714139306 0.38171677395778136 0.41845475280876315 -2.1115961185215117
Ni 0.6839074918998921 1.286867519481205 3.7980170673081597 -0.8926597639049528 -0.42509385539183564 1.263027174288186
P 8.629666734422988 6.5602364250765675 0.4518989395191849 -0.7815289719646927 -0.08117384056685374 1.3902944667789927
Ni 1.3787050250955455 3.4750471877625424 3.059551574104451 -0.5161479311868788 0.8443014272062234 0.4571601397987611
P 3.1297075787193713 5.191481691520296 7.89555080847455 -0.3026736065806852 0.4233406201461548 -0.21182804725202226
Ni 8.825475573389841 1.6371085684307596 7.060523263821928 0.007623320873212677 -0.2430924045829426 -0.00017354946338679787
P 5.259650401797233 8.97181856488043 2.6039102193785504 -0.16706616965529938 -1.6407276279977228 -0.7450301057077103
P 8.462068814616561 9.294493620973032 5.534806366526764 -1.0622535850781123 -0.023237887482018042 -1.0810704606742993
P 2.3125951654538954 1.5689490713867296 2.55163065057257 -0.5969970414244621 -0.1645835124427617 -2.1162223044396136
Ni 9.139038742137682 0.6636135037762255 11.445587262834886 -0.4577887745216954 0.5908811583347114 2.4728870205247735
Ni 0.3202197295229567 3.2195089598613227 5.334709688965117 0.23406834670746143 0.08563444744136865 0.0035998015361163815
Ni 5.816369213419639 1.6017666070005219 6.8060979944558415 2.128400334563044 -0.615293782851121 0.3269152527368693
Ni 7.0667799702888905 4.268278901333759 13.146360191974479 1.8737168827083925 -0.5866720053493703 0.09051208724864412
Ni 6.879290680636821 7.416652489922177 10.03156238806808 0.3069732623973036 0.2722199180765183 -0.34597561180242997
Ni 4.568270978009978 8.208262674501809 10.744771645904553 -2.213862775202923 0.3384294240240559 -2.0938603918046454
Ni 4.981419981246723 1.3265120606788883 11.631215479439794 -0.2377275407266035 -0.9190475098698624 -0.35620088907486397
Ni 4.95565978203949 4.796022095464482 13.164969079799503 -1.870716662429488 1.1833168056407362 0.35918182608005883
Ni 1.928845588422543 8.671890980834558 11.133448459894428 0.9057831886607884 -1.3038817464107029 0.3572329298838041
Ni 7.24701844564336 9.029051167697071 8.328943127053975 0.8455936636550856 -0.40110083491134796 -2.865861626784561
Ni 8.349215924741957 7.547701514787584 12.016750581008473 0.9366163719915612 0.7248973395135774 -1.4400131741603586
Ni 3.1348393494484226 6.157949823436862 10.48255198149937 1.2638229307166042 -0.5894508536460881 0.45080642966659135
Ni 8.80856929100598 3.067978918244242 11.500617902986818 -0.05823960036818357 1.0523334977509233 0.8140202597241786
Ni 7.225118591024049 9.202895659414267 3.2529999828005978 1.1052324026324838 0.18529940483387444 0.8295898320276616
Ni 6.65994203159326 6.732680505391937 13.24524213546931 -1.4446517013736346 -1.2819597495266308 2.404246793648556
Ni 1.5558754938920716 5.429229166678608 1.7018112604881825 0.9121962912759839 1.4332709703405189 0.18331579874494233
Ni 0.3878688134639537 4.709850728087784 13.279182764174433 -1.3403549016360723 0.12693870550679429 -0.8506674786335673
Ni 8.537442273026565 9.089204365345148 0.42802192511808884 -1.0820204832923948 -0.6496270089153522 -0.2537527125102662
Ni 2.9719862445889635 2.0754741901332405 4.517508828663736 0.5512188067480829 0.08795486804442917 1.1766345085245542
Ni 5.080305610034716 5.802558577292443 8.904421002197786 -0.8925180961207662 -0.38803474575600916 1.6969273151177422
Ni 3.6580956991535656 7.162247489668486 12.746072861875536 0.9561675546506113 0.8739477893177464 0.2845750972077615
Ni 4.875191405832062 1.7666005569349288 9.090722706128178 1.0412433013750326 -1.708208030237884 0.2849725897564963
Ni 1.048806794404063 8.16524609006026 5.043108103497063 0.4406634276953185 0.7896508297408787 -1.2862033552943333
Ni 7.2376301613113965 6.4433665656546255 7.9328082010260985 -1.1046513333180328 -1.9893321927825676 -0.16386668888139522
Ni 3.942231801997292 2.6466854171179426 7.06022659772233 -0.45628185095886586 -1.3486119994385417 1.5224751374110168
P 7.306019989178096 1.9548637581511645 8.655618568874681 -0.4780878910903637 1.4365092747721584 -0.37371267270638225
Ni 6.810633669015827 7.184211836918143 2.2670679750452614 -0.8281515569192381 -0.6937592233478761 -1.015011364261697
P 4.459140234229695 3.725794534552259 3.5077357381156404 -0.757007846894877 -0.1561351245650924 -3.235113435506112
Ni 8.772204660723094 2.1506725971180165 1.205329486933304 0.0766003622635584 0.05867643079528605 0.12433983443136651
P 4.728360112997415 7.5876408794382835 5.109370595885596 -1.0484660443757168 0.06451129230950825 0.8645064413991885
P 8.821992971351095 6.5994203046289135 9.328723545191425 0.49423827559798106 -1.0320829750320033 0.5064098779635084
P 7.75151665315039 3.8729022243741067 2.095464141570985 -1.2017565004031627 -4.12646322235039 -1.0172585084246608
Ni 9.072869303401506 4.160963164436103 8.985071800416769 -1.0017223604622747 0.8263980645632413 -0.5979907727962992
