# total energy = -340860.1557504016 ev
CRYSTAL
PRIMVEC
9.36322986831504 0.00000000000000 0.00000000000000

0.00000000000000 9.36322986831504 0.00000000000000

0.00000000000000 0.00000000000000 13.70403336205530

PRIMCOORD
 96 1
Ni 8.286917148226852 4.248106711682258 3.8832019846079247 -0.9215458508116839 0.1383934843109552 0.6270100428467846
Ni 0.45811567947425513 3.95831475017773 8.29732625076658 -1.4599471940801243 0.03310192476029138 0.056452940781405996
Ni 2.4598234571507613 5.010545148947273 8.077239789637387 0.03660248171438213 1.941488076716095 1.143638770324824
Ni 3.6421372071701406 6.130050353642827 6.411473460375376 0.5598510285017843 -0.7174005169159 -2.6067610196988205
Ni 3.295089095597755 2.217577976438479 4.786311713351186 -1.2384983359088864 0.03259618876846644 1.2014708508419436
Ni 3.098395727735861 1.066537413864177 13.274480249693903 -0.9205824584571499 1.2454603690490162 1.708120098509768
Ni 7.79946740619371 1.7667665525109018 7.810490736606611 -0.23754396396088767 -1.0560207167945233 0.3575790003693132
Ni 0.5393154807201216 2.385376417217886 6.665943573880561 -0.7990885781150108 -1.4311485246808773 -1.7748119434103626
Ni 0.42894453711343583 8.301673598350636 10.944232656739228 0.6990220144087123 -0.5408755158405459 0.3570969185265721
Ni 8.153893742827988 3.4925127953820185 10.088196565684624 0.7422947090544184 0.2706268625577855 -1.0648154322680177
Ni 5.634791677978191 6.313579020442512 3.7727889064672557 -1.0596755399382911 -0.8810897996791663 -0.6764271598273318
Ni 1.6445764039605273 4.205541469129768 2.798089795518136 1.561849525443581 0.5358852617148061 -0.16879677919316088
Ni 2.62569307259673 8.111843477913066 10.04682419860534 0.2689818707551948 0.8555767430097265 -0.6940456442400434
Ni 1.2898317175139342 3.5118197751759554 0.21720633165071862 -0.35228612740149007 0.22632418398566828 -0.35766770342837756
Ni 9.251058281282837 5.603387405316278 10.05681476477417 0.1223927380073247 2.4413663242086727 -1.675599243063927
Ni 6.978424513773385 5.589679636927179 5.61107555328369 -0.12320623504755554 0.7365485505992606 -1.6998583727216077
Ni 2.098468330483742 4.215522672068825 5.577541145848198 -0.16462156476954876 1.0499349156117597 -1.327697617883378
Ni 0.7192730116840126 6.060032121393042 6.350476700012815 0.8264782829818734 -0.5171216079540578 1.1633426765116546
Ni 9.2278655611327 2.7436604045190416 2.523241548732872 0.024786977136692794 -2.9945743934726425 -0.9463207437635186
Ni 6.1103313917388355 8.288096915178373 13.646503840365389 0.00526947592905544 2.5464460248588465 -0.540521732045553
Ni 2.59325884465968 2.953228213320151 7.357366594924862 2.4906209474694267 -2.6137315374793824 1.2272451315925703
Ni 0.30526001709113487 1.0516686049831045 0.7927238039689374 1.5761294324013628 0.12386520878779311 -0.24326801092885847
Ni 0.11662558109570113 2.0322796592115124 11.822030766434503 0.12261153888635012 2.0490224095543486 0.015287008066057543
Ni 7.607905088247954 3.3789180917641533 6.176859948251861 -0.5559982304145973 0.21511186020961662 0.03081055762295339
P 4.74382418560582 0.024516680840176292 1.1505705284396484 -0.22982782626355255 1.352791584737528 0.17531298304512388
P 0.2997347752015122 4.570922784599596 11.72170375940636 0.6466802675822024 -1.3220967267568329 1.2343010099980871
P 0.7978829435743976 2.85554163708827 4.43632448395275 -0.20558078079072983 0.7593730046929439 1.1430546156865797
P 1.1338215830199618 6.932703862787065 8.41176832667899 0.34156848387366984 0.2885068281619999 0.6522371928446896
P 8.179108920609302 2.575365712561614 0.19366810832192274 -0.015069749848928884 0.20606337685410317 -0.8735641807260826
P 2.3517624223293154 0.6057195062771527 6.030774837318302 0.63625830091793 0.9836914711024929 0.3432834096822475
P 3.899766474401064 4.975732660647634 4.227187383721243 -1.010924338676517 -0.31925773619161146 -0.017887936024014357
P 3.051289318742992 3.3395457105645883 9.752735450957534 -0.02476203743602832 -0.03758310046009656 -0.37095567878653535
Ni 1.7227125564243493 7.836751787153679 4.5341711714137665 3.703136486161306 0.9673420832101921 1.3543375890684095
Ni 1.2881650626141667 8.623216272018713 2.2147502810467383 -1.1915625905892964 -0.982893914901862 -0.306464183971369
Ni 8.983578896329693 8.90224051928317 8.811063260390156 0.11079911963245433 0.5121629783972017 0.24611807878314387
Ni 8.956425529985165 8.114268554424525 4.443025747501984 -3.182765003811383 0.7003188788432648 0.300459886758818
Ni 4.402787267548326 2.526152576869601 11.59054270040954 0.8587800804383725 -2.7922604563586426 -0.01031140922833708
Ni 7.244892669910941 0.6267961364983705 1.0499045724936877 0.5067045263857919 1.1632488312462677 0.211683551254358
Ni 4.813655153260125 7.140857823892305 1.7331488123304217 -0.8804675927141353 2.538572535648041 1.3980764247172568
Ni 6.05991039940598 6.877685524635188 7.385363588272025 -0.4869512550182646 0.8256583581837393 0.12089198509208213
Ni 0.9266039448921197 8.578272769103634 6.661681431687447 0.260552509040919 0.2348443056415375 0.14122401178121485
Ni 4.771277175303115 4.050776644195734 6.040614655487772 0.5666353984134693 -0.8705462198353652 -1.0197784466330373
Ni 3.1765599698890044 5.425804389423067 0.7866255324171474 -1.4072472925832473 -0.6486193935864443 -0.28910178143352144
Ni 9.037782633491235 7.9203841554948236 0.470088441386237 -1.2163182002674213 -0.34238892289243616 1.4004341263161557
Ni 1.0367529799531623 0.7259415039290378 3.893192550776756 0.8197306798453947 2.1727634340594517 1.8719957862522276
Ni 5.09634978659598 9.266498247180122 7.0007052553435365 0.24199120109896388 -3.1537115380888525 -0.3868263272702048
Ni 4.550979105181029 5.898722398846999 8.896507413692566 -0.7665697795516991 -1.248840341264843 -0.3853615697992202
Ni 8.94965591485858 4.646156335833486 1.24901271731429 -0.504113625730164 1.6963243914264206 -0.0012282159801462718
Ni 0.6126389330801203 5.934564842421776 4.152280609206465 -0.33084364125699794 -0.7295525788974017 -1.8573602957272397
Ni 5.521084615603037 2.080088310437429 0.0718150360434113 -0.4256132182304154 -0.23468695412806678 -0.0733700282517188
Ni 6.333681874767237 1.806419830603686 9.706745138953725 -0.5898493746360873 -0.014931681609167831 -1.1157559278716267
Ni 5.1929034120252116 6.120958657532298 13.620836418585993 -0.08737636983313986 -0.6342752090496303 -3.8290290097917734
Ni 3.2445463812778375 7.797042329682251 7.704791108334161 -1.762125606191946 1.40745632327026 0.2096474946609357
Ni 4.458695112528731 4.620725803767369 11.014931595793582 -0.676345398746803 2.018772095310239 -1.0337842739938259
Ni 4.352394364904792 2.259160079864702 2.7216755410097484 -0.4070470251924538 1.3217617120149172 -2.6740336768035498
Ni 6.377717144394241 8.757943785236442 2.8126159101894808 0.3322541484512794 -0.6523752610844507 0.14235529717218062
P 7.667548861908175 -0.05609979119077157 6.508593561205933 -0.5488593053769709 0.33278508125408496 -0.1782540679513188
P 7.141269806002359 6.814867616081589 12.7671570524655 2.3964396388993117 -2.005935091446571 -1.6494079293805401
P 5.425879295261259 3.9407961472706226 8.060698707918682 0.30142867842999055 0.2101483455567542 1.0957144358397195
P 6.198570469128777 3.1438916612076055 3.7833543749442096 -0.2199969562160598 -1.1956046218691538 2.0892840852878725
P 3.4554063157877555 6.9991734309525135 12.339385728042743 -1.1172242848870373 -0.2865139661016872 -0.39140906154488075
P 7.670648090963362 5.232631595956188 7.499094058721613 1.3516279034467302 -0.6276222225094868 1.709686414555623
P 2.30577023767955 2.2282614216105845 1.4677021845612062 0.5803617468606262 -0.42971798442740833 1.1190587669926146
P 1.207369752894536 0.3149069527272613 12.435423439511428 0.5142180611540177 -1.2318841730264785 0.7242064840941398
Ni 2.270985839069233 3.5169320986325454 11.827717992199213 -0.15194808306693833 0.6900236675648439 -0.3943020668219596
Ni 6.839361825170307 3.2179079925708782 1.8314346352678381 0.975419718012004 -0.3696169053704538 -0.9788629393655981
Ni 4.232666745784973 0.7411801603861821 9.625520993310445 0.1712994910103566 0.44304478344330145 -0.7973826511674976
Ni 2.093009567525515 1.2924440586208732 10.670467735638812 0.4665546936397836 0.4968985960389636 0.7329978571335247
Ni 6.050444174104491 8.00295847887151 5.120785943660101 3.929106115021033 1.292257017687581 2.916074500193526
Ni 5.0967336790167135 0.8769760181211198 4.242056192602315 1.6295872951101869 -1.0933947865676075 1.8767628686235678
Ni 5.079870502193784 1.8888068893848926 7.436753674886487 0.15400496559596702 3.416512733954632 0.614260199380284
Ni 3.9211240015155013 9.140375542124678 11.695419300784856 1.643750731094763 -0.7598738555887623 0.25031874712805274
Ni 8.449640718468764 7.38207334932945 7.284543139034794 -1.943271393868763 -1.3478586662122851 -0.2748501566105137
Ni 0.7528308271939392 6.460563001434372 12.873541132834427 1.1227053626062664 -1.420629113206792 -0.7048175380445667
Ni 6.975999437261925 5.8406329213292585 9.502760624066834 -0.36340074925741284 -0.49330033716474403 0.11050010033479679
Ni 7.805637774614759 1.4991467191111467 4.496553459473844 0.12493195948941063 -0.533509819504094 -0.011392815217973928
Ni 2.281257302131283 5.980116955272165 10.493383779892554 -0.13173715533670213 -1.7014396011657988 1.0469136122869325
Ni 2.0019521579736073 0.684730184401864 8.53280211635228 -0.24228482107998275 -0.2209886307053678 -2.34195487758787
Ni 3.3980846231114805 9.235758763832163 2.8258124462329213 0.369785312627518 0.36244661287425967 0.1349608044803224
Ni 7.006308212040283 6.245873505946898 1.2732091756961963 2.3540334060189587 0.5767462615952261 1.157433253005755
Ni 5.324681507864136 4.8539076780584445 1.9708999427511964 -1.9524592310156184 -1.232665274166877 0.3676394699291088
Ni 2.9659809322723056 6.597116344458025 3.0116809841531227 -0.25275101071862915 -0.818499635651771 -0.06959976257600917
Ni 7.185651515131002 2.3141971444761276 11.67987914832899 -0.2867777612860351 0.9785698336052115 3.366287262140176
Ni 5.07634992779877 7.0451562523725055 10.896789171474497 0.8832937493090208 0.1329460880431388 0.9361826268882523
Ni 7.475715010298975 8.092143242468623 10.776769419585728 -1.1614799122713029 -0.546860015558755 0.40245503494639717
Ni 6.622350248698888 4.680360214197816 11.89182521749269 0.7185737112883946 0.8317775837075997 0.33222869452998266
Ni 2.7448869876194326 7.929035779805977 0.5070282554905234 0.22443802270654892 0.25235454661115897 -0.7709257425275498
Ni 8.40633578076413 0.04720285025954046 12.627376204138757 -1.7229684763765103 0.5788874763079449 -1.0941717739429477
P 1.1380631261075724 6.578034082178664 1.527684907139245 0.13294685937408718 -1.5486080870526426 -0.2643060625460803
P 0.09883357187919374 1.5396801408026848 9.274560924338491 -0.03460370611679847 1.5888736194409088 0.6688938275647642
P 8.694432997679568 0.2289197320979614 2.7099995934816015 -1.5005785944482415 -0.2708340934725852 -0.4746374706479181
P 6.166229873489467 0.5537198734044049 11.658280986209363 -1.199755925033366 -1.5471199325428904 -0.2966716233609794
P 4.839956465695222 8.102929683168242 9.034027978351869 1.0842198049365586 0.439750686073062 -0.5419610355952408
P 4.793102863906251 4.131862214038358 13.189104447968843 -0.6301987249874115 -1.9524036951873343 0.0466413540076229
P 7.780769036335082 6.380694651462366 3.596390339140453 0.5869987925611696 0.3525470943723606 -0.5041079693032092
P 4.224473919732745 8.059334485340614 4.467336437287133 -3.083058394547664 -0.1971064247711315 -0.7715476923822647
