# total energy = -381164.8795988842 ev
CRYSTAL
PRIMVEC
9.29834091334568 0.00000000000000 0.00000000000000

0.00000000000000 9.29834091334568 0.00000000000000

0.00000000000000 0.00000000000000 13.60906181739044

PRIMCOORD
 96 1
Ni 8.709551457129356 8.473671142480717 9.194485975964405 0.6603184271909274 1.9578665180741184 -2.0566498441926195
Ni 1.9561570858891768 1.8547772738971355 13.121013591805038 -1.760142514323646 -1.394443713060676 0.3594890729078325
Ni 8.77304052952059 1.6333279844903246 8.348751650397045 -0.06288249845683364 -1.6964285211044525 0.5150783522717839
Ni 2.1307985266701106 6.6515868355618455 12.971504636930119 -0.6937576806859794 0.4107869518508602 -0.5192507384819187
Ni 1.0628933604338486 8.192814752384448 10.577316653744136 0.5682855324223827 -0.28473630537597416 1.401665941840728
Ni 1.3560886490455197 8.364285458882222 0.8254220996390267 0.46976188772317157 1.4941132984388719 -0.34612499289610066
Ni 1.8601796100218146 7.624239796529239 3.2120105487205346 1.9507206510579567 -0.4748709268149628 -0.7721817264218378
Ni 7.880781024893948 2.7331357587193126 1.8134480077921895 1.3197943038759012 -0.620526234894654 -0.6566124390942498
Ni 5.045391410127999 6.177055300644681 2.401645252673062 0.07156897048723802 0.4307819069155484 -2.698493866728443
Ni 4.949841657946928 1.391608311689709 2.585545051594001 -0.8138906761248499 -1.0897638746832392 0.4434011383414557
Ni 3.957532004092148 3.75990506434356 1.66246898520417 0.49343994806640173 -0.0428975706944745 2.2343534389571067
Ni 2.648334888741562 1.118190594398507 1.8329633658962796 0.09999508703841488 -1.5364208009578313 0.010245331877092033
Ni 4.5303934951512765 7.39753694445385 4.835503677928462 0.7132944651673263 -0.23262595783398005 -1.5780222785487015
Ni 2.0575183011992055 0.4314188470072037 7.159849962147682 -1.437662928760627 1.4727723708692508 -0.006097885367621757
Ni 5.973096190670782 2.1046051000552723 12.110786034831055 0.5298598814563327 0.08830736628784146 1.4215050880538422
Ni 1.451731384636654 5.859042739887109 6.649020493444098 -0.4506614194482948 0.2718381092570673 0.13842536599015515
Ni 2.5864358326624073 2.4691837525725564 3.729781228985346 -1.1787117027685572 1.8136088616729025 -0.562800083827779
Ni 1.8294857863599114 4.638124074050642 9.27970620112154 0.9249954999231811 -0.2597845205266429 -0.19213982479447556
Ni 5.422467032957794 6.340603820605061 6.883940289466782 0.5174288547818314 -0.089770066876297 0.24407996530719256
Ni 7.959974995244881 2.95783946747834 4.472563393096493 1.5415596648462935 0.5988657192020848 1.1403274465634037
Ni 9.392533200726477 6.882390256021027 1.9283494672756394 -0.5261572357937648 -1.0922961541867897 0.9814407273951034
Ni 8.078975163443921 2.0768867455153956 11.01750197665211 0.09010945249358673 -0.290008609518507 -2.557124844728931
Ni 2.6064272658260217 5.658282259219388 1.4057073861576108 -0.9938522136855787 0.11872505934775036 0.11496636363626651
Ni 1.1333468902388288 4.494427512138783 4.848255422784545 -0.14787699832135823 -1.96477532937881 0.733618264326343
P 1.180461584117915 1.0495874344537872 10.96207177641106 0.8720042924381305 0.7920398987983456 -0.40907099760101806
Ni 6.9425598206730035 8.903356778724339 12.43063966710788 -1.1847946757378434 -0.28590178643898506 0.16668590349774517
P 3.0936231411938104 2.2873453958527215 6.035959484712293 -0.06898835424425538 -0.5259088672283846 0.10852317911408406
Ni 6.738712290791179 -0.36036371453911387 7.663263074064615 -0.4989073989388763 1.451094885895817 -0.5973379697036486
P 6.725880580202441 3.879676994846127 10.832963381704035 0.41632973604596035 -0.18596197811853782 -0.4609039231119095
P 2.312088281270572 7.742068373761482 5.323293717286555 -0.9444785483484573 -0.8575179258964974 0.39093315034972675
P 9.586310627298442 1.1889509694566962 1.0191362974921494 -0.4462380935696186 -0.46774794261693636 -0.6422507710559391
Ni 0.16428122923167837 6.662744844769444 4.717240868171222 -0.5789959768613512 -0.481117679055623 -0.24503975811730058
Ni 1.4400898616967261 3.042249807133824 1.651636417931793 -0.5052091727871879 2.9280663824480797 -0.9128177269100667
Ni 3.920775662094116 2.955914710890029 13.25857417848682 1.2781097796529215 2.2120645456519195 -1.9357640297481242
Ni 4.821208408465326 7.903413186903361 8.910968400672123 1.434717472979058 -0.31275104542134524 -0.06189622328416438
Ni 3.0098078953627314 5.102548312293924 11.541423509492608 -0.15101168729559797 -1.1701550714477975 -0.3341230833392181
Ni 2.6500085901227015 8.95705469803591 12.331307349805433 -0.026116494581393732 -0.9536807836730156 -1.5243702975512003
Ni 0.838736394125994 1.9670454432075921 5.507424115064451 -0.33437633700060476 -0.3015893723775709 -0.1276555290681608
Ni 6.153046984166331 3.3108230887607277 6.090205076309135 0.8898346357513319 0.04345987095584773 1.2853438355075153
Ni 8.784412400571338 7.210575201839526 13.172633331901691 -0.03347756293215525 0.9172922177416525 -0.40786952109374913
Ni 6.476220124182418 1.1329749565985754 0.7811210837484569 -0.2690114384415496 0.11840727099701542 -0.6554521002375615
Ni 1.0309442607360908 3.2980936599230586 11.572915130812856 -0.5364359920119536 0.19048994789587836 -2.1146693581301967
Ni 7.319709830230848 1.0343753485674274 3.6901786648052752 0.21135290738781665 -1.150004821752168 -0.5666778216156305
Ni 3.07121413936855 6.873612622111049 10.156646688940251 -0.5480031280242627 0.044991991329658 0.8631972356694617
Ni 4.526320821790502 3.2285048758316677 7.684655767217883 -1.3041982492098572 0.6506983876026601 0.820215075680981
Ni 3.2168354578687204 6.436962528453683 7.9388733401651095 0.7439060194055962 -1.2167059226241432 -0.8711098056483191
Ni 4.576141332902431 2.867729244785973 4.57470009004645 -1.01802032629135 1.6854149436027683 -0.17696388838498553
Ni 3.3986366212245303 4.554271634855538 5.986244974687836 -0.03723034510636814 0.22715362186549912 0.40424812229107804
Ni 7.253180200330542 7.159080989346458 3.3635614192804435 1.3307124934503018 -2.422676975329286 -1.8898353855368095
Ni 3.1482229995829942 9.127855923981228 9.638182352436369 -1.7854676233519962 0.8749374069245255 0.8208768776346961
Ni 4.951905889650333 5.273944632063648 13.069626310233541 0.10279887503579715 0.1445728736487897 1.1465713705905867
Ni 6.298863567827635 7.354513520617551 0.39411948189440216 -0.6216444076594971 -0.6100947551486847 0.4895529543071698
Ni 8.466771773454019 2.760500776300949 13.084772377898755 -0.015559802111469978 0.6395040615487373 1.4992400781424762
Ni 4.555340944071266 3.657930158527114 10.769477098815099 0.4305785326554907 0.542393238036653 -0.0012901795663332618
Ni 4.828805153067499 1.5354164536936452 10.245514653274173 0.09372390931772245 -1.3389883603058488 -1.0373259685984972
Ni 4.292411755435206 8.389986073423724 2.143985433885291 -0.545426625546338 0.41784103048416427 0.1556892952769254
P 8.04204215296677 6.973021185809747 7.257971635451105 -0.4013895697963603 -0.5270897749103632 -1.640105678143008
Ni 3.327197467272879 5.436414544467292 3.6795227660120187 -0.9673027453318244 -0.9352488022200732 1.0392733221328552
P 6.032466097996214 3.5529611869066278 0.7693856475643649 -0.06312238238178161 -0.41147420772587195 -0.6855972563623741
Ni 0.5382586448381634 8.912264589408405 4.557184805092822 -0.39047883642112746 1.5884565865081481 -0.49557987722754
P 7.554585924050803 1.6232764778624793 6.139346808527602 0.47272585544750195 -1.128624813414495 1.1227089621506923
P 0.9112160324362538 5.924437972184645 10.786011408792561 0.6500131886101773 -0.15513008033934575 0.6612728206843966
P 4.0063296976933795 7.647420560658025 0.11125836947716887 0.007044051330974965 -0.7852051352646993 0.1743447055945836
Ni 0.4225975108944962 1.6139130484691027 3.155492442581745 -0.6638521513757986 -0.7727823361203142 0.481411556146958
Ni 5.739094140905422 6.835061700298795 11.404789037575059 -0.3782779234795614 0.5004624021308219 -0.6014437643419062
Ni 8.374132402007929 5.296725567529162 0.6676301825956678 -1.195383249886967 -1.9002825490120627 -0.22093232354613565
Ni 4.8176750388829195 5.399072406985861 9.234783126217646 0.9096640117724335 -0.10964212320987568 -0.0559196939857553
Ni 9.248343826741282 6.047045896694143 8.775490642375761 -0.24339733741787115 -0.859152890396759 -0.5269925872108666
Ni 5.3142157469620726 0.9680037904642274 5.404866203266907 1.188871159800062 -2.055336524697834 0.8450750721474543
Ni -0.3438294045616538 0.5393818844317284 12.406157135238207 1.6740858917431944 -1.228782394172703 1.68261089849507
Ni 3.0079203321384456 0.4361823871047477 4.573992486295868 0.18610878810904724 -0.8687513327184716 0.1929018997714807
Ni 7.333917695288525 5.148714575390364 5.371646020353584 1.1292953571189583 1.5566229869373192 0.7064509598829317
Ni 8.901906237527353 3.4359973553879737 7.107305037120897 -0.44532895149178786 1.3299846141453415 -1.7616226984135985
Ni 6.997429330951371 7.063782292372557 9.061661964191249 -3.1862007689658096 -1.6059382882326794 -0.9125187076124092
Ni 4.0804002821498235 0.8760720227687202 -0.09487562245811194 2.283537099770609 -2.3998422368229573 1.1424758603649743
Ni 7.1575560614214195 7.940541462541646 5.45445797519008 -0.36976037292685354 0.1457625230815167 0.6823041874333992
Ni 2.6643745269774852 2.120681931655221 9.523649107256768 -0.3626062783805755 0.46750600180945934 1.2211696148224518
Ni 7.203824606268928 4.7525959501796 7.987784473526619 -1.4623794576707008 0.9875452976309446 -0.4352175740893989
Ni 6.442420654624399 2.41578338017319 8.681002760737613 0.9038751730047982 -0.09359252594618074 0.4166230989166631
Ni 1.3585806044352167 7.7176602286198595 8.13225837674661 0.7142164627609635 0.9386220895676802 0.23981759048641274
Ni 8.640046358107021 3.896841732343817 9.54575033399472 0.24494102775590723 -0.5301038791463386 0.6011650567592227
Ni 8.104768761395487 8.794938122590505 1.5417160797254352 0.21506095236702316 0.7272730388346055 -0.13316591736342873
Ni 6.039244588589829 3.2856803746796053 3.0397336760575113 1.2332100909267536 1.9285263743491043 -0.5646674760538211
Ni 6.854597514753099 -0.0148401522461064 10.161260525747595 -0.9789015059130175 0.7010763258345797 -0.3206121933369769
Ni 3.723715921146915 8.391027487616434 6.753918797672935 1.4732295130113273 -1.3812027888903697 -0.11788919371001631
Ni 1.7381202876316901 2.7814685352702284 7.620149456320553 -0.07474402578110999 1.2132233633921814 -0.3389230758310227
Ni 8.189671913124307 6.951737283246253 10.791741046520661 0.5864724877440545 0.6795009136566491 2.8370243908378945
Ni 9.048661953630296 8.809006512533086 6.665296309541581 0.10126084112471592 1.1449238076848345 0.9702952523012451
P 0.9165635083489956 5.046470017684733 2.898417489443272 3.295634889929937 1.2433816321431166 -1.6284968902594859
Ni 8.52882890133028 4.973729095992195 11.885650883049333 -0.6094733195146019 -0.7003150221885229 0.18961911525515085
P 2.0758918230277184 4.12766374948501 13.191359260854343 0.2822384786547849 0.744043573424725 2.011611058785426
Ni 4.317238325922114 0.8937974502290915 7.921494740824274 1.105538878129309 1.2938017364668815 0.010476216940975506
P 5.803773400945469 5.268616682667019 3.9940010273530837 -0.40614713908600375 -0.6513393636207686 1.53475061234426
P 6.030336777905763 8.73083535969285 3.5686223826635937 -2.7279147430927213 1.0867731674860317 -0.11842501160882829
P 4.843663901995618 8.934152884137314 11.269841284716057 0.0666530212428594 -0.2647241239201054 0.11828771470001564
Ni 8.304627302985594 4.596235047817116 2.9783980994433406 -2.0330296336705183 1.8991378938846584 0.7046876973349219
