# total energy = -340871.64099987264 ev
CRYSTAL
PRIMVEC
9.17218448971941 0.00000000000000 0.00000000000000
0.00000000000000 9.17218448971941 0.00000000000000
0.00000000000000 0.00000000000000 13.42441913931851
PRIMCOORD
 96 1
Ni 0.9358288256840209 3.385425830631439 4.605233747447593 0.9637646502715789 -0.6741049394520584 0.09672130138314955
Ni 7.93371040092558 5.627749807294667 12.884945551977989 1.0750221975976904 -0.7597203607300335 0.6131636238819956
Ni 6.253999057323854 6.6813678280059285 1.2046802327047674 -0.36080907727083666 0.5175952051563667 0.6825787812510244
Ni 6.796350334536179 6.640056308429329 7.737271557127155 -0.6831109996054106 0.8904139052935697 0.014085788669104773
Ni 8.647003683099955 5.254065833255986 10.560829536089102 -0.3472321099173504 0.05540393069160136 0.054562665737228615
Ni 5.037822408402988 6.685513655458998 9.74501416020526 0.9376016187229658 0.8774827990541986 -0.08258357643018681
Ni 5.021752740930031 3.6915199761266133 9.620301800218781 0.5023747886621864 1.1801844306593416 0.2658412682436841
Ni 2.0775181632191053 9.014285472266419 3.8865573101134703 0.6217811903476776 0.07657953632795199 1.1166504146614382
Ni 3.8056586416708402 5.352786056436034 10.990840813163274 -0.5206306495485807 -0.805598868429703 0.08995904295865152
Ni 1.809176729663825 6.37643854995885 0.7380554290218312 -1.6180484412326523 -0.22632161288250696 -0.7996133402702293
Ni 2.470124354150888 2.191537590363134 2.641013160442081 0.3134447290542602 -0.77340557152661 0.237622639717623
Ni 8.579303788340878 4.79205372122382 5.922840082888412 -0.3238222156338423 -0.9414474748316173 0.22141003451350255
Ni 6.4949431753872835 4.223249863536605 11.495182557266045 -0.28569044175912733 -0.06909505502544876 -0.8486789874486287
Ni 8.827200422354366 5.6796460279350764 8.146716044603947 1.150350635127361 -1.306917190802917 1.3213004561077824
Ni 1.9107861910025383 3.076846023101349 0.32160889579797575 -0.5501497420536203 -1.6326998725972397 -0.5485507729976166
Ni 4.860835933769317 4.967114037085048 5.446810121085172 0.4121357525692708 -0.5609031239153824 0.017982552620349677
Ni 8.897899621487674 5.2085809696724255 2.8585553666387833 2.283529129350809 0.5743026851507399 -2.070326056128131
Ni 7.475568950807563 6.216970947969785 4.18629788331497 -1.6690773827850092 1.1260969047863187 1.0184887812873362
Ni 2.991416295451162 7.445080609095171 12.083037959649655 -0.10163082286962496 -0.41475159292556313 -0.5702866220128113
Ni 2.601919475109181 4.234073041400812 6.243710617823617 -0.8683798083116658 1.6750922215205215 0.39455814869682365
Ni 5.603947988178043 6.509838803227513 12.368239702993057 -0.47103946888401454 -0.5265871242423318 -0.8523698060366546
Ni 2.5877943107779284 6.589985352530427 9.0978899351751 -0.9563362190179918 -0.4770651062528042 -0.28500652831822526
Ni 8.167344287838354 2.974135899606954 12.811111300137911 0.5869167743703246 0.22985096619200412 0.054961186727227926
Ni 3.1729430014770217 4.825981632172719 13.204232050627475 2.683825208972675 0.2457100447114478 0.7713270917310265
P 0.5021936184622645 7.469570342059096 3.2375803037879125 -0.92136613070071 0.5674383539307389 -0.13302913467524832
P 8.235631202413794 9.09787159080584 7.411151780927808 -0.9224789041489146 -1.1509432744060373 0.057070776871062996
P 0.529652387591142 1.0976903678616952 4.5822106468061135 -1.3902487011427218 1.0000123197497035 -0.4161705847602768
P 3.930813100956519 6.875148572698381 0.7476853056655858 0.43818719824068403 -0.5634287185507135 -0.021879830792226836
P 8.143322336290593 1.2736403856320995 1.0733868302457727 0.3814619776344979 -0.9848402399949555 -1.3533677689559724
P 5.42774114923798 6.871754864385029 6.154451503090119 -0.05111918727331842 0.7569366273373094 -1.2150329057970946
P 7.468212858733755 7.689812839411071 12.742485931949599 -0.675068074696276 1.1992252493408766 -0.4357521064366302
P 0.20679790912031942 4.434485275581249 0.7788633956622056 -0.014088873992898316 0.18357830837770964 -1.262089492965265
Ni 5.712317349589571 8.703651095379056 11.068178839532273 0.516336393048601 -1.86208289801389 0.5261569786834487
Ni 3.1073985701061564 7.068259747912795 5.617246738674072 0.25675756077486106 0.11083691484892524 0.05966193463700693
Ni 3.716862722261192 8.959600907498283 2.1640302086557135 1.2577435572917437 0.8586471544049341 -0.8626177090169079
Ni 2.5911971912759117 6.99226819824758 2.7741969501534594 0.3223988529237544 -0.778818257901749 0.40013332879175606
Ni 0.21101069352119245 1.5522638381583762 8.636331846282154 -0.012047160972521188 -1.9414317695568628 -0.9082805011613455
Ni 7.995576786259542 0.3682476202080759 10.606378604965077 0.3718254829859983 0.8852945817891335 0.5362794118294313
Ni 6.601872503811793 1.3231243217146376 4.175383900822919 -1.2439259346823608 1.7761846553881733 0.6589336310282586
Ni 6.4453583452738075 1.1501369195799442 12.893818723389712 0.7099718285519967 0.5717071565094218 -1.0263316743705226
Ni 0.8087271116012485 3.5888190248168486 9.351209164742247 1.8850191950950892 1.3865671385260765 0.6747466868011154
Ni 0.5387190920985728 8.194365543760348 8.743297863445187 -1.0151748864227548 -1.1032647373831517 -0.2920595785102647
Ni 1.6119564157348654 0.01979265721455222 10.920268190177868 0.09044935233150873 0.695126536009048 -0.6560781638573346
Ni 8.018470559097727 1.7759000438237047 6.346662886992262 -0.1871112612316326 0.5723087946491628 -0.7870928392057155
Ni 8.746017416188185 7.471918421324551 1.2805296135082056 -2.0528171007100906 -1.3473745274870148 0.09681386109695585
Ni 0.6474553408953273 7.873724313440909 12.765374201477009 -0.6138683632585041 -0.4187859108959368 -2.1054493821938256
Ni 7.789863029362569 3.6583166677635384 3.982810215627864 -0.49852816122258653 -0.7077244272787167 -0.5028059626623341
Ni 7.77538014983072 7.441008159119147 10.052984017457408 -0.20333132263492076 -1.7216538713301444 0.021095387217718507
Ni 0.689765711378208 1.0959659971511266 12.945583781789901 -1.4610291142903935 0.15225250168123455 0.8899675617847705
Ni 4.51096295103189 2.8075690267137388 7.007922365756769 0.9456584275891713 -0.13877709290261905 0.34078635429200665
Ni 4.752549122019467 8.688351891415076 4.523250926781616 -0.7243509800918041 0.9182365839327927 0.9657479992501948
Ni 6.073811490254075 1.6987527988950246 10.597948450071016 0.1497724155718582 1.4646561695200195 0.43231299884809415
Ni 1.4410694438805984 5.06990671024112 11.711799290033511 -1.0351271611749655 1.6922268243182792 0.7049782319921472
Ni 3.9188434000134764 2.974603681023119 4.720348333436524 -0.29354464769622346 -1.0159516166877791 -1.4715654950453432
Ni 1.1714897654001757 6.060649405309044 4.661790355098851 0.037197949206535935 -0.9115311468881591 0.3792845103672049
Ni -0.07760952303406654 2.218558846285128 2.714672223555712 1.2227444155087392 0.11002547469122341 -0.08912034910744006
P 1.4677421567866265 6.129734299947353 6.967072207067093 0.3011371153315007 0.7233341087915155 -0.10169021535265067
P 0.40169032259001153 3.187049821439013 7.053511792245118 0.1859447517273572 0.7109712163507885 0.45189220653160245
P 0.9467253810252731 7.067773622127368 10.589786122968171 -0.5126262911868655 -0.7592825018616666 0.7224637903714203
P 6.92745754164717 4.831824313782465 2.199899871090928 -0.3407801836444196 -0.5109224211218812 -0.14769753532070048
P 4.64070350263291 1.6186979714384178 3.109269695770816 0.07992531287173331 -0.19584761266336592 -0.23359963460115896
P 0.2428922900789857 1.8948816228529328 11.02389186326148 0.35062853719340903 1.6736107518789887 -1.082499222701026
P 3.178620583763415 5.064174094846943 3.768261810494617 -0.8601355660250025 -1.4416589372938977 1.5393289757435618
P 3.8155646010719786 8.507054490004984 9.739564048097707 0.7566409504737613 0.5736997614594184 1.5482617594568175
Ni 6.13185307459704 0.3383031890442831 1.5091729147634243 -0.14932761472495573 -1.7935200613428275 1.8227943848269124
Ni 4.5639965225665025 2.18973984217552 0.9806780568726747 -1.1774382353727721 -0.1343131435939945 -0.7916604039717398
Ni 6.728989810608438 2.5630569288289746 2.038309825578322 -0.6193142168644237 1.525645050498566 -0.07997622071432678
Ni 8.052095787953814 9.116188443513314 3.017299283260488 1.4789360764778015 -0.491366867587457 -0.47173700917167144
Ni 6.13319221355312 8.941384948821746 8.766253089920399 1.2689401973385113 -0.10726153879284107 0.7656102438519072
Ni 8.66614603242419 7.102985638924563 6.313692552118807 1.338602694831656 0.24748204901020604 0.6166904060883315
Ni 4.761455313295859 8.6246877578935 13.156856799791532 -0.9421930947483903 0.9430035064648277 1.2961627804998903
Ni 3.766309969605208 1.855303646171533 9.300410854602132 -0.9096141323711043 0.2764424407982981 -3.1298162195284935
Ni 1.8153862986587976 4.406555973380818 2.1838577201718623 1.3694538758845576 0.21738265852166433 1.4238687031900124
Ni 6.831727450656725 3.99925594267068 7.757904386453878 -0.09517092617689417 -0.2751743727191519 -1.091876293040552
Ni 4.755952002517449 6.476672183602961 3.5856894754208595 0.24200585638698324 0.26503908405736293 0.9547205377914396
Ni 5.5926111679745185 0.4374150645080612 6.68044785788747 -0.2983037596477637 0.8888897553395595 -0.9649666409994802
Ni 1.373818986168426 8.803600391299616 1.5552594736587575 0.21920582777333217 1.6028215969805686 -0.48060242998210134
Ni 3.9035075073109735 1.112365863270789 11.238508142560994 -1.0561973515817036 -2.1485580404578415 3.5539011740398405
Ni 2.440259720993382 0.07424975180384712 8.390315510117958 0.32084256418022805 0.5322954874810187 -0.7391931873109593
Ni 2.2151559657871442 1.9813753239202794 7.047525107336671 -0.012174173468688711 0.5811757581214895 0.21806760040383089
Ni 2.6924947983371816 3.2816058727967308 11.218962217113008 -0.09181820765457735 -1.2140635999052898 -0.4754666514174327
Ni 4.5474957624159025 5.169369880376253 7.86076309933929 -0.9372082399392891 0.8064648159744239 -0.4034510803110794
Ni 7.439182894377641 8.552878724419879 5.213199164633975 -1.267425817576514 0.1969228480054157 0.3779287676702588
Ni 4.210124467330097 7.745561377596367 7.686943780058594 0.22667848200129348 0.5143990668165721 -0.7056271784300557
Ni 4.823129082752576 4.662735090115812 2.2809031024383475 -1.4640784426396787 -1.4072735178354925 0.08658498428009605
Ni 7.868661267524772 3.0640416533569153 9.680657526744069 -1.458473180637759 -0.7122395415402507 0.9929497564759673
Ni 5.756674034463558 4.302213201022161 0.2643350233085979 0.6538312768046868 -0.43609843403245535 -0.5667120172876756
Ni 1.2372818457560693 8.896945714286083 6.203961121289623 0.06980725060112493 -0.0676907184787544 0.4323898748326166
P 6.004570668477044 1.9740926093235167 8.506571115874946 -0.37699391456081527 0.27393278700256696 -1.1556008277827068
P 2.8276194223164133 4.118907091177948 8.943321196997283 1.7777751398037445 -0.06024634638556721 0.26608912258843204
P 3.364082156995838 0.5462898132927391 5.97265880370997 0.5719429266693118 -0.5317990074605745 0.3484682963172966
P 6.727458055775113 5.422953268860764 9.54858815746532 0.3401196672422852 -1.1756600604264267 0.3770029134218798
P 6.56467012294974 3.444503871837672 5.545788999871806 -2.1188042062341763 -0.18223567830688614 1.5284166997064321
P 4.659396414910243 2.9099948124845834 12.161838949467246 0.9999261877938005 1.2966091240086894 0.21668537534432358
P 2.6790483756686 0.52598993426811 -0.18305662642225792 1.2342261908960936 -0.6023523921991045 0.287043356242596
P 6.1418324114752245 7.892031993963753 3.187078255211368 2.8564182219834744 1.8626948205662759 -1.324192947164229
