# total energy = -340895.11396477296 ev
CRYSTAL
PRIMVEC
9.01413767753770 0.00000000000000 0.00000000000000
0.00000000000000 9.01413767753770 0.00000000000000
0.00000000000000 0.00000000000000 13.19310165408299
PRIMCOORD
 96 1
Ni 6.429973497581294 1.8688470203632646 11.22565323818448 0.20788783165735167 1.1294375391237776 0.4846714578451525
Ni 4.549786692380688 0.2062110126017161 6.056953168325798 -0.38454293055266675 0.5393487947833744 0.17772956290641648
Ni 2.7464814649842837 1.4619488585527758 4.71206099651327 -0.2991563374560461 -0.06936399241611925 0.4665696060381191
Ni 3.333446035308869 4.220590394876943 4.559087479340281 0.4505693739551208 0.07151729131369618 0.2909804865134731
Ni 4.92199845351225 4.6332666187547895 2.4178999316505756 0.23160728676147851 0.15537947734599047 0.6021351339819759
Ni 7.253135509951077 6.245787628279705 2.6409421415879706 0.2684393679881635 -1.162239673255463 -0.22242073516620403
Ni 5.300249686695496 4.610632119767059 11.564043054412872 -0.5786810167240937 -0.17368753162655892 -0.4353067913690955
Ni 5.666512117149279 7.884629918985096 12.323517481877035 -0.2936593188972168 0.3461134229318749 -0.26846045103408606
Ni 1.856813146946849 6.073743802043219 0.2600614693730023 0.7997030717705582 1.1189980889580082 0.5319566160843613
Ni 2.661649418001596 1.5834684447150973 0.4406335709947101 0.6833827652095585 -0.24172149237734497 0.3019043325148284
Ni 0.43568120391232895 -0.20980044211064244 4.611200010422666 0.6730495016043505 0.3706602590333036 0.24355494604165798
Ni 8.62043592590283 2.4349348484912814 1.463523628354909 -0.08679838584248277 0.668311729809049 0.3576183382476809
Ni 6.75840359340684 0.7435518551774551 4.956133188982874 -0.34390124577190445 -0.16344528507326042 -1.1114781264318794
Ni 0.6750362982854449 7.25647975492298 2.1382588544515087 0.25837786998710344 0.49715879167888577 0.4251499054407517
Ni 7.810858218580641 3.770451416003873 3.74476923716439 -1.162576230659275 0.9313109006182477 0.1305660178467364
Ni 7.465878166506003 3.8031637205942643 12.830264342149169 0.5096288991214385 0.6978789019432046 -0.8636422936266804
Ni 7.996549448826457 8.784267872976505 6.823947189201179 -0.1042939715240849 -0.10511543898411575 0.43772439967165266
Ni 6.946753994182874 0.8037996452548314 0.2210690152625984 -0.5137562910262508 -0.39110490004090065 0.7827849558589809
Ni 1.9848138978929928 6.609417930615441 9.198401682870406 -0.6735413536391045 -0.6940425589162499 -0.024205136491293796
Ni 9.019996579877393 4.961940096289881 1.3639156073615937 -0.7457523285857156 -0.3254168138144718 0.0317711217640098
Ni 6.314655637943687 1.9962528382416305 7.040300909194768 0.35406121702404186 -0.19399076196028528 -0.1176667932865651
Ni 3.5114572204979146 4.175672948259715 0.46008788231104586 -0.15786779098548295 1.0183987926766913 0.22418399771421393
Ni 5.929247179672326 5.579660903391104 4.653866626933467 -0.8376409844669122 -0.4001243299306915 0.18566758680657056
Ni 5.2227641616861264 3.0653565751758216 9.41616701677936 0.2164372638892595 -0.31869903547466405 -0.24702696375065844
P 0.07834186806147447 5.769498636836581 12.329388389559517 0.9607392331816939 -1.209689382096994 1.177343618776437
P 4.056596193330239 6.181634012470994 12.508246903663276 -0.9491576989916815 -0.29793969144012555 -0.02429769620510009
P 2.3380058291304446 8.506262861713827 1.28588833269505 -0.1376283240101565 -0.048825249032819144 -0.0308043869753663
P 6.196777763287157 7.775252375887877 5.816627251355717 0.6383684052823974 -1.1210521432735596 0.4156692196438261
P 4.741391196754718 1.0714564267931308 12.436028339131218 0.4724998554796249 0.38962651572316126 1.0856760777671108
P 3.986303949958547 6.024301258455924 8.142544220831663 0.009906203370118423 0.43525202687176007 0.7300452022631041
P 4.78621850199804 0.9110228095157034 3.7458644548573448 -0.42149122564224184 -0.4861416146327756 -0.11308303057062462
P 0.1520811175713221 5.676770205499752 3.65504341499236 -0.26606341155681923 -0.7426209820455856 -0.7817562574841505
Ni 1.268235046029351 1.1746502716404166 2.692817600856982 0.6442186934155872 -0.9430698409263888 -0.5318967093807033
Ni 1.7661669813472414 6.3502164099495 4.8275933926207735 1.0603568822760319 0.9273724847957899 0.3638645762677088
Ni 6.034352021646413 5.461007812918984 9.098569209856064 -0.20648580910350245 1.423352682785542 0.9358494119185496
Ni 8.557652458977486 2.421882377549731 9.907478068183876 -0.10163390819341853 -0.1379761942678785 1.6270503876209463
Ni 2.5002603021607674 4.842448691040438 6.892511422435097 -0.4159754380303352 1.6071220241281354 0.6374502643435023
Ni 0.5414305567098423 0.26030485108254775 9.07718316889693 0.5849537371066829 -0.42035634070685024 0.8328780158606301
Ni 1.3997332822830373 1.181428902958128 11.484528447076883 -0.07535363434065086 0.41121941140258855 -0.33641342203529156
Ni 3.9625516979343853 6.734777539306147 1.5308619389037104 -0.15731834623991617 1.2169702320291234 -0.2778763450313473
Ni 5.6418404231112795 7.804115643812493 7.939937961772437 -0.8286372383064051 0.11493139663327304 0.470848435919131
Ni 5.029149504673997 2.5912399908438264 5.058248041584507 0.5418144827150475 0.8998909915460696 -0.28215903156710115
Ni 0.8916027519214518 7.335263315716593 7.117730546552315 0.21005218629852213 -0.15788553159729582 -0.746004810916154
Ni 5.032863329278913 4.376318632436491 7.127388293352577 0.42805396646142413 0.10604129323249478 -0.5435674608504122
Ni 8.247656274115663 7.313340933582718 9.053277676537128 0.08434761030914505 -0.9504730753689952 -0.4058506908915075
Ni 4.562839163322239 0.2710803509192394 10.425993786233139 0.6602130119613147 0.13546808313404413 -1.1771178759188758
Ni 8.108297710057396 6.942418194098008 5.0651609835493385 0.09232060121229262 0.32904129794093656 -0.635460487606983
Ni 7.037012551874687 5.973713919420025 6.919148198424242 0.4892338804048542 -0.5191358101706092 0.3408292917148001
Ni 2.118917219852555 5.149506267112934 2.600255029648139 0.37420838139587814 0.8330356244844169 -0.3735465794421632
Ni 2.362740622130178 5.186383103177771 11.350104221826218 0.4108322032664989 0.1503066908087734 -0.16335426802135092
Ni 1.0561774639161088 3.306133199015431 3.8375697816003442 0.153001206921801 0.17674894416070205 0.16924697935670205
Ni 3.836344760328966 2.5627823591017855 2.6654155246033775 -0.15974083963847974 -0.4061605088224424 -0.21627502727978237
Ni 1.107152410859802 3.264388728759685 8.339280473622148 -0.20370181860046205 -0.1946469074870454 -1.0144418649114724
Ni 3.537192582748002 2.6036434438932554 7.027938921177334 -0.3443414186331167 -0.6387769535747257 0.10214041551619184
Ni 4.031140269339259 6.733154994575844 6.0595519441355 0.30946466136058964 0.22995535298035233 -0.5814544657041728
Ni 1.043575699844087 7.503061483242119 11.440252807041865 -0.727995775933243 0.4413110885816464 0.11375511693698474
P 0.3876827251350031 5.315186112351676 7.95487258460114 -0.47027687968637716 1.6511727345904466 0.7386884797603989
P 8.507380614750257 1.750851961920657 7.728452777383497 -0.7920401559086617 -0.4958894380481588 1.2679744909911324
P 1.7298129652510583 3.182405149192419 10.634655742791352 -0.3970824577805742 0.12189780064877714 -0.6284033236498855
P 3.7912380168265356 6.169275630108517 3.637971540188353 0.8107089359627586 0.05183652505531718 1.2215272552721865
P 7.07728771773577 4.10361393395947 10.570998805952863 0.07661064667620356 -0.7444644630122276 -1.5426948068920012
P 6.305731641927019 7.7960389767105385 10.04718007087672 0.26516789632574334 -0.1511898647446751 0.555507663931424
P 2.462779518890763 8.391945571326573 5.621712755731868 -1.09597540281059 0.26203680689592934 1.2019107665928397
P 6.87312651997667 4.039487360562931 1.7549461831234556 0.22828850680089072 0.9435732629253686 -0.5563540710921192
Ni 5.395907712684262 2.7982496560183474 0.4651790671092418 -0.459115463752919 -0.23176566671621374 -0.38351706039131367
Ni 1.4336805236959371 0.948674861396129 7.036725000891928 0.8292417046596235 0.3889274327736076 -1.5217086915586375
Ni 7.02324796407928 0.6206044296524666 9.091590464688283 -1.1518719568678935 0.5477709574087987 -0.5823913756961453
Ni 2.8478814964908454 1.6793157675890655 9.280554728220617 -0.7028969239830862 -0.13714032863014447 0.587335092854666
Ni 6.3440958106613 2.0759378127743005 2.557588413137337 -0.1446582342737444 -0.7782410452420403 0.5783079496553911
Ni 4.183965954659043 6.769067317939888 10.278389089289977 0.4001626393677947 0.3785203785076707 0.27010904238110256
Ni 8.003021599472888 7.469483821462232 0.19026680638526963 -0.3062186436194662 -0.6780371846269291 0.3725464203124229
Ni 7.4383940616021444 3.791256045101317 8.176213826812933 1.3014790505064813 0.24695934373751663 -0.3039535017343733
Ni 3.2119444774213286 8.488369798993538 12.375933789389482 -0.31987582939158454 -1.0751502385351224 0.5491588388952607
Ni 9.137450790076565 4.931048647452386 10.168331880233508 0.08512485479480178 -0.22690885284454468 -0.10609297240603664
Ni 8.701436964494524 2.168648215836349 5.626317177110973 0.04949373585475347 0.5788018585726742 0.0036586797985098275
Ni 3.7001952291817433 2.85707591662923 11.59028410977057 -0.19983153701177842 -0.6331979168250514 -0.35536708031965897
Ni 1.2986487455851459 3.4772485691006882 12.871294892723581 -1.051215582096396 0.28003478613524674 -0.32873045156873704
Ni 3.121370424920846 8.418699531101796 8.09547149396435 0.5132384708495676 0.10765491757651782 -0.41466031876333753
Ni 5.73301842281693 7.7969043339000335 3.6713761305303407 -1.7058678121404813 0.7576704201795402 -0.19866605594876754
Ni 2.918813743617268 8.374259833766269 3.409558707193655 0.7431071776533847 -0.6309194052035199 -0.041818478697682814
Ni 3.052673683867285 4.213487254613171 9.248376961977485 1.3751144166044447 0.5705429609979916 -0.3851322273972335
Ni 7.4518341404514885 6.393358071500784 11.232672546970521 -1.3327619197801626 -0.7231844705875287 -0.16616474088695252
Ni 0.44324767083797645 0.22878241262771218 0.44055424658567305 0.4084642172549547 0.055120338012911524 -0.18629082221286627
Ni 4.646265004871996 0.24846838727498569 1.5186838392890454 -0.5303820725083898 0.49761361982811725 -0.18265785344596933
Ni 5.9626265304296195 5.7265462721704985 0.36000842193220334 0.5564268333115837 0.15162643806146145 0.8117409767716988
Ni 8.048876516378735 9.08426737947218 11.178554370318734 0.3432600126434798 -0.5886990630817281 0.6075776451537859
Ni 0.1595944010863651 4.695094587116733 5.905483209269557 -1.0733332399310418 -0.05867771634686668 -0.5202187588221427
Ni 7.813923025293437 8.743857495054563 2.552693736534256 0.04950813403245667 0.08655438815247675 -0.32018179066777763
P 8.264873276531658 1.5596080230422493 3.5483899442145725 0.9877052202475762 -0.06715387213867789 0.22705232040094447
P 1.9360203721978182 3.1660895605154806 1.8650295331783564 -0.4250681443602228 -0.4921736797594686 -1.7064265128574287
P 4.6975644607617495 1.2108420332635692 8.26438290745761 0.7711530280470074 -0.887065300536311 -0.09812178127510197
P 8.579439629050503 1.9854989723346763 12.48960566753957 -0.20675371805290846 -1.64871990217458 -0.7227658949928714
P 6.130424697955145 7.731353526795783 1.4423494196244517 1.0950410639217787 -0.4694137603551335 -0.8820058837355326
P 1.797229698795158 3.176482860926812 5.852142952674577 -0.026766469460566805 -1.73353802436224 -0.010153286383917997
P 6.817374080215973 3.91216266992108 5.801996404957077 0.1350227680665094 0.12205952303762205 0.5193360991068733
P 2.4413439001759794 8.6171187233431 10.222990905128729 -0.23236473375279337 -0.20730239146752685 -0.5200025290462786
