# total energy = -340891.2958329159 ev
CRYSTAL
PRIMVEC
9.05071097039048 0.00000000000000 0.00000000000000
0.00000000000000 9.05071097039048 0.00000000000000
0.00000000000000 0.00000000000000 13.24663036504994
PRIMCOORD
 96 1
Ni 6.471140665826168 1.925176724930501 11.369384523729956 -0.5878778527320134 -0.5188393619761128 1.428778996007436
Ni 4.501117668167395 0.3825436842631752 5.9301326089973125 0.9327095807379872 -1.4391791082948375 0.48502009943382274
Ni 2.9221125354288064 1.8330404875190367 5.073155182397179 -0.6145101106075611 -0.8203318037645034 -2.345198838446464
Ni 3.3140445221543504 4.4686980215654435 5.003689165758626 1.2368895966608697 0.08386887090051362 -0.6534741505755842
Ni 5.126974329955482 4.545086021934083 2.6917149224211987 0.3521812263925096 0.7773414162459064 -0.16958970740810148
Ni 7.273468089603324 5.865086959583883 2.7390718623653783 0.39980139937363407 0.5092967125930004 -0.7435820604072743
Ni 5.052134001158293 4.604603497102825 11.450056225588462 0.23610671729372884 -0.42074791971831405 -0.8606359027001889
Ni 5.571463795133715 7.935047907487978 12.414172348061085 -0.36402038511928275 -0.053080167654431167 -0.03368016586126457
Ni 1.991608943260574 6.457618903675605 0.35906432993185694 -0.41183210528592296 -0.38094184346496973 0.10624955258855895
Ni 2.5829823963514436 1.4660251080227429 0.35368730255993647 0.6389571879063318 -0.6376896340478179 -0.7656248991399266
Ni 0.7615557811159425 9.126646408973098 4.695983095079358 0.08799317748153232 -0.35607079125490293 -0.595530998401897
Ni 8.460260663577099 2.1991779480537486 1.2473671721807937 1.003404119040072 0.5118480182599443 0.8098131636213666
Ni 6.8427719079039795 1.0285227916933954 4.577492092469618 -0.4876451957614957 0.5518417850440626 -1.2939835134603843
Ni 0.7396512504889066 7.309788592622205 2.4071116964979717 -0.17773701910558423 0.9973085476652952 0.2098611533336386
Ni 7.8124198249056676 3.442311197654868 3.660679510746604 -0.07638079005358459 0.29679452209208884 0.620884132454705
Ni 7.458111643574962 3.9690082703388296 12.478683100457715 1.7054286677205341 -0.08109079393474422 0.3437680626281499
Ni 7.9371295710051335 0.13702776369445624 6.271524520739619 -0.5258705577912814 -0.5683917189829437 2.0385212529127084
Ni 6.698331611946262 0.7609692950467614 0.3598128237269383 -0.02568969145662027 -0.38883358750822067 -0.7573595738073408
Ni 1.8580657032796162 6.168312928345797 9.261196088011046 -0.4520068777325957 0.9327679447797484 0.6064111356495104
Ni 0.24142409415086802 5.014908427044996 1.3465466728489965 -0.8590924694724689 -1.1762627270074322 -0.24466720526923025
Ni 6.433136730571674 1.9275027576431476 6.890737960694699 -0.2117141473819773 0.5083562030566019 0.9565192815630752
Ni 3.5360403601925023 4.564644608284396 0.7447232689020092 -0.17950285275675537 -0.5006526637647571 -0.5907436043155826
Ni 6.041412910197845 5.474349666702968 4.811361558195403 -0.21817275852312748 0.764422137081077 -0.34297333464099644
Ni 5.529242228579247 2.655804416608088 9.42936191763776 -1.0418140862768381 0.22697415886484135 -1.4113564296556147
P 0.24127566249138394 5.541858919635395 12.427524861916991 -0.05602793742884544 -0.5475087048863474 0.2586671190927481
P 3.9816430628168655 6.134092190265959 12.523682330200941 0.20017632194570686 0.6064119069804589 1.0031413522969885
P 2.5186318415385256 8.37630626885915 1.3956911282046458 -1.4067654678508223 -0.09348916759909705 0.9776923160962645
P 6.18438699098261 7.926078652942324 5.972574107827723 0.9079064056513784 -0.4873796008049348 -0.4049346068351414
P 4.72238039861907 1.2974375152660296 12.810127375801303 -0.14722548078028838 -0.8487373514903899 -0.748230357812563
P 4.07120889832019 5.906177187270331 8.332250123196301 -0.0009392239848177373 1.8990697596508839 -0.3176911630354399
P 4.72911412756152 1.1688269127496345 3.8018624558355203 -0.1310475854688453 -0.010574947302368886 0.4020120338717076
P 0.29706786503551247 5.668722734939569 3.696962000779519 -0.7477073954295574 -0.8907669177576143 0.28811962002591024
Ni 1.6717387170723659 1.0528330012893867 2.4255108867763377 0.19456154686209073 -0.49179444204317885 0.9516714665524706
Ni 1.9304985429656618 6.627464545253555 4.874813377411567 -0.09355935871540016 -0.4958938089235331 -0.14074835769637695
Ni 6.144636268515895 5.615703670228728 9.01825328456375 -0.9659811983069234 0.5836946678886012 1.2907169268939707
Ni 8.579069346140978 2.024734545316169 10.317084609315177 0.4065721424385643 1.4861966146949563 -0.8018499429102319
Ni 2.434813207484737 5.160489112581676 7.250436745463741 -0.43613931457271987 0.1928535630320485 -1.9301083741242435
Ni 0.5302196093834259 9.021124170075234 8.98924304077446 0.8957065211510766 -1.01213815647896 1.197988805830614
Ni 1.5039113840349616 1.0748895838602843 11.247250609965194 0.3295357210788518 0.48894103175478376 0.8156477680252726
Ni 4.180595790791208 6.918073822959321 1.8520904239142872 -0.3274888658521521 -0.821144786584102 -1.2521514079159468
Ni 5.415945428980357 7.930305334953243 8.161421574409816 -0.19663951243704197 -0.6478763447728326 -1.120114976171271
Ni 5.382494001330772 3.074309290665661 4.822436008106667 -0.1148105547846926 -0.3561206706562318 -0.033051531138330176
Ni 0.5005486636952134 7.796734942839453 6.7416338333874615 1.313222049975022 -1.9569910574477005 1.1943653501454141
Ni 5.134993259852001 4.6054633146425195 6.931736776200612 -0.5798583248616465 -0.8393664517984513 0.21791256288320537
Ni 8.06321502516811 7.171267461621963 9.36694368961142 0.02424987368630017 0.6069618659466579 -0.39780262377605036
Ni 4.55371134946386 0.3392939569454521 10.379251227577273 -0.23956819347976807 -0.09618342660180855 1.1473221327136822
Ni 8.003643245733704 7.360526878175119 4.625166712367938 0.04895508974246408 -0.1847723286858108 -0.14323307179144365
Ni 7.184454347467592 6.144943992687997 6.8617150459100875 0.30268954742028514 0.5203866518585748 0.08420928495906788
Ni 2.2446034662824457 5.092065737843889 2.676998466426008 0.44054772805306064 0.6820375640355738 0.4455168991328779
Ni 2.3771330266376585 5.077195419762648 11.436372455712 -0.7764114482324693 0.4944848443911484 0.35090364523166667
Ni 1.294839961225058 3.1837866902461194 3.807491998042783 -0.6042727491502691 0.41322564319933996 0.17153963204562073
Ni 3.7392740744434283 2.7491443985751243 2.6614466298106727 -0.7742002995137633 -0.4083647155626128 0.16687745068326099
Ni 1.0397004197094226 3.460557430918278 8.181052566447681 -0.21307888893998786 -0.7100055100034095 -0.20377689481277161
Ni 3.9126404425786534 2.3965920551675843 7.016329246040125 -0.03172355635552601 2.0362216582452546 0.8091624174112451
Ni 4.233298080619003 6.848817782814672 6.11602244586596 -0.4526475966403882 0.15930118099789986 -0.1416839821367689
Ni 0.5920477310562091 7.3463082112818565 11.297772583526543 1.2565991592746553 -0.8152446190495831 -0.14546890310049784
P 0.032996176889093724 5.922794292563794 7.9265058464988885 1.407672295935808 -0.6749994262418698 0.34670451954865456
P 8.73167338337032 1.5759821952832413 7.988565666371841 -0.9523690068401275 0.6729309737486153 -0.4774584850364809
P 1.6631133895425894 3.357261666912675 10.286564706940403 0.4629978295264607 -1.2130811813873623 0.3967698116361618
P 3.957423360330316 6.223585620081731 3.8069489553861335 0.12590846447006704 -0.5891477205833724 1.2919618550446652
P 6.8460935188204814 4.001436967651725 10.37628440452978 0.9402107742110387 0.09270163870079519 0.3599678123164639
P 6.110569392522109 7.753988435050224 10.189970089317852 1.8359131815970575 0.10799533163507208 1.1019665873970184
P 2.473061511934722 8.483394280750352 5.84710229186676 0.5536664969576272 -0.1813306499941135 0.6394400410800214
P 7.098599303451369 3.8787274286709175 1.6434833025758189 -0.9341833370700362 1.5952638392379686 -0.8073767862657321
Ni 5.43629142718281 3.2680307077142836 0.23018039594494843 -0.1888333861290619 -1.4175013662110876 0.6536338160819001
Ni 1.7184403855441885 1.0177976992245756 7.053724973519171 -1.0284512918166868 0.9970943747719601 -0.3576162813651519
Ni 6.981609813787265 0.5759827191303399 9.103428620188065 -0.05043501672210023 -0.18637284040371127 -0.1425995519725028
Ni 2.750040418958595 1.6146830352804338 9.069702955996872 -0.13055367655156225 0.5593226668021399 1.286766941107287
Ni 6.143495878936933 1.9985508385547386 2.3467733218465963 0.32896005108103993 0.6628949296688519 0.5089393292535817
Ni 4.173418577012495 6.811374991638717 10.415639610928235 -0.7637976161232007 0.22694073452374464 -0.28145197819774753
Ni 8.009127976565859 7.1945549408812655 0.32054902950901953 -1.1977769469301243 -0.8948883961251557 1.1393951645571216
Ni 7.733778197511933 4.059651140444509 8.288919844551176 -0.5533281397816019 -1.2246706859971745 -1.4653835346043471
Ni 3.111969298904276 8.294134864197195 12.612964878451715 1.0327116097549376 0.5845449317040384 -1.5504747079477361
Ni -0.15715654483424954 4.888841074303908 10.11243807908587 0.9678480763123332 -0.20653543139451527 1.340752137074491
Ni 8.605524574230733 2.24140856531916 5.761979450365919 1.3327745181856532 1.66515105114741 -0.06939535987468694
Ni 3.4473886464945367 2.8171423898985357 11.901633302507058 0.3058476334332926 0.17653888503242499 -1.3801056991714489
Ni 1.0489864491381222 3.2489337076221236 12.562799502901566 -0.6803630045466283 0.4184526959262342 0.3984644257297654
Ni 2.971067830925723 8.263543461205963 8.370876747363752 -0.039817389107254006 -0.24590699121360227 -0.34320216282235083
Ni 5.608635064981345 8.091941981704847 3.8408203360235267 -0.08014205686822971 -1.0327347496833892 -0.3997988282704727
Ni 3.127536521728217 8.454024723736579 3.6520297462972784 0.0844126592191256 -0.012887397485629419 0.4174167984625521
Ni 3.5406743241959084 4.125142084836391 9.302790440297082 -0.03476517139532723 -0.8139809218458111 0.5159062474897179
Ni 7.293569718610285 6.269726144475016 11.558082796204573 -0.6199816752450936 -0.7357545939430555 -0.8837457492447747
Ni 0.5471534895599336 8.657720024245656 13.545076781954723 1.3335085681382002 1.9336819504081149 -0.26558672903071684
Ni 4.488582433509745 0.2735215354432075 1.7687560028960108 -0.0004224322493992725 0.6746438426746639 -1.1835677453092777
Ni 5.912476482087461 5.607784298152596 0.3955459356055435 0.11559962634489124 1.1432392208935602 0.4626450741727323
Ni 7.883567463637644 8.719165300845502 11.473741031058212 -0.9920064187260914 1.208533671225996 -0.3314221394682873
Ni 9.29679977472315 4.882985264323042 5.872734810331691 -0.9452352240088238 0.03785358051266384 -0.05180592892769787
Ni 7.6114487883907795 9.03994964883907 2.447924067358435 1.0021743603980289 -1.1580564884120508 0.3748547567306254
P 8.950184697694974 1.4888147981801165 3.3931115329624597 -2.4178713264105265 0.6738406300470782 0.9610099703445771
P 1.8823487607427751 3.073286560328972 1.58684033320294 -0.46344700124873733 1.8238822185744525 -0.6347642328709068
P 4.716388827974042 0.9393189846278365 8.293039728172953 0.46131170007328937 0.27978924578334397 -0.5259037250220621
P 8.732144020339415 1.436320674704037 12.52124497374368 -0.8075647339068222 -0.24834979632714002 -0.6836506741589645
P 6.100821776835257 7.770777503851625 1.3796098249990771 1.6519749187767678 -0.4693399696944046 0.2694819503200649
P 1.818414538633288 3.3831376495020047 6.022580190865255 -0.19969681120612703 -0.8451069538266541 1.1037727873678216
P 7.052304916972034 3.9354391834469715 6.0971327070544215 0.2875938294294273 -0.042920196402293824 -0.8227419558678928
P 2.3345222795125924 8.337433465354017 10.515956785962118 0.4657208848845786 -0.6158740808346231 -1.7018450641343335
