# total energy = -340865.1471620276 ev
CRYSTAL
PRIMVEC
9.28620317118564 0.00000000000000 0.00000000000000

0.00000000000000 9.28620317118564 0.00000000000000

0.00000000000000 0.00000000000000 13.59129700483228

PRIMCOORD
 96 1
Ni 6.333469215354411 4.930240325623768 11.183870479755168 0.2213395862868833 1.1836271377923033 0.8368174601243524
Ni 7.309300599642936 3.6776800839278545 8.17988122746364 -1.3592193426407428 1.5667307647952824 0.13908202573754755
Ni 0.7173777749139465 1.9346690165953215 10.819787236819405 0.03576455919411905 0.10541445828177329 -0.3151982214102571
Ni 9.222629921126774 8.142449470707819 4.013727350575073 0.6479678760453744 -0.01699961988179008 0.6862302619606827
Ni 2.888510671543555 5.023223078953306 6.469226078180252 -1.194873143019768 -0.3834664096590364 -0.030131786388373917
Ni 4.681240071176731 7.590198962317973 2.190087894741688 -1.4163957918517347 -0.8730522740866705 0.3944473341505723
Ni 0.9723026270464177 8.069060606275249 10.33567888801531 0.2258639565197981 -0.12221276078603467 1.076834568216081
Ni 2.8848890522687602 3.1039505873774953 11.24577881108664 1.305765593696977 0.06540552198900348 1.1623764559436434
Ni 2.720699692274799 4.306866786398916 9.200941064772389 -1.0318677736974033 2.055031848973222 -1.0821734639304912
Ni 0.4493445182473723 5.623836133966564 5.501879497818344 -1.407134421154467 2.24896861776712 -1.1263126203415506
Ni 2.48575874957658 8.655372908254703 8.731429698886371 -0.9318657446804532 -0.358174467861467 -1.1881535649077473
Ni 2.315440495425274 6.970902066328082 2.0851222247142154 -0.5641180313082543 0.37972725433157833 1.0926134283168925
Ni 7.722016617717231 1.8654496574303996 1.745991938581787 -0.2719507235755316 -0.34331272025828613 -0.21245051132736958
Ni 8.42103556876895 1.547880078047249 8.216958251254596 -1.2012291671447828 -1.3868139644295598 0.7277468931472305
Ni 3.782493460221721 8.33975343155798 10.708079783218851 0.5822157693502295 0.8532984884985111 2.9268998729438045
Ni 6.233661102622377 1.360698078759976 12.950371926876215 1.8416660249204349 1.159292674811997 -0.6190524785626048
Ni 4.1831374140466995 0.4080896316058265 3.345198719335819 -0.9989201151267894 -0.9414603303474238 -0.13566991473220508
Ni 3.9487536435446025 0.7002187285140347 12.637024784119344 -0.3254828911657168 1.9302659827480304 -4.9169884842764215
Ni 5.596293255071587 0.24665455950136306 5.842042409754251 -0.6994701576897244 -2.1274048034189943 0.6857404668084577
Ni 8.33960485230568 9.285283934580724 10.413814859558842 0.05981234417194215 0.37405565786809775 0.8670137812020746
Ni 1.215090411506692 3.5512112816113706 5.3012176458662195 1.7891178185100738 -1.7106276954229702 0.10577415561403718
Ni 3.5098783908623674 0.09081442486629394 0.8755849627622084 -0.9258197955966894 -3.111214545266906 4.321975048940892
Ni 6.303558354625914 7.581646369107497 7.59027696642543 0.22853533270437415 -1.214049973058535 -0.39291521377676203
Ni 0.983882522522492 2.5500842796188947 7.914633831777677 1.8858889992945522 -0.06454163132681143 -0.3069022999500521
P 5.957916582761471 0.14614812428352242 1.8307889037299607 0.034518088381527645 1.0712269922213167 0.5092946557104713
P 5.679711219034357 5.660108043934123 2.127690180497956 0.10923974556513445 -1.330520946264786 -0.15960791360504123
P 2.457556550249525 2.122538194924479 4.104571491291827 0.07488106557960653 -0.6999900347489364 -0.4700043427512809
P 1.2683746458625176 0.47144568202688864 7.296677863539786 -0.46880286624401196 -0.642462372846113 0.11429016350484833
P 9.025558115358333 3.5975772945320115 9.553744356597656 -0.20950814086959405 0.07973299435526914 -0.7941026948646452
P 0.6147745149980324 5.878909565351334 3.243522222506121 0.07680090831013871 0.6038965967577729 -0.4314966735943859
P 3.399799737315147 6.965005327252454 0.252481652052475 1.239809341410826 -0.7338306374474652 0.06852247035143037
P 5.747992671669141 6.862095622628673 12.135927326435155 0.6714119660009276 -0.30632637284192404 -1.5245908982024388
Ni 8.507833710721528 4.222102322962184 11.660951958545832 0.8964089465347401 -1.274715923480024 0.10308992391365471
Ni 1.6374083637608277 5.585976283240057 0.3215264305959454 0.1879702667978182 -0.4696803837529589 -1.0148542698585425
Ni 3.328082389470943 0.8126337908036617 6.541532171311693 0.30923120519354486 0.6751650052854566 1.2875794097062534
Ni 7.8750996786018215 9.146158037208995 6.719523615223929 0.10834243056184566 0.2932314873311789 -0.2902762613575969
Ni 0.7791728145655394 0.9871791246828819 13.34893669978933 0.2415140043522292 -0.11203196359829093 0.023894290119094334
Ni 2.7556715337847395 1.985473834678403 9.285112139820253 0.5753426963794801 -1.676144574044436 -1.4167500898673602
Ni 6.634890087253285 3.5859323956330558 0.11793942461417928 0.9831669660575907 -0.4361179744164812 -0.14950707772561347
Ni 6.563070591173125 8.330885107436368 3.979246749218047 -0.7859124457443691 0.34564831036999827 0.3325403122331306
Ni 7.125136616417992 5.449710536475089 6.242931519345524 -0.3828308329575665 -0.33136428964715836 0.2753047276494291
Ni 7.774567242014829 6.302713310128462 3.686123099939761 -0.6343878233680945 -1.0918220427638488 0.715744726480032
Ni 4.163032783969955 6.790517567833501 9.397838289919381 1.4889793196464163 -2.990707197207753 -0.9814384134022581
Ni 5.050106637416205 5.995887867927202 5.055853868619205 -0.5650495419835881 0.17916038181567207 -0.36129450154768744
Ni 5.0877250468577255 2.0473849518708547 7.997839141685595 -0.27359545826780624 -0.26082530308633145 -0.05543632659143356
Ni 5.4619126075701665 1.915158703527774 4.2332132651731875 -0.13631371896379105 2.1673885429007833 0.48342858657698684
Ni 7.631253266968915 5.651016850934062 13.437021909514954 0.5102696180292309 1.4139115919773002 0.13262212904481677
Ni 5.57505570819606 8.486410439780627 -0.07937939416121144 -0.5411812200064229 -1.0743719656082011 0.8663944024505208
Ni 2.358992788755497 6.602899116992599 4.518209629350705 1.2277709221890531 -0.2559870011574236 -0.6300483154524762
Ni 0.31152054657391653 4.5267640798018345 7.376527139586394 1.3074044148519808 2.6295008844984973 3.387185702855741
Ni 3.8737954107596217 6.910532458878235 7.285927226015607 0.01799103726078192 1.296182320883916 -2.6975317599254898
Ni 4.7269467636652935 1.5650502678910834 10.548518666934013 0.6563481296892696 -0.22079656929921976 -0.2458172597132734
Ni 1.6937384727887879 0.05961556774442802 2.36541605555646 0.7179242506298539 0.8240663311062711 -0.04629451219116543
Ni 8.626279233413852 4.083487166770234 4.044620691609398 -1.8574384572633433 0.4804386507107274 -1.3344963859727663
Ni 0.32641840247789883 5.8038120395173225 10.014149671558384 -0.17867855708324712 -0.2268350621838158 -0.8790540001960603
Ni 5.004836396481271 3.952533128274965 9.638974987438479 -0.9569216592078165 -1.0929646410087241 0.857238961203498
P 6.461590961852724 2.0558075382355696 6.300817067420992 1.2467605759176785 0.7085201837071347 0.36738647337803826
P 1.476719902399168 4.693990028264663 11.354224021478894 0.6734511079181433 0.5991593391831035 1.2711382334310948
P 6.235648350121879 3.9474907199000593 4.744585906774198 0.007714080814806071 1.2175623570871674 -0.013947206208711465
P 8.946718249607033 0.12423732767101456 2.3551000123452566 -1.5016579435553492 0.6625020651058073 -1.1593415257720616
P 5.015014075263771 3.2896003631254325 11.975441304304754 0.7114802947767231 -0.4073349887465178 0.2767697422307298
P 8.387660954221227 1.9976201885538682 12.207322443025935 -1.2451963167543523 -0.6206519618392409 1.1407781609475771
P 8.008189543848893 7.31557807305258 5.766923525652722 -0.00579655207711905 -0.2293457444208115 -0.4721856666733158
P 3.0977938346103446 3.0348612350583353 7.303800381446883 0.5416483894508285 -0.09702597710776194 -0.21057129202678573
Ni 0.19720924157682002 1.2315362774955674 5.623807346736431 1.1049323548935615 0.563775560367171 0.38761205639629376
Ni 7.007889013947331 2.483669353841121 10.105686563038983 0.5698269087675735 0.7568579515805739 2.3401787595240537
Ni 1.4007030424415543 3.4062165037738215 13.132686098410034 -0.8776964577269014 -0.6988402374152093 0.8164391535783164
Ni 6.880825894621649 7.262693145437309 10.029303826672583 0.06684842508311713 -1.3605663435869406 -0.707281169093711
Ni 4.730456948500865 2.208834881900548 0.8757632578649676 0.23571719516479403 0.4838173373749732 0.9897412768409987
Ni 3.6079778421929602 3.8967416190365896 4.428629340898821 0.7442101809095764 0.11753258170154599 -0.6258772147939221
Ni 9.21369659358228 7.082410795178684 1.156149022119572 0.5445215972335654 0.5120256814883891 0.7052124594901403
Ni 8.294780349127645 3.3543251999083012 6.215708085842991 -1.4312192300178126 -2.749214275901446 -2.2436328073765037
Ni 1.8374424683719872 7.9478570812121205 12.791829507089952 1.3642875011922697 0.7826594860247101 -0.2379666533206031
Ni 5.021272976266877 4.324882020740202 7.371715957672879 -0.1591782822667904 0.8420110885101497 -2.225222423190116
Ni 7.972233364792469 8.952865716170914 0.23559562002866308 -0.0201294237600234 0.8010498156064398 -0.09022695190805752
Ni 2.1544363031524782 9.275004107562268 4.780630304761673 -1.0402914789847246 0.12755808425834805 -1.1656121892721216
Ni 3.4742472289203494 5.7622098488735265 11.300211748786802 -0.5156223977007119 -0.3667089876950394 1.3801738334052231
Ni 1.2771222493416372 7.630176067389745 6.381222587043396 0.13667007386194527 1.9396834194071886 0.06593131258548646
Ni 8.863755309604429 6.788883196058209 7.853024516191458 -0.7639135728757747 0.37252225194270683 0.2745022863527918
Ni 6.931509992062238 7.351181376384792 1.8527925623751558 1.1739196806965524 0.08995287231106444 -1.4582296971683855
Ni 0.3704842228488815 2.2613390751818025 3.3288345719357078 0.41990279810919945 -2.984694158244453 -0.1855529156055772
Ni 3.7787604065077014 4.509296731453402 1.6885149834501418 0.21502752802592642 0.1698409041869591 0.5881779004709354
Ni 1.486396126205158 4.020118115664595 2.4589104786861022 0.6207095545500537 0.9141387597143352 -0.6017443263014605
Ni 6.2465039217429945 3.53229528555302 2.602868916238864 -0.2850666921321993 1.1798321895262456 -0.2541455770733107
Ni 4.720065687043183 8.996529443940362 8.498651512929433 1.4284671211939721 0.8849752507765017 0.40762038119742056
Ni 7.637725750647202 1.2127967192993223 4.314312464179763 0.08866963472326665 -0.3175510379131499 -0.6135073803746595
Ni 4.953836568129547 5.173306696182105 13.298445755376733 -0.5426570332210009 0.7096344998172359 0.46732371059532424
Ni 6.127473368244742 8.987113233825896 11.336745529686539 -0.4531445908814648 0.19433683244579436 -0.6544416566951762
P 9.12556123835901 7.665101477883342 12.417606658805092 -1.6843980723024798 -0.4711816508888337 -0.18584525003501542
P 2.63261076806787 2.015319691984019 0.8903249532106228 -1.5090858605883042 0.7574590754996826 -0.10965780693915952
P 3.8972245016065625 8.096064885380642 5.126338008669324 1.4002495211091757 -0.30285126980913 0.3106363130711876
P 2.4618003451433226 0.5935146812346608 10.911460635488053 -1.0687289083898108 0.44933935820276155 0.7239460313439017
P 1.8085252313932423 6.380568838333279 7.98548477685691 -0.18747661499085133 -0.7272861514607281 1.5417252438898803
P 6.109727433798248 5.561451420407408 8.715921739427635 0.9703687858516578 1.4244628851305856 0.38429713309044783
P 6.64932084713285 0.6337648006825328 9.248361061764028 -1.2621157182175102 -1.9397250712784013 -0.9455131602605588
P 9.007310725935328 3.99098729601067 1.0464715325535592 -0.6523042986371992 -0.08877427862193098 -0.6512187788825043
