# total energy = -340867.1358197573 ev
CRYSTAL
PRIMVEC
9.33420779166976 0.00000000000000 0.00000000000000
0.00000000000000 9.33420779166976 0.00000000000000
0.00000000000000 0.00000000000000 13.66155661929101
PRIMCOORD
 96 1
Ni 6.186376751994476 7.477278991777162 9.330241474359731 -0.38999983990217996 1.0677333772457611 -0.9024618375970394
Ni -0.07367863410534246 2.9197214623461263 4.257869727211489 1.5942721647486608 -0.46890391059825054 2.316605085969172
Ni 5.074859313468088 1.5875620250635527 5.741610161634317 1.0839290131690171 -0.8660380475523667 0.5794770302628278
Ni 6.8082216609181225 5.675748926376522 7.885887662237927 0.2165496210974077 0.315483870971476 0.5890880709900306
Ni 1.1361037412898944 8.483497234603043 10.687284975627588 0.11875205593094386 0.5036446565135455 2.073793188741125
Ni 2.2369335121381426 5.570897772639816 11.572007305761606 0.5111093403217069 -0.5398984966392573 -0.09793357652369584
Ni 5.574482108350213 4.75744025053117 3.0752302940356913 -0.5172103110131221 0.10695789150949321 -0.8278304261343937
Ni 4.742626863103042 4.031024214098192 8.77484492235061 0.3788476799401024 1.8507649018979093 1.1666822824078489
Ni -0.11675973576619807 0.47598764787093306 0.709664867511417 0.680788265009505 -0.27276653460860767 -0.41473590919627934
Ni 2.6889985194044463 3.114759729712677 9.697560277594082 2.1060129680067794 -0.8570880374479303 0.9770518542987882
Ni 6.2686671260123505 7.589746858898462 13.372190445008572 -0.5607578565867697 -0.8950604029266456 0.48908089976675767
Ni 5.86636277935055 3.444966657033045 12.898203117821852 -1.1019228786432762 -1.4747161248591827 -1.5203238953959688
Ni 7.558934639679654 1.5968308931896587 6.587957697568891 -0.1294460453096803 0.41578671905829684 0.7430364723164494
Ni 8.81005448675996 7.6064830930878955 9.40356354173555 -1.3352949706146617 -0.6564265483356888 -0.5108892538911008
Ni 6.788106443585033 0.20236001979164384 1.1205221485780024 -1.6525529027674248 1.6447097525739223 -1.9352775770300088
Ni 0.5260834065275275 2.7659123898567253 9.411870053060245 -1.3250640369152729 -0.27269557216135615 1.657713878143074
Ni 2.979003014681372 3.1318319953749603 12.34208223130459 0.16138737410296722 0.177838577680455 -0.28874671208694785
Ni 8.143760081344352 8.55831090835001 2.503986124398671 1.8024477028497603 -1.621083371404234 1.7293689805862151
Ni 5.235052983941634 8.86527565879827 11.233788828076044 0.9851454299402002 -1.2891809498654183 1.3928069487882013
Ni 3.288441330138109 7.675649571249472 11.242422970086768 0.05348177396822402 -0.9311635764071059 0.5778490077411016
Ni 2.6130087355025036 7.27334522458767 4.793798855893514 0.08826699996820928 -1.0219260891036592 1.5343793450477703
Ni 6.148955913809623 3.7852265259161686 6.860805919315321 -1.2993702316935944 -0.88336419753564 -1.9487218754603728
Ni 3.58650124655585 6.713134088309218 2.3821383120810737 -0.7749222652814525 -1.0682797366675345 -0.6640231297360242
Ni 2.2754557868173366 2.788379827499764 2.9749538354335323 -1.5704506368490307 -1.1911967226094453 -0.6485160352393605
P 7.435415070784628 4.518633883825937 1.2231368261787412 -0.9866970906980361 -0.5240229630595814 -0.4199969004849025
P 1.6230133454492028 6.72590328427751 9.468455886246629 0.3631086719382908 0.3479173089098331 -0.43597604952197816
P 9.241574903144532 3.5296465881911856 7.632970773935279 0.5143692420199013 -0.06277939722006606 -2.1580451540126706
P 5.477135657507152 1.2090879103513474 12.987426941229531 -0.26179795141224593 1.4189082738609435 0.30272605708517547
P 1.8953668541939366 1.106234277036582 10.233325124222715 0.5190851594383319 0.6898537176458829 -0.33611363140668565
P 3.7799246960112054 2.974289239853896 7.243903267041484 -0.9110503505969988 0.4020521430810237 -1.8618550982738
P 0.8524726429480193 6.9205868517560525 2.045831480107724 -0.6580972511698924 -1.26355887842194 -0.9271264302232548
P 7.480527296014708 5.643433899737469 10.017718930455485 -2.7774835551597845 1.0029374638162984 -0.40792428559108457
Ni 8.403885778160387 0.8194538170574983 9.398208506847388 0.12179624207390637 -0.4750601600076335 -0.8281446149407028
Ni 5.5023753548012015 6.231871679735302 11.223555736307011 -1.6671436560974062 -1.3172540539525508 0.4740512591271449
Ni 4.294818254492836 8.940686721830305 0.06394772270406804 0.4921253430200363 -1.4216390425285452 2.19879791045
Ni 8.352584973305321 9.435390389318211 4.896561013974004 -0.21765570967739287 0.1238811496273931 -0.32207566525638076
Ni 1.9689577467480348 4.887101728013283 0.9295769312349135 2.2873479888762676 0.6065402050282069 -0.7433863994567004
Ni 9.515477890347405 4.180138180175275 1.9722919256953109 -1.004063864111258 -1.9745000128657413 -1.9379170715353853
Ni 5.39790690357524 1.8887302326051538 8.250582619721776 0.9933459634731214 -1.93778723082574 0.03250028662055048
Ni 1.2275789755656634 8.9707428702352 5.729014581926998 0.6070402845930771 -2.2014998827621954 -0.09556559051215155
Ni 2.8925962551210866 1.4439832440809117 4.752254164800188 -0.15659998001665287 -0.10022391521976932 0.6279947753575571
Ni 7.420004294071435 7.425175445070289 11.387071451257981 2.367119035558323 0.7682541092326576 0.24610625170860198
Ni 5.544789994040905 8.54131331634836 4.403788594034225 -0.3605905335021274 1.7168708481192048 2.2713318159536686
Ni 3.6909043583287557 2.549900158059802 0.955588567495759 1.346734837020487 1.5724560973148338 -0.4004138361466523
Ni 8.01463998790183 2.493792236301471 13.452725988001566 1.0976661602494515 0.9389805013483636 -0.041157190964600084
Ni 0.31220964168698967 5.742040468603716 13.04113037111547 0.32844428778688595 -0.05752406235839771 -0.5815282563649017
Ni 7.391460287294363 3.432888192425612 8.727029510605604 0.6142072346551616 -0.06781875941618642 1.1956002509937795
Ni 7.4714824488705025 2.375863857746362 10.977825254419558 0.3976175043484378 1.1654990607330251 0.5961519198153475
Ni 0.8155185151421244 1.5522413835840108 12.264498164748126 0.07759152253223411 0.06317611843785248 -0.468567096084122
Ni 4.9211249146393214 4.878196893982765 0.6607274840153964 -0.6417743456401528 1.54434391245965 0.48585056575491814
Ni 1.6902849794722097 3.602201383703997 6.06335376294266 0.8285199960022505 1.120561062569754 -0.16341006095995084
Ni 3.7785899043273856 6.319986599282573 9.33245461497675 0.8482863799959004 -0.03018500822381253 -0.485796315478215
Ni 2.0158808082484727 7.786913325593061 13.58807106447863 -0.7322054431392164 -0.38052995273853174 -0.09428209581403763
Ni 7.906979237683797 4.478664806971974 3.5190942665229454 -0.7629172704007764 2.3959413591066547 -0.7834215610017153
Ni 8.45662405098264 1.9059985166265998 2.4544074808419625 0.0037653805797031926 -0.7101996282920866 -0.6664175981101298
Ni 8.340422500829677 4.780981122045811 6.035361407833518 0.6445565363709802 -0.12026155059693482 -0.03831149398568886
P 4.519249941526162 4.179615464550842 10.981145432055463 -0.9235831929566868 0.009519509454661025 0.5097296863653609
P 6.7797429935941045 0.8339311730127756 3.3578467640137117 -0.05126136927813752 -0.022414106029142043 -0.08774249492330696
P -0.2527862093965405 3.9798540881492364 11.764977112728614 -0.22140154987307029 -1.6259180737887162 1.8821133343022038
P 6.599070071691881 3.5937165890145404 4.803512032300389 -1.2235322015173573 -0.6563951808771211 0.9884410699723364
P 8.089845698367123 8.8296096516383 7.229477249227892 0.8059421107017345 0.3899458467357929 0.14896688895142732
P 3.9980557929285987 6.768551278706691 13.242638177755136 0.3814720049368269 -0.6861207329660118 -0.3327136045862012
P 6.7589277106925785 6.634456052624477 3.784920363907572 0.43074128348560015 -0.6936234691009603 0.8587119462045985
P 3.173369219102223 4.55383318060695 2.8421775328822534 2.7884986753233654 1.7901305760453043 0.051407922158330815
Ni 6.34701846443182 2.6127380434827083 1.5525671474285234 -0.6587132874873365 0.7014871881197532 -0.053100479369405325
Ni 1.0127055170933976 9.321550393682775 8.455328462970654 -0.10913021657046366 -0.6913644978634544 -0.858138847309948
Ni 7.324711368895789 0.34338776184290026 12.252695059264278 0.555965577404449 -0.02211971471717481 0.5008868912627502
Ni -0.48680786129669545 6.899342195305883 4.467560833635805 1.555774780004411 -0.2522249630118301 -0.8504677039179352
Ni 0.8590523258705692 1.5633304221880528 6.519936526677278 -1.839056869432362 1.74621819093307 1.0229766418553607
Ni 9.482341453441387 6.966305800478778 7.254532129211874 0.710710506490234 0.039897093305253865 -1.0274835285867787
Ni 2.9021731520973053 1.060057952142477 7.791759646168161 0.572257372585937 0.6207872018655244 -0.8207452371528381
Ni 1.7971429878384348 8.466583650469605 3.1508196404324877 -0.6802758441494606 1.4837651224353285 -1.5037428511088362
Ni 5.836745338701874 8.66168725728921 6.923143491211984 -0.9285112263859234 1.0561865529484262 0.7290949225346928
Ni 4.7247891924192675 1.513663103659342 2.9303624589863686 -0.6010820101271132 -0.3997463777659825 0.8316577703002839
Ni 2.7701687885128226 7.705108330369302 7.534607827886847 0.25906769696527643 -0.01593466895238546 -0.7406150073591503
Ni 5.736178586244004 7.805880435393913 2.3854444884056116 0.7608413617083543 -0.8656169008545478 -3.399171157352391
Ni 7.3020572471011675 5.30678636918748 12.548767722888416 0.38692222941812077 -0.622454048044986 0.5921086029839093
Ni 4.629477598828464 6.276358513057579 4.6469101649033036 1.11523836480526 -0.5141237016679985 1.1866250440783628
Ni 4.758420342326981 1.8936680284145295 10.60602603154721 0.14806083219739016 1.241260986255688 0.47521931129331707
Ni 3.32166177491234 0.5448236950842072 11.960911464022763 -2.5850989613443547 1.8338156756380803 -0.43985044487571995
Ni 4.302752330935122 3.5164013476363576 4.80095819310673 -0.6086127712865196 1.200283772512378 -0.2474622515158641
Ni 8.1716880304212 6.5646548483475184 0.9865333324621905 -0.1715954249842206 0.4096086152720429 0.6073202777273411
Ni 1.9667082027214573 4.803364551820637 8.372156939757305 -0.746678954165043 0.6297552096920896 -0.947979105302548
Ni 0.10515638232454412 5.229723151413934 10.182996010376641 1.8908921089360984 0.11001519027857828 -1.2048027434286541
Ni 4.3065700218349985 9.101645797325341 9.030370721671632 0.4267092795080715 -0.5983317010754856 0.41602146077692226
Ni 7.267455339605221 7.080323146058219 6.030197724200726 -0.9204780716688017 -0.04036709096313693 -0.08412006767937126
Ni 1.1707709882388952 5.204483454119885 3.6874180317979395 0.8663977448846305 0.5772350283061866 0.071288977352974
Ni 2.4366575517094318 0.7165684474369638 1.0110822983953818 -0.8102314821057077 -1.793085287798254 0.611641016589882
P -0.06743218239336851 8.665439608736031 12.579738623636068 0.30867430424881037 -0.9870974114602483 -0.338133747160508
P 0.9692454466048281 1.0288536962053447 3.938189919198897 -1.576377286746111 -0.08026444137870693 0.2952904267427366
P 4.895791875269481 6.6406352980418815 7.226594845927448 -0.037513680674741846 -0.033855772207180404 0.24759312066677358
P 6.468213815639635 0.6319809249338569 10.024754122707899 -0.514508595811243 0.11509800411812435 -1.3113970809511415
P 1.2387146852076014 5.75200006809068 5.722620649735274 -0.2859663211283333 0.5661016373971863 1.3750691651888058
P 3.7277744782664386 9.104847430524993 5.749998813985709 0.023774990932410665 -1.3876809404155455 1.2578235186000595
P 1.2637770325576465 2.4343800050601163 0.7107597700604524 -0.4877382696959342 1.5007063782753574 -0.38877393791487885
P 3.8702704911698964 8.885829583887581 2.3759357311447213 -0.44524204820493646 0.9604607827093263 -0.32469896181184077
