# total energy = -340865.300773691 ev
CRYSTAL
PRIMVEC
9.32558445265076 0.00000000000000 0.00000000000000

0.00000000000000 9.32558445265076 0.00000000000000

0.00000000000000 0.00000000000000 13.64893549097805

PRIMCOORD
 96 1
Ni 7.83769693337308 2.339518743355934 10.792117683467676 -0.07003196501742133 -0.18380790789001247 0.050846907448538245
Ni 0.7975734237163293 7.772212678055227 7.1345030889709555 -0.6810281489344528 -0.495175956920902 -0.09501537443563636
Ni 3.273643905229874 4.841395915234203 4.080335885603822 1.022631599811116 1.5394238494502133 1.8768006638400387
Ni 0.8699035907158748 5.757783815129425 8.844878725289753 0.5602516063743125 -0.23438742060977696 -0.49139257861906993
Ni 1.6912227505922512 0.806691980373948 7.220546528178548 -0.9631208460399928 -0.6335966949253669 -1.560151826026184
Ni 7.796785593572536 5.891456745309733 3.7405861861250327 -0.09152407345292625 -0.289048816708399 -2.5778543639667992
Ni 5.318753941609924 4.262482272166452 8.411675477051169 -1.0998935069180735 -2.3853548418400594 -0.18701021687739405
Ni 7.918745589449336 0.3326594574796205 0.7179245378940194 0.9688451501182798 0.6005513344346238 1.4513453113437262
Ni 6.458489593550518 0.4547919766721975 3.08854970136363 0.5387836663085237 0.34655719533751284 -1.2320109284123297
Ni 9.143623829121633 1.1256726703086768 4.694455475791476 1.1165216023930575 0.7572161062509412 -0.20957036156609715
Ni 5.77390775096602 9.228318788790778 0.15733566863708962 -0.9379284059347653 0.4361655398249649 1.437772714865614
Ni 8.410502318503891 5.117078848259895 13.21300215277751 0.7162607468845019 -1.6401784403624722 -2.3777544037849823
Ni 1.6261581465830421 5.361381188983594 0.039841695242732546 -1.4409603685649766 -0.0818631533243945 -0.43847310491221897
Ni 0.5233229004908124 1.5092526175792516 13.380706938971977 -0.4278112543229987 1.663934148021173 -0.5288576654440634
Ni 0.5851468638388206 5.446794218669756 4.457196749143762 1.1563875853500603 -0.8841234442991677 1.016692351508546
Ni 8.551803576916896 7.930113477121291 2.258652868738554 -1.8406159863893656 0.9729275477177695 0.37110274588736086
Ni 4.380311034049262 3.3883299450901663 10.753122751309942 -0.22262128121278435 -0.42239651106533055 -2.1922053448341474
Ni 5.103911122753085 7.696013325989977 12.167712291802038 1.2364648504186255 0.124446792322876 0.6951841287198608
Ni 8.957680997053462 3.8721226248651064 2.6401681315705963 0.8860687409509966 2.3340219958940382 1.0385361868565146
Ni 1.9720907086758641 4.616901116278536 6.427502540920191 0.585739980453404 1.1139016482717075 0.4518366707033186
Ni 6.584226451205122 2.223611051908254 7.7317396407326 0.2986873682394275 -0.35312610680428214 0.19243113078264923
Ni 7.110851541215737 9.252015099352253 8.406897980041865 -1.1964942235629588 -0.07516697225114152 2.2792508136904295
Ni 4.9322457607634735 1.53228681163153 12.457902104288346 -2.2777536603196125 0.39406963909617937 0.28340730215190546
Ni 4.84732698706305 4.190246293571737 2.4264807526502263 -0.7164384101129467 -0.7609094959421283 1.614521144805684
P 4.484673651716893 7.652350938721649 0.9699344743198284 -0.37998924974371334 -0.8267245946647246 0.06489232979801082
P 7.377227540774152 1.364444939342903 12.681567858769826 -1.4945742972356904 0.686350846698947 -1.5281346496896393
P 2.346624838848985 7.570388375351012 9.129459198617177 -1.3742847216142977 -1.022239249468704 1.4706743506896414
P 5.0645571555868445 4.463858946808113 0.4186581338809573 -1.1397168095625985 0.2503765969491817 -1.7301778496407558
P 8.501268233771432 6.261439990180217 7.352517539162685 0.11441049113279651 -0.18418431739282473 0.12943601800735127
P 0.4246293057237402 1.468350603363343 10.20393067903734 -0.1114454949672016 1.1495366238664977 -0.3376717199224249
P 6.193792199226683 7.66616212956838 10.220500377819562 0.8435383237879537 -0.8519113783429975 -0.08005618202264277
P 8.922691403497126 6.75309413780377 11.66231969289192 1.1644775614470462 0.2615277284699947 0.42512265174724206
Ni 3.9754874049766267 5.791458501252008 11.73539590666239 0.9332186591639218 -0.6359466832147822 -0.08806234015657091
Ni 1.041966222611004 6.543156576465757 2.47219103830474 0.26275183068508295 -0.5673748476826551 -0.9832207021136616
Ni 7.028758419660188 2.7621169367458336 4.258413519589526 -0.5376197279074096 0.5057102807933226 -1.5263096806657586
Ni 3.123791085705152 8.253272961531657 7.372213173915078 0.827651220244052 -0.2992391269778395 -2.1575538161985484
Ni 1.030756869877871 2.072210185333865 2.486222312948893 -0.7998789352267901 -3.03862998903096 -0.03485644555755288
Ni 8.318738565680238 7.321992102971866 9.617777584616235 0.48069987479191406 0.6746921794140961 -0.19587383791561103
Ni 3.3815036171362114 3.836545519476668 12.710953708518058 -0.20233399171865796 0.19061156107540722 0.34908613240695363
Ni 2.3363387189948703 1.7138745956744315 11.552540775667381 0.4399661445179778 4.160881809039576 -2.6569942048227597
Ni 5.682013439957457 7.368237677184517 7.448579453945323 -2.0106638643808084 -1.4954042493361537 1.7967051439390282
Ni 4.448956662558906 7.828679093029537 5.222560536083911 0.9142328620900384 -0.6998337116767301 -0.24974050602707962
Ni 3.341347649691227 8.628674371075979 11.18724083940137 -0.729167427643841 0.03443786996289553 -0.3988524051968034
Ni 5.265374295150313 3.116974083335834 6.037265058777583 -1.2434718778640779 -0.5801915398313492 -0.35795386721022865
Ni 6.08484139391787 3.484859071663095 12.398624958104579 1.5965866718144504 0.16941461528281793 0.9007499971122551
Ni 2.6185215845122367 7.427762883919616 13.140021992528796 0.9870074228496033 0.6199947878712161 1.569563092037755
Ni 3.1564865854408963 5.710820170899759 1.6182724322143753 1.400668353814149 -0.09698201124370394 -0.21969099493986677
Ni 7.435568398260408 8.125531103180196 6.548677322570595 3.3914164531076363 1.5502564212893433 -0.8331664936353264
Ni 6.963115629403513 4.406786368832428 1.3802620634449554 1.1759953322786585 1.1337834747972992 0.14364033453219133
Ni 6.943242808543024 5.671130482686603 8.768417324296216 0.34373592383863383 0.3185679092134384 0.33114111789275874
Ni 6.683320113553103 5.834216306810589 11.806534263945384 -0.8450660732863898 0.16812186461332337 -1.57823028079445
Ni 8.52941284820454 3.4665622746061837 8.686346584143795 0.13048142855273012 -0.08096403854889281 0.06523814317320377
Ni 6.92498331382466 0.7195975477778166 5.321815531046104 -0.454000768234173 -0.25232240782164284 1.2752530269304165
Ni 5.565546213431584 6.511748007409856 2.669936330288928 -0.012015022183005115 0.34981941102855235 -0.08235989045515493
Ni 6.993451756226209 7.197141175857734 0.13447213278366 -0.9060040464223428 -0.41516476920358175 0.8757647879218272
Ni 9.228486649314238 7.841762888274617 13.583953393333267 1.1063498040663784 -1.9166558481637639 -0.8084049704199304
P 2.7427010695325365 4.1668204249647225 8.375109859691255 0.14565196564558142 1.2498261022168797 1.223515489346809
P 6.556249697295472 7.8989566988505775 4.11755615900522 0.5701709223705534 0.8910955047416266 -0.18815255801195338
P 8.01109685410509 2.1896939005851217 1.9661838833670733 0.22903489804861202 -0.9954660951399178 0.3658119298020668
P 4.172527682762292 1.16672389387877 10.06203631344145 -0.42531831269781595 1.379855787944172 0.21569858595102206
P 8.515387168911168 1.1313053234291532 7.535317649208338 1.3103275020360465 1.122806406960505 -1.2028096242580253
P 2.450539828454062 6.509108866957713 5.313913030625091 0.2300232301038103 -0.019023849400670464 0.6522001689591671
P 6.530529734867868 4.018898001459767 10.31066572543651 0.29082750587537654 0.6245723799395695 -0.6552029603412329
P 4.4668711106457195 0.9458287705928102 1.9993102251130261 -0.703542270876569 -0.9795239699883647 -0.32175684846438135
Ni 3.908380497932013 5.9921544082152 9.155310651788156 -0.5141926072327209 0.07953090564679206 0.2844288014378843
Ni 2.110193291558533 0.42149870696125036 9.426009992384074 0.46729594268118235 0.0644009919838891 -0.4241286632650889
Ni 1.38226613158335 9.143194852228351 0.946032068337887 1.100854328169446 0.051360613860163155 2.0566470159791415
Ni 4.5291473648486 8.527752894139235 9.152266780962787 0.8041191985603828 0.39900821404837733 0.1985758102278064
Ni 8.744768574216389 4.854778129187653 10.829379921999939 -0.14335031409559829 -0.9921956519187624 -1.060643046057883
Ni 4.47500302044879 5.471898692511349 6.57541563884051 -0.7483401439175499 0.14517579734011124 -1.0173970908850543
Ni 6.741558389608358 6.357353628167134 5.582155079669279 -2.203456235157618 0.6205565739119571 0.4351674375777538
Ni 3.175762568884645 7.663840058993879 2.962856673956818 0.07098841539341967 0.7418632779439547 -0.3312221076423392
Ni 4.735130878300716 2.2059950225298115 3.733693646520158 0.7075663044342976 0.7317557571963075 1.010356381988189
Ni 0.8387999682775896 9.218368389983581 11.543846533110726 0.2455213257394094 -2.0704754372218024 -0.037237544195219734
Ni 0.5881179951040254 2.738401975015087 6.625862388931927 -1.8417097336741766 0.024624740527215656 1.631707169666667
Ni 9.11935865789733 8.024236602857991 4.546337215009153 -0.9691858212871501 -0.7967457889144471 1.1824089491144862
Ni 6.081055206555431 0.42326404013294927 10.850234726922654 0.35667885715254705 0.0698481311413894 -1.0438182611910605
Ni 2.5733484525327888 2.7224925276251324 0.8438292560720809 0.33817308503887566 -0.5166930050570714 0.6593532350641805
Ni 2.944646604837027 0.8755968601364885 3.742087605251517 -1.0596084341457814 -0.3514947418484462 -1.8761979972590332
Ni 1.9466411882027193 2.8639989489001425 4.867141989298791 0.646319541808674 -0.5332789344402106 -1.4755861861689619
Ni 5.9832111725487485 2.3213898068224808 1.4355264105596144 -0.7284719442387131 -0.9300855128515789 -1.4188134001542918
Ni 2.191120715034514 8.578073748838058 5.077690376430498 -1.34908431108927 -0.05880858549777614 1.1686774584610067
Ni 7.2505394734866195 4.3749115205447 6.24498872632288 1.0477512776968794 -1.1637964762196216 1.7401105353734354
Ni 1.9051330109854352 6.334198201514581 11.198733689907455 -1.8183810862505654 1.063670262919981 -1.1851520590772622
Ni 3.4558098755202415 2.2423554770277194 7.880936871657372 1.1248836012045078 -0.13395756002678866 0.4330964139813379
Ni 7.992548266262994 8.656287427184802 11.752525140522804 -2.1274436270767296 0.4212878513821841 0.06645376074785975
Ni 5.151667441676858 0.18696864637819088 6.868799464064836 -0.5836746132839431 1.7706480418406605 -0.3253206545562397
Ni 1.7234892734347145 4.085995582919744 10.59254364433626 0.4083606017975548 -0.9544009496684919 -0.5842790796371615
P 2.1203208764738264 3.825196282973987 2.765410733239463 -0.7764502718902047 0.31749421653328547 -1.6830425867158496
P 2.5649740775291665 0.35758488009619127 12.887680065289926 0.7669873267050921 -2.073844867914667 3.2014286416591573
P 8.527780870893144 6.026687048124344 1.2750797268877716 0.7268632049906967 0.525089970871515 3.462212549984592
P 1.002117999459026 8.966596255966005 3.0671885171951483 1.1615979259064058 0.5822121698058037 0.7331498093303567
P 3.443537406138542 1.4404764308846951 5.798217684996579 0.6136783587348851 -0.35324360621875295 0.12124808287992023
P 0.8931009824992929 3.635653775236108 12.643486833906472 0.3332023712971616 -0.4839649186964311 -0.4169434583705594
P 8.808191875329566 3.5264325279728346 4.989286631751395 1.4885450603224752 0.561568268303207 -0.2357580757050585
P 5.6032682032864285 4.859860572814573 4.448856878803296 -0.18659035573115607 -1.135647010368599 0.22182423923278569
