# total energy = -340864.1656646908 ev
CRYSTAL
PRIMVEC
9.31541963000126 0.00000000000000 0.00000000000000
0.00000000000000 9.31541963000126 0.00000000000000
0.00000000000000 0.00000000000000 13.63405824555622
PRIMCOORD
 96 1
Ni -0.04574616292307098 3.367598734624408 2.725011770260891 0.2596364249845528 0.21465060430248195 -0.19450446837191018
Ni 5.22651867634217 2.3912495988487565 0.09109735205206804 -0.103154458603003 -0.4053074167935277 0.5347395781461372
Ni 4.313887011119952 6.785742936386672 6.319576979014862 -0.022832681623799388 -0.6373003690291992 0.5619325936211612
Ni 0.21959611408542834 0.8596595312599211 4.670946115588678 0.589482478214972 1.43594466051794 -0.2967400147050696
Ni 3.7677146403570267 5.718223788285514 1.9050322006339244 0.006992886378065376 0.39579510642771837 -0.6009128315391006
Ni 2.302585434414899 5.149619886953485 7.4452457713317655 0.2397247736622904 -0.2564006916560745 0.4911596366726573
Ni 2.977031134055133 2.093016438063932 11.753307850531096 -0.40924094751997914 0.5079983054965509 0.9550588949674648
Ni 5.579852544484241 0.8187694966116317 11.7996911881597 -0.5040328930908997 1.355588430756375 0.8516216150167204
Ni 4.956697545555587 1.6365142970593922 6.932264240858589 1.3407367104555232 -1.753236531232432 0.825155707515708
Ni 4.882276657799536 5.841001019556606 10.92611628299441 0.7637024853062331 1.4323284039215913 -0.8950760866559293
Ni 8.40233155076861 8.230229172336635 12.64477115609167 -2.3849164687510602 1.902808657868026 2.2870661959697904
Ni 5.294306985292073 8.451815060063907 10.262096401050579 0.7217755060551441 -1.1116509045643177 -0.1925522297415458
Ni 4.4893615714730295 4.40566252572411 7.825772281037072 -0.10446880653905236 0.310943045678329 -3.394932693791011
Ni 4.533367614001453 3.942695483467511 12.116696782666642 -0.03694983775147185 -0.25897745124431526 -2.180020115621865
Ni -0.22912671995139597 5.979539940911969 2.815460769103819 0.47532575496419427 0.3029335451102912 -1.4410925232674665
Ni 3.4009386216289026 4.776956522992938 4.961965415379851 0.04576049406456635 1.9713882067096369 -0.9573967990720222
Ni 3.6359666599422287 0.32255385846331985 9.223481137106322 -1.537260009029675 1.2062793279741806 0.423740940908367
Ni 6.170729614250957 6.241023771092509 8.346715700703527 -1.2936973496785333 1.6402275484328526 4.317750212226267
Ni 0.980438605011464 3.69936740622683 9.137832374020148 1.0227966646340707 -0.3448458690733609 0.6613730937076868
Ni 8.585901210816267 8.164657933268561 3.7330184282483545 -0.42304751438576815 -0.9061739963413039 -0.3100349320417628
Ni 1.859432289799697 6.712421268151864 5.897521396871797 0.1301225025514146 0.5689301079849169 -0.7439947224646606
Ni 8.499891940988801 5.040461799242207 8.845559218741183 -3.4693334773000895 -2.615826215224882 2.332828746916886
Ni 5.422766622562813 8.256358924515347 1.715710268939082 -0.3359747918359762 -0.9658654986646656 -0.6276813578821965
Ni 6.07572164902077 3.2164187887747464 4.818971860337552 -2.1389176891546 1.0115010371155935 -1.7285182025501455
P 7.764411611660541 8.117419440114107 1.5350041688984604 -0.06309487157795585 -0.22018027587145952 -0.2868001298835383
P 8.720956165214467 4.902621534362211 0.6619052816783872 -0.7845178793896876 -0.4739854388862159 0.2371593269279593
P 4.797375922912987 8.894800527125021 5.729413470394986 -0.4026959473126097 0.7969123963992985 -0.7880588026634106
P 7.993291472990641 1.500471908176007 12.248060967790973 -0.008769004441881672 -0.1826110593684339 0.5813634486522633
P 1.1528111306139128 8.387193993802333 4.901280113929508 1.4916535240444697 -1.3204951865976677 -0.5848629771650895
P 7.213954147848701 4.729429251828666 10.448337723460039 -0.7216682910533183 1.334603858084908 1.7847207178836424
P 2.197768332270565 4.59548283237138 3.1630060354619856 -1.0838163988505527 -0.02001398122808166 -0.48518567847740957
P 5.564472786606504 1.635014514492272 2.451239969991602 1.260319802659352 -1.2746187357805272 -0.7404419721163957
Ni 7.4725781441900745 0.43413209220526816 10.472415288685108 0.164802056211471 -1.3528414641388573 -1.1770042331591473
Ni 1.4017191442378552 4.462235069389462 13.422198820200943 0.667299743604767 -0.11588424746484559 -0.591052393805253
Ni 1.0550644320002889 1.1595741252954617 12.87220060657891 -2.6277327368544805 0.3262421379292446 -0.2355981530884265
Ni 7.036141417158064 3.5910663371253344 12.26679427675047 0.01752798158143433 -0.8444112133112104 0.07137099554381901
Ni 3.3721912365224846 4.309639179749723 9.731868302597487 -0.7228237448140002 -0.16930148674372134 2.327335327902482
Ni 2.5587222137039674 1.2160162530854115 5.731676185833207 0.5844775688012127 -0.564577487443176 2.2289705773786386
Ni 5.785695372966585 4.809551176423708 0.21972000916706 -0.20007090671609415 0.38098863754250517 1.4445529710122411
Ni 2.1917226249037256 2.5318844896302184 0.9147909795020835 -0.28085959602938726 -0.8664630509049271 0.5447738224536876
Ni 2.743493562889256 9.391992421254912 3.714436029087537 -0.5317373009847036 -0.5753092720383833 -0.9391782191814664
Ni 3.7872770216672915 0.7939867541174275 1.5282821620634663 -0.17936324185509753 -0.03570413826982883 0.6664980736390779
Ni 9.0314670491264 4.971881679620221 11.810489622642967 -0.5315267276357943 0.5478488618345856 -0.17083129312468642
Ni 8.296312759486645 2.5499377729536916 10.008462675027259 -0.639529258359718 1.6747677483015675 0.6816758098207808
Ni 0.7511805376426991 8.860026065491107 1.1031208190019055 -0.006623675964104722 -2.2315882175071438 -0.9105129900362899
Ni 5.219299226096714 8.509868755457036 7.844300650763794 0.7937309133475234 0.02317078168950848 -0.1700612477278813
Ni 1.054393721783937 6.09381219402293 9.807768478997383 1.360326973882625 -0.9008911506758098 0.4441051063870158
Ni 0.8003445280432635 6.712700730742012 0.4876994814845764 -0.577328102240625 -1.1013320391368129 -0.13040532389915607
Ni 6.505907729453168 7.591405637520427 5.154287843750902 -0.7538114514447662 -0.10176914821970215 0.32352731010124275
Ni 8.0736369676578 1.0726426289205127 2.5947114060630523 0.05528797393902736 0.694428481500759 -0.8551427407961015
Ni 1.2256111353471129 1.7285692742536962 10.20244790580968 -0.06356306946362601 -1.0511502760760993 -0.4343043182465101
Ni 3.0484617720966147 6.559527285082637 13.130456643843257 0.5314297970466137 0.028066676329229084 0.2863257613502811
Ni 8.39413398145764 2.5825510572238044 0.5365877354628629 0.9023142562755814 0.09294692194238185 -0.8329998861504752
Ni 4.3412929757936665 7.477235854025851 3.8836208180783798 0.5865349655508737 0.027469666175178497 0.1255852768026934
Ni 6.12107842740157 3.7638394257736603 8.932557786137767 1.6982606892171852 -1.9315764740293377 1.3553755434146206
Ni 2.879340327959538 2.518218768972048 8.237507309726022 0.617561238729059 0.20408079920643563 -0.6269730189612621
P 1.7889331937253707 -0.08903678122072013 11.127804434303242 -1.7670071026539635 1.4394976679765208 0.24926408061129326
P 5.644967327988408 5.580364892566176 4.3377167861817565 -2.370130311580821 0.5106419137669851 0.8803441797623937
P 7.34445386202751 8.104778415619808 8.700329031435743 -0.5739345031780437 0.01809259583565271 0.011622157619960629
P 0.747429218140964 1.2733060840654733 1.9271060190876406 0.7186734700910525 4.334110398751845 1.6812183890229173
P 4.542468779020562 2.3031164133361774 10.42359224264452 0.7010845533646958 -0.22432283728492333 -1.513604574394264
P 0.43534682293043886 4.123377363416987 7.162298282685995 -1.0995638914927968 1.8368925147911914 -1.2846447525579618
P 6.89387632793408 1.6813866736172713 8.386350016780089 -0.9405031086404771 0.3091787546890546 -0.16568214482357918
P 4.075514737144538 3.2428093727042606 6.053795014197865 -1.0374115863337683 -1.225494981670683 -0.09754765393918684
Ni 4.561276611337432 3.428689256830464 2.2783597540170533 -2.497954505016362 1.1979278706856917 0.47918138126485865
Ni 1.795183840324984 2.65550010867175 4.14968969782126 0.6129139697650348 0.8826759132193638 -1.0138888206214796
Ni 0.5112851925509859 2.216818365498894 6.694418288094618 -0.16601073180759152 -1.343835403985505 -1.4124478629475805
Ni 0.7202226034482212 7.337737444444319 11.758816058182886 1.9457697348105845 -0.4943922846773421 -1.194009509467892
Ni 6.188801528413773 6.844830643363344 12.883367000139202 0.6416565891153659 0.41372032344757137 0.8066399080997076
Ni 7.139849984361482 3.0841398294386693 6.6853106022817395 1.9904678490489074 -0.3100639855074854 1.9146079644957994
Ni 8.89778146141992 8.340411956211785 6.56051844573569 0.6936193553359022 -0.29236091180076745 -0.06756190621037397
Ni 7.20568205518036 7.203306623164114 10.793497310840323 1.3187087841212064 -1.3605532309608181 -0.7299634411825752
Ni 2.0387075413787676 7.709888460322931 8.207703556028848 2.0369274260630275 0.3069886890162713 -0.6016504810360735
Ni 4.2523959258680195 1.8860278129619859 4.225766867194913 -0.18799134984374075 -0.7844862548208037 -0.23905371573719475
Ni 3.0336595702385143 7.718598377715835 10.941550070306242 1.7809252553969521 -2.125939531727377 -1.3057524810708545
Ni 8.854101458579999 0.8786890705649731 8.318888679060658 0.23304324787705671 -0.36556201857478976 0.10724688350482174
Ni 7.323401013569797 0.5874303644882415 5.937345747509661 -1.2191510417305262 0.28374771621045974 0.9035334733946633
Ni 6.697982367660956 0.5885873396114485 0.3913230811046383 0.8921969653359215 -0.5077303965471449 0.25794283933221385
Ni 2.1348799340678988 6.8474575917107225 3.287676160010337 -0.9601429943585916 0.30534086900020313 0.17341705157399165
Ni 2.97922957309762 9.28741752002204 13.079506887491656 0.5147214831529974 -0.9987632778339509 0.26196610155899397
Ni 6.778113607675669 3.5256161985129912 2.0470308688553023 1.8626061175072117 -0.46217481940453303 0.1913157862312834
Ni 6.409474505013234 9.256313333738717 3.574141151124087 -1.5071968710957075 0.4783190332645633 0.7537821408687276
Ni 7.570380735321727 4.835466673949974 4.08079658009831 1.5008447036254347 -1.8481128089870429 1.3188712778409997
Ni 6.574869781281688 5.901225207733208 2.438628754840251 -0.9338758331319464 1.8673091794098355 -2.1982060425022723
Ni 0.10241838157890851 8.095882189833473 9.19302250940624 -0.9586227010593232 0.7448228747929108 1.3956847845566285
Ni 0.03174788178262568 6.215695145005552 7.494491737425439 1.6420190931156367 2.9238335753136546 -3.5584216876180133
Ni 0.49073444521356896 4.817478598564201 4.816954140436693 1.0012659896511467 0.08362590165177211 1.0565974152335997
Ni 6.668536326079171 5.534775228693587 6.535022142094645 0.5865907584894736 -2.013466881047242 -3.4866791676673885
P 7.837183670134726 2.088722029595345 4.576135637255528 -0.10350232886072497 1.5019834452155683 -0.3801232042184163
P 3.8274823729697225 6.259114316094668 8.709654698068936 0.2193328402694997 1.4748511077751503 0.5954479517697874
P 1.7978294195117055 0.7651695033634728 7.785088117163524 -0.15168505921353875 -1.8038934341573514 0.6909703477488294
P 1.7550064352815686 4.308185974280961 11.192785075764139 -0.35964179643561284 -0.12908994752184216 0.3855415470205102
P 4.716490133904877 8.220466612520845 12.41811861160504 -0.028672942454660295 -0.5414010493267127 -0.6869373153300362
P 3.6101908937110365 4.015700427433486 0.32765870844333184 0.09618676903591822 1.40168573933507 0.8161090239324074
P 8.245580983955357 6.475157529117365 5.4110711131651765 2.4236635076122712 -0.45393006289723753 0.24702439264749715
P 3.0148144762429587 7.9921177301120245 1.3897739815930206 0.06555387464140969 -0.8282263760212316 0.9349487544811511
