# total energy = -340890.3691429797 ev
CRYSTAL
PRIMVEC
9.07365207973451 0.00000000000000 0.00000000000000
0.00000000000000 9.07365207973451 0.00000000000000
0.00000000000000 0.00000000000000 13.28020699750141
PRIMCOORD
 96 1
Ni 6.443753660431981 1.8204739885088728 11.842770678101724 -0.5381941123536408 -0.05294904139320558 -2.5694635687999425
Ni 4.548295013162898 0.6503340332029064 5.929798429031799 0.4458323734907677 -1.0886243617621574 0.5985787840892852
Ni 2.6289726615691102 1.4283379771777958 4.61711594023194 -0.12876367453067503 0.7637785899598073 0.930245692578527
Ni 3.6030201123495846 4.35252190118198 5.026916536954398 0.48294393363108434 -0.26165834051058806 -2.373685375921931
Ni 5.076154708634249 4.520466122986522 2.9746334282039384 0.3220077881329228 0.3513898408394658 -0.9583990150842915
Ni 7.36815916202597 6.492742306686382 2.654540397708331 -0.6541616635609122 -1.298491171522751 -0.6921967639567628
Ni 5.300800180752508 4.847208325546442 11.398879464071907 -0.5830886588734862 0.24148572221745507 0.9973769390093855
Ni 5.7865218371044955 7.7816999180346045 12.494124589770825 -1.0523759209530843 0.6716433652854432 -0.3769262945476734
Ni 2.0324980109253588 6.779006948412651 0.43997865535878283 -0.4997435216869265 -1.0475849273223443 -0.8629532379794558
Ni 2.787199002258915 1.615518340871453 0.5863166974150418 -0.8657968780758379 0.5995020672345029 -0.4266951384406845
Ni 0.5413476789233183 8.95085810421208 4.577288960234821 0.48962648785758245 0.01657075987448759 0.7992919523750686
Ni 8.544739595404057 2.5913714483669907 1.4062282097526984 1.5053886142423751 0.16681497287644176 0.1358187816052435
Ni 6.858219928927733 0.5812635807084152 4.671140463254482 -0.19018835749505955 0.5481453100290817 0.72828553925952
Ni 0.9385059565447843 7.283166265292319 2.5676746992360413 -0.64733127090264 0.4043417104461488 0.28231175509488154
Ni 7.483775633701018 3.9657847126924235 3.6980457459166294 0.5586634359515862 -0.14226376589963885 0.2817497119438245
Ni 7.404989114822158 3.7431082230222477 12.715492658846468 1.3079494887221732 1.4505567540041597 -0.5073958960258617
Ni 8.227397696144665 8.815061830857129 6.549412706583862 -0.6177342739718135 0.4218447523269186 1.295474496183614
Ni 7.2544753781916675 0.7060680322310668 0.3980157377198253 -1.7289344641519577 -0.1940478404504658 0.16904694753075403
Ni 1.8731193164525732 6.316259778505587 9.071695555152692 0.22407164050606573 0.4582754843501268 0.31513780048596696
Ni 9.367184471333903 5.201870154801083 1.2830388682565856 -0.3408655442693742 -0.9610971307417447 0.4050904156867152
Ni 6.558744050130449 1.8588283148132543 7.157845522980285 -0.1631840609920738 -0.7606899237321544 -0.4964028873494677
Ni 3.511784543153806 4.318450338543476 0.4093069900626624 -0.15623205515427285 0.547767872085005 0.11980363712390978
Ni 5.965254630940245 5.590503736524048 4.901365323885768 0.1430888329040955 0.6561218726110765 0.5136112808079542
Ni 5.124408389090057 2.841722576132355 9.72614448946254 0.4511525001521004 -0.5892279390020047 -0.7470242533196038
P 0.16168975359502955 5.605293789014263 12.45330132280228 -0.029838680627987325 0.3987799000876552 0.1401318071583006
P 3.890682096458364 6.235232067623607 12.697896125843844 0.15033368739196692 0.3233948982884366 -0.4768982416576368
P 2.460502167958168 8.649857851906601 1.3604770424728418 0.5340458945132222 -0.10302333234177741 1.4346825059760646
P 6.474694813187585 7.759723533291474 5.819811250954866 -0.9184420150753795 -0.5167233440743747 -0.06928994464507422
P 4.433359065375435 1.1886846849252932 12.603819596258687 1.1704368643542746 0.0023916401606281393 -0.7502718137226241
P 3.8930412459353314 5.943877107218191 8.237897726047535 0.5033515507531588 1.6355730803799766 1.3346568228100306
P 4.761117516940819 1.287088439070318 3.7613263011755333 -0.39599025315765995 -1.408605863493671 -0.48741251092539933
P -0.01762829078404369 5.496228493963715 3.5747130407215315 1.9841640183180667 -0.3688628008132486 -0.7153894000231421
Ni 1.2389890106956958 0.9113394429523266 2.6291087663466275 0.28541173417644394 1.246475697687408 -0.4430470974361466
Ni 1.9235506733486587 6.303774433581331 4.721591782184603 0.5228194296697835 0.704074232120639 0.06051322689370869
Ni 5.90956962963199 5.858829768573532 9.29014190833763 -0.1999302673731718 -0.6370268036528384 -1.0463317716415335
Ni 8.704372352128207 2.3612454905407008 9.972359846721742 0.3208389646358023 0.7284727155696615 1.8859573906386424
Ni 2.5813813576972193 5.018954407469636 6.787234935896165 -2.447952204956307 0.9242840756784533 2.055407487145086
Ni 0.5551423518072907 8.776979714107782 8.93575954755949 0.6485106359227218 -0.6472155712603821 1.3984505202272237
Ni 1.3064697593887846 1.0369006370379745 11.304204980830859 -0.3118663288235468 0.50050636799488 -0.11314679392902449
Ni 4.050015422671978 7.003607052271738 1.865776010022922 0.4555020353700478 0.09800428186063122 -0.8344304479494145
Ni 6.03721776363957 8.195122716569392 7.996994991937424 -0.49837595191543843 0.2435161223839226 -0.7530789441541159
Ni 5.413413273670341 2.8651688924726724 5.041392641091141 0.03983127306432495 0.35999198068618005 0.051006058734221836
Ni 0.8770918514682344 7.311221996764557 6.8118426796712965 0.29318392192269505 -1.109153849174077 0.4854301903880479
Ni 5.070955506133087 4.48514239639486 7.221338401692116 0.590064575970687 -0.6169914822685181 -0.459887308921937
Ni 8.096873214505552 6.979879452724551 9.026516935303592 0.11236517856799356 0.6319751001615439 -0.3741965543213362
Ni 4.7802084804005815 0.4293760931901834 10.588189504093643 -1.313528011251215 -0.41364858966937146 -0.09929471853728061
Ni 8.262421992225791 7.009795282822858 4.793982283885334 -0.05414460436320353 0.8857090436187328 0.7644244510739222
Ni 7.263195157604611 5.913616478350172 6.984020667421811 0.3160978504063911 -0.06601153100411856 0.11467711453062186
Ni 2.5735961644232286 5.258643994329476 2.596718551393055 -0.2538187898615113 -0.39204078159160866 0.2562451399148168
Ni 2.1580229104036683 5.428666082404115 11.435612328793466 0.4919942167588107 -0.9249026830990588 0.2294511596504242
Ni 1.1186633137185478 3.3369987878660594 3.6162132021169304 -0.9379847130939976 0.27040086258990853 -0.053844042403649206
Ni 3.5673697342918804 2.741930553256654 2.571300530509103 0.41437826874654443 -0.05230600849256798 0.6467476304850281
Ni 1.1928041228581507 3.2226617010996734 8.281682632974858 -1.221322338350232 0.4727425676180503 -0.8316513425423806
Ni 3.3493843226201356 2.65335356404838 7.0936095121832095 0.8581822989533737 -0.5311197220053627 -0.42726232379806417
Ni 4.2654602118300655 6.973908989817457 6.360900330800902 0.3886047593268662 0.3914147179718356 -1.1304376982535176
Ni 0.5261447752746332 7.236554915818553 11.011270297641058 0.9909234700745579 1.115108266985299 0.44887527408214956
P 0.21102047652359157 5.364606100452629 8.059173098498437 -0.2512618277676124 -0.07615916096108173 -1.0479813914298146
P 8.492166856675032 1.322965658423884 8.147565892574471 -0.1425347601728384 0.6585911600871754 -1.371182685650206
P 1.850979605976422 3.1627393043847136 10.443873071666108 -0.7705061384916279 0.09205166382162211 -0.24518425411496486
P 4.118004295867798 6.4682888149924365 4.000463302638654 -1.0849237729821186 -2.153207880525027 0.030645235689682707
P 6.893162562142347 3.776372230647482 10.511987161257244 0.6852686693783617 0.36506888098845514 0.3649891767904553
P 6.26018461016845 7.878969465700318 10.165400882135296 0.6202711814610543 -0.22397676679941425 0.9497819628392417
P 2.5721897483888827 8.500051860119202 6.095614879481154 -0.10270914353546827 -0.06327921967462005 -0.9924825870315617
P 6.805102771088639 3.992914931677543 1.508724180875077 -0.13896581187465742 0.5577046715827427 1.1400502816426172
Ni 5.310400104393396 2.7643333996360053 0.41465227835835944 -0.3812647740220272 0.5311107231442982 1.0236399864709727
Ni 1.3829697180053546 0.8974621998366604 7.13460517853661 0.7932418895262467 0.9014264543539894 -1.128696290082379
Ni 6.867529495709918 0.8661390463388237 9.559783619903115 -0.16250914641223624 0.008121343555553755 -0.7693337154500814
Ni 2.74004323367508 1.4645599953010726 9.220062465759144 0.2804101671967945 -0.26155498216350437 0.449929940598909
Ni 6.476500469902649 2.0742912512750116 2.5678207850305768 -0.8154487646405891 -0.7272740672758701 0.12158798271784221
Ni 4.121361547046558 6.927905575016601 10.533992581686244 -0.6692998047539311 0.506846708390611 0.12637743368668558
Ni 8.108505636157366 7.3825862684428065 0.21275445138916227 0.5981987750420471 -0.8276990427628519 0.1505622584630052
Ni 7.223316457792035 3.774058449429687 8.415547125854246 1.1702250054537846 0.6762798356161901 -0.07032095701274986
Ni 2.977174050717595 8.696015518788643 12.422916384904129 0.9432894131363625 -1.0844231791966163 0.5091362757557361
Ni -0.06393113609543702 5.045295218745155 10.28356795734102 0.1505190639298956 -2.4976269464736145 -0.767273233376627
Ni 8.711259253870583 2.19008919598675 5.95801839360224 0.167129418793067 0.7701274149959705 -0.7838216246536114
Ni 3.6687496462386173 3.167575560812496 11.59323527163628 -0.49936582663253354 -1.224787671191013 0.42412454950003087
Ni 1.0858348413813694 3.1107563530249305 12.485797699482315 0.4541493779968953 2.0367379357600406 1.0714478499828708
Ni 3.4211569086309375 8.251016411869838 8.362918130483848 -0.26163957145751066 0.27527644551465497 -0.08832767800281562
Ni 5.543193715859026 8.040580278524388 3.6313525902027743 0.014986960327135479 0.11412509868189377 -0.02563389851802037
Ni 2.9235941366349425 8.372802966792339 3.68050274745983 0.40332586758712474 -0.38376851428048747 -0.08017933786406836
Ni 3.2499189512104762 4.101426733966187 9.107167182269256 0.5025426816986184 0.44294553886127586 0.54020780034956
Ni 7.338261479231331 6.296751427061437 11.275094891015454 -0.4448957206091112 -0.2963720898426896 1.1076284136684862
Ni 0.6564614702867363 9.282255090163092 13.659622464798268 -0.6437139858650269 -0.33558064172135105 -1.0355940735090552
Ni 4.717273631276571 0.30037598505926455 1.59841904398936 0.0857041243370395 0.681608189807639 -0.3346203346906108
Ni 5.749374306494102 5.621907645523211 0.519757831748337 0.43111820720904465 0.2844516842560198 0.010618913166426873
Ni 8.045225988263645 8.86176391684924 11.509423764371478 -0.49811935581994216 0.19869639496607072 -0.6278991303199574
Ni 0.23056875203581298 4.917193402145849 5.66120563161838 -0.44715494895693314 -1.4040804648194916 1.0327342354627569
Ni 8.080722114240164 8.90563502346899 2.232309805337807 0.17530809794911742 -0.7539559474424307 2.171398435391125
P 8.364872595088997 1.6073520542204136 3.599546718427342 1.5739290823159346 0.5864223512324094 -0.14572215676188455
P 1.8493644959498832 3.4602189797784093 1.458578644011778 -1.2066536805944637 -0.3278061399822548 0.045952298360398276
P 4.775426665883806 1.1948547681727453 8.215826067960142 -0.5250352063741797 -0.4665300110494352 0.45248767402375617
P 8.581569548200244 1.7625024269383276 12.395319780214715 -0.7130782353914623 -0.8075135689539126 0.1363862240729393
P 6.237591217100574 7.741721408051849 1.3581932043061011 -0.004859127864514212 0.6631378989175934 0.22394077135515625
P 1.7454984034004968 3.1365164505830423 5.754274078484725 -0.2822191953810752 -0.07297176437203562 0.30363237094952866
P 7.041634727110077 3.817593830931562 6.111192524950603 0.23240150052799977 0.669165336058596 -0.1973895032291891
P 2.313037178344065 8.490034548493925 10.42808310274373 0.512161178624989 -1.078116520252298 -2.477085117766521
