# total energy = -381168.56455414696 ev
CRYSTAL
PRIMVEC
9.30040586750593 0.00000000000000 0.00000000000000

0.00000000000000 9.30040586750593 0.00000000000000

0.00000000000000 0.00000000000000 13.61208408652383

PRIMCOORD
 96 1
Ni 0.7299702548099777 4.959664632345531 2.975982927443263 -0.5836563584514981 0.9346607909270871 -0.4676864932513816
Ni 8.217513099979334 7.001085116881772 2.9504877248707606 -0.5257260617936171 -1.109325855975567 -1.2940285077657068
Ni 7.81658190394168 8.774533007494867 0.966558629172729 0.2943524883094995 0.48713277490145135 -1.5862850327781262
Ni 7.934622655063485 0.4196212916454676 6.789612488532606 -0.9530333798970038 0.08116304193357635 1.6108570656905354
Ni 6.8946047702387245 6.084827732780133 10.101009902962344 1.0587347732915768 0.6980028291155785 -0.05224841578175518
Ni 1.6699808754673273 0.1422878392284595 10.812649987871128 0.9545457027764721 1.6847395148022986 -0.12950312379986084
Ni 8.658603448502328 1.6174521831937727 1.5777496806359508 -1.2523627525958045 -2.896712036506514 -0.05230395161003896
Ni 3.2426051024361473 5.357275583492664 4.53176225932606 0.24602294796617633 0.742229917254754 1.1556355376753837
Ni 2.221792555703613 6.675319800970688 2.5895082822678646 0.12139129332600385 0.4622671220080233 1.278119035624302
Ni 3.9618798905119554 7.661730146442621 5.977434086282048 0.041026836034322896 -0.1912257976206384 -0.9768219976761693
Ni 1.9201059905531945 2.425387740292916 12.324244951614192 -0.6331403241142386 0.10809123378298803 0.3501533973292034
Ni 6.537059967518376 4.872836043275789 6.828447263224082 0.5721907810140597 0.5037624130383325 -0.35842000821336983
Ni 1.4030127253766076 5.867960869034605 0.5273971848242269 0.5384298825135307 0.43964655639503 0.21258292314017582
Ni 9.00250455583222 7.816367994606996 8.006083253497104 2.7741267228724094 2.0009111558694186 0.8612974475435875
Ni 0.5666700086315107 0.2921955009745754 13.161510268620185 -0.8262003467301384 1.239583341442949 -0.6598373737894507
Ni 4.788444160540265 3.9314582629576362 2.9494935114847753 0.5174766773006314 -2.33846023417105 1.1660605896634497
Ni 6.128195525285726 1.9652408601713884 1.649621357008397 0.6012079941820162 -0.40843644934081275 1.4574406256081867
Ni 2.059202860532529 7.954190708984087 12.49059852103512 0.7886211029247837 -1.0871372356936695 0.05783362317901653
Ni 1.8967526714492824 1.396316433160432 2.5598065061267836 0.05842369135453164 -1.1141947540320938 0.19738641790539554
Ni 0.27436290278666575 9.172460172441097 3.2815198606179825 0.22412306256929146 -0.2949970638720339 -1.4817100396785128
Ni 8.396508711080047 6.661508698274827 5.919228426274113 -1.8635116600406165 -1.4772589458856944 1.821436071026805
Ni 4.640251493633959 5.730026549787245 12.712474583374581 -0.13680017168190636 -0.2984616253818666 -0.7542377403489074
Ni 7.1881348794536075 7.369688102164667 12.349795026581244 0.18913626208146136 -0.13336389230684773 0.12896807723199727
Ni 5.944317201110717 3.014726558157352 11.10776023604091 0.06968435187001547 -1.9223395288121021 -1.1459939008205617
P 6.625451024771892 5.23757005972267 2.5762226525028553 1.9537998042039126 0.2816466107070569 1.2282260074486009
Ni 3.056392376391333 5.886682586022329 9.08304421046227 -1.2525830961367268 0.18556911355549333 -0.4343431419042455
P 9.262804314924331 7.427964445257105 0.2581476451770796 0.2431381702192135 -0.021173805864137727 -0.5458876243431566
Ni 9.315379509227164 1.842968424385195 11.040707099942354 -0.8314132583896454 -0.10080498453421995 0.159105520047326
P 3.146587712380875 4.069327479364006 13.092674244719072 -0.23056393309862871 -0.26741452626807494 -1.2471516407085101
P 7.9092139462654405 1.1531108200312796 12.780521932859122 0.0848975692753441 -0.3431396850155316 0.406137626004307
P 0.32312586072920724 7.023127078760016 4.4605574220534745 3.869224608174052 0.8255706835659394 -2.1112958136722737
Ni 9.154854504156068 2.543149479239047 3.980295624147024 1.2463700253474792 -1.210620892772328 0.1908704711637487
Ni 6.329223797858829 7.866748293127862 6.545071337122562 0.5135819702319154 -0.41280989581816 0.0541065520364165
Ni 6.8987341504387 2.60234656251121 6.941345819948215 0.29133915540447247 -0.46345857121296313 -0.08190300542339443
Ni 5.8584093522207 4.410540769401571 0.8273836357842054 -0.18296330050153006 -0.2606720653379188 -0.9425592198385574
Ni 1.0081732951745028 2.854917684337152 1.148228106956985 1.7409278890684083 2.78794383126116 -1.328195640565719
Ni 4.1179314003664125 1.5343158552487826 3.582686533081062 0.15027558046052183 0.7548144387879839 0.26107058632791813
Ni 7.964067740002946 8.90233918476526 4.693977148141154 -2.0596438938239365 -0.022962522333444323 0.5467116629063488
Ni 3.1630587311514953 1.2056395123048342 9.162158112874629 -0.4919600210867656 0.7217258837641312 -2.092610835668261
Ni 6.60139087482294 8.622759684334078 2.7853180971152782 -1.7030989911460928 1.6898012455959224 0.6693766807384536
Ni 8.112148802038982 4.596939503563501 4.406435570256821 -1.0747154649905493 0.40325747624303454 0.5160332599858855
Ni 3.371369221509689 3.1892951760707056 10.721449278008572 -0.10091759885268427 0.03069537220132778 -0.4399579169878617
Ni 3.3980799871275447 8.816719648456772 2.610443495849269 3.5594899809815277 -0.19572754214573387 -1.4369653884729703
Ni 7.086174530056479 8.354461576205978 9.166281912831089 -2.07301517292452 -0.013296202888273876 -0.3306605787119144
Ni 1.7291500575219227 8.595174680565776 1.245784714181392 -1.2785309263507398 -0.36784053019632135 -0.9303032852893398
Ni 2.085355601799037 5.316949023701918 11.197967662558064 0.9006841768713263 -0.45393340533134724 0.6164793185187899
Ni 6.6892239077251086 4.844600011097581 12.06629540508184 0.1031310615642353 1.8079529489387054 0.6490953047815983
Ni 6.0639018196045855 5.82980130380826 4.775827229956287 -0.7808900528291132 0.9076744921462303 -0.6567260818539786
Ni 8.566213216730818 2.127291131802836 8.574796561295134 -0.8784086533025776 1.2587491157381225 1.9465945447047248
Ni 5.68825842708885 3.219149478867821 5.099590168486617 0.8868580696215114 0.22444239358192314 -1.2508648278940393
Ni 6.286014112252785 1.2509510896342888 8.857301039367966 -0.013839991206885841 0.4309703687772707 0.8219377147990425
Ni 3.388519169907783 4.865228311285745 1.3956468039388146 -1.0832322442123088 -0.022517978596857995 -0.21885950017750697
Ni 3.2255760593141787 0.8548626149257501 13.246626652971875 -1.5464594161407559 -0.8849685659082823 -0.4346683864541482
Ni 5.345036249386432 2.447727315158546 13.178742990630395 -0.740892172279937 -0.8255881670674363 -0.7154112544000131
Ni 3.6347381145342146 8.217606104037891 10.135121931560246 0.8402825358548175 -1.522397490095546 -0.0839118083233071
Ni 8.553648368419633 4.18404798559529 10.705699970732363 -0.3659086032809311 -0.23076293648331228 -0.13065600645738143
P 2.067573225802749 1.6210421398541113 4.778781038856089 -0.17242743396721272 0.481681264868577 0.27093539493713986
Ni 0.13879367674843568 6.615071771836821 11.808782047584128 -0.5150801520439968 -0.4269036549070648 0.3984700821567202
P 1.623227735230224 7.571395304365242 9.697289515208537 0.22505380191367688 -0.0037646092487548066 0.4514828869083257
Ni 0.9872845836223777 4.256553949647102 5.306847852901934 0.9946351145981902 -0.02664614183261863 0.6620351527717179
P 7.170371104269032 1.678146631808719 3.9781183991361813 -0.946009640281003 -0.35170505808703945 -0.4216457489422351
P 5.271442137849491 8.115134232318695 11.892482910164563 -1.6786004917840964 0.11690394697861156 0.12246755710931811
P 0.7820850790229492 0.7859094059108539 8.272431066517242 1.5258533098546303 -1.6523623840231736 -0.07340988035071873
Ni 4.8696646048789605 4.9150784866728285 10.247748916433391 -0.7074256650913752 1.0346887880859663 1.1256662450068033
Ni 8.204994753697427 5.482245136977038 0.7477470505627525 -0.213241125549465 1.0650231774034498 -0.43038132904302007
Ni 5.4983255387017165 0.8015415280732814 5.510838304740108 0.42122845889915844 -0.7359818794625131 0.1913273561955092
Ni 7.712398757545016 3.222590629034467 13.171883011271158 0.6381999980253331 -0.902563139061594 0.8488990738792348
Ni 8.920558679836772 4.388480206711614 7.295587118508585 -0.6407003958496836 0.1392856571079214 0.37112742847770924
Ni 2.4282057632672234 0.3095751693973076 6.672847753094217 1.995253700473325 1.955007708469085 1.0655224856373713
Ni 3.641601814055794 7.157899260016404 0.4954837721706371 -0.617223395773666 0.7792967402000643 1.2038470643836041
Ni 0.6226082296918013 8.650307486478955 6.071670448615934 -1.239159623641969 -1.058765626529512 -0.7656426397517395
Ni 4.230196599451767 0.8714387282825413 11.081488449579448 0.48623777389100775 0.8591701167879396 1.556590333927171
Ni 8.232282144478342 3.6555710236512047 2.1644713642925653 -1.590389798975119 1.0399850034878992 -0.15912943130672594
Ni 0.45275863770968056 5.895610975643896 9.496497472944172 -0.9920768669527107 -0.8888511887921402 -1.339360398933287
Ni 6.499635134354639 0.5439946891144865 11.233712842424243 1.2978249986936616 -0.29765558454080354 0.18126020176749427
Ni 4.541853199679601 8.822355694405386 7.892803380132883 0.31388001681946587 1.0269675081823089 0.5859659804212812
Ni 6.555679380041686 3.9275520924982 9.073719623551247 1.2422416050014025 -0.39952834821790545 -0.8570849521241367
Ni 4.7139758108528795 6.119704254739381 2.7676222148934486 -1.013143972035655 3.0304546523090194 0.3349507214468361
Ni 3.5282298666736005 3.1808504075536397 5.852433841458347 -0.892469759381334 -0.4615605828593018 -0.003227762908678312
Ni 8.939996528075392 8.531197188683732 10.47760193687537 -0.6049906011529 0.0007137382375729642 0.27838002414064317
Ni 2.3921945917935683 3.534833154831218 3.386849747056667 0.506177193127412 -1.1237762270729421 0.1629575468035645
Ni 1.925323518238298 3.770840253827982 7.752177523430855 -0.6416715015137013 0.2553074585918958 0.07705699018500278
Ni 3.6446616475823523 2.4475227062297185 1.1877101898960243 0.012230223517604744 0.6361819391540399 1.0775513917774475
Ni 5.940197121316598 6.999876064120518 0.9931419792303601 1.2646346279846221 -0.3321767582461247 -0.6155583493664173
Ni 4.955265540375738 9.121940367832394 0.4022416232227354 1.9817546375456256 -0.05190491639940738 0.15917982492868712
Ni 5.092465127560489 6.278610989191568 8.075573095929881 1.8339915390943125 1.3351903267159972 1.457506960069748
Ni 4.235004909279215 3.8615006101103133 8.216349619206772 0.60999345368413 -0.7155500939707224 -0.6560943618072507
Ni 2.284635398071249 8.6821334753175 4.416494889230454 -0.274564764159611 -0.701490787664179 1.3005467685001988
P 1.1657872732127341 3.5861620947493744 9.80244269393596 0.19603478897350754 0.25004003954536935 0.4407382467973119
Ni 0.4943323819256892 4.389912469213408 12.761886709645855 -0.3490959025989665 -1.2361468049575743 -0.37908370721030843
P 7.6355681047702575 6.392485158489976 8.05207841065696 -2.3676646236491483 -2.361527657513475 0.37430685464695534
Ni 1.4329879334498488 6.2313742278499635 7.020418800574808 0.6760152691008938 -0.13224186288726258 -0.5234154113825695
P 4.801743740914058 1.791788290960731 7.424846949214241 -0.9558040006636054 -0.012632858272662115 -0.49271489697491916
P 3.6983342897761697 5.6608036290025305 6.772950811441942 -2.309665421426545 -1.668599414707326 -1.1895895260233253
P 4.999042550738985 8.002078498735598 3.995310199360626 -0.8662218814283985 -0.20059952552605453 1.1761614255428774
Ni 0.31460110872178154 2.012570625571551 6.5431926551396895 1.3963586706952016 0.9360345313461621 -1.9601036349347531
