# total energy = -340888.76079032634 ev
CRYSTAL
PRIMVEC
9.11981439813508 0.00000000000000 0.00000000000000

0.00000000000000 9.11981439813508 0.00000000000000

0.00000000000000 0.00000000000000 13.34777021663786

PRIMCOORD
 96 1
Ni 6.474347906509788 1.760078620320932 11.218601319167677 0.4981065003041357 1.3179875896844655 -0.14244708555503854
Ni 4.447925100554653 0.46537045973754076 6.123957333408793 -0.1912723345878577 -0.22402767464200773 -0.5218658075072625
Ni 3.113842140400104 2.0075539095306465 4.569528708541178 -0.6871396611488295 -0.487567805556341 0.07520219636445112
Ni 3.6886640551586645 4.643526884272591 4.611361298149262 -1.0446484704018395 -0.18560022390374487 1.0802155688731718
Ni 4.083223714370378 2.7909095051216553 2.458912686104058 -0.07592287658055956 -0.15212188964064122 -1.3131369464603835
Ni 5.314170691120127 4.888448625391993 2.56102360234689 1.2325025233367677 -0.6328873275631681 -0.5582698000575934
Ni 5.133324767438354 4.606883469176607 11.355642037341601 1.040234143384228 0.1748301298714344 0.6390883141675574
Ni 5.65321803881137 7.719877466818143 12.158070813204324 0.1617560702962956 0.9056600328193628 0.6427793898658994
Ni 1.8493433657065703 6.503859626582114 0.15109982437401642 0.8858440265347003 0.3765498850448612 0.7023161117789517
Ni 3.0210389069464614 1.491235605484067 0.35911732369963767 -0.7131473980665008 1.0199100871148952 0.32069883951351225
Ni 7.716685531705252 9.12017940084326 6.725474769488649 1.5505515839322586 -0.5168670687410906 0.90229908676693
Ni 8.910469263926347 2.5651211350503806 1.372484675507006 -0.6823067585365604 -0.9795180564510938 0.037976736354089435
Ni 6.858684253545643 1.0818836069777569 4.932642335002155 -0.8085870045237494 -0.7214484617330285 -2.518763471341914
Ni 0.8153907683654401 7.21305288977876 2.386808695866781 0.7110108113394722 1.3684416325699593 -0.6601808731717985
Ni 7.952797531913076 3.688062147394519 3.6456367698368988 0.34479804655456103 2.3217868872804273 0.7856234537490405
Ni 7.456916732403604 3.9634623089347225 12.351573215599439 1.241676990747184 -1.4419407302003746 0.3199341934333458
Ni 8.599292069677942 7.5843114226663735 9.055127763242549 0.055217782822724264 -0.12648310602661442 0.6660270475399304
Ni 7.2014707252262715 0.8789522282591615 0.1138599734026519 -0.6452052256985726 -0.40574913231663673 -0.07240097947023015
Ni 1.7752266323852501 6.535560102160421 9.455347179400148 0.8654598064513934 -0.5639041155252353 -1.5533551148193248
Ni 0.30518274010639435 4.812881841547958 1.7585683790218045 0.002581387573931038 1.0624371618438282 -1.3160050120367979
Ni 6.4687483403403165 2.203912637861069 6.871859649710196 0.2393949011266974 1.0227280161796644 0.707975366947258
Ni 3.5499881542254794 4.1470715364428 0.04884572704183482 0.6240188214289446 -0.3955549653924542 -0.37854069022264486
Ni 6.303023069279035 5.8412594962190605 4.6735484019815186 0.003727328252916161 -0.05382758734341698 0.4599886103864917
Ni 5.091501297644877 3.110449569365832 9.510473722762692 2.4940479708731047 -1.143986640582546 -0.9943882886947067
P 0.03583266357731016 5.694777033981206 12.696105219796088 0.24789676795012147 -2.10498221274942 0.43807638369443264
P 3.906253711897114 6.299584899171721 12.675029328236402 0.8502411897294261 -0.5320476331362708 0.3392796878394931
P 2.321421449088486 8.498673155105022 1.3661710278537083 0.9794905456472678 0.588186899332 0.2530582575464029
P 6.206562790167481 8.003458102061954 5.620559070717733 0.7543318427246106 -0.26585566642138725 -0.10609374373698502
P 4.933527869000616 1.010676094516471 12.455458847765037 -0.7882786319837004 -0.9778437540724643 -0.08707812186643069
P 4.080496889802509 6.100845899228543 8.255155865435292 -0.4519744818327635 0.34630188479359714 -0.21723044921451623
P 4.860122481218741 1.124372823237635 3.72549625041704 1.7121073652922902 -0.2986017505041567 -0.5550014137189667
P 0.030936235114135943 5.8208311114965605 3.7366953827559817 0.3572956648009395 -1.1341624554032725 -0.0786983824431677
Ni 0.8961439907771905 0.19496522065828104 4.770627004523513 0.40538095034394056 -0.34784788912447834 0.20787214792806782
Ni 2.0104540105760726 6.524862559624934 4.590471450807583 0.27354737863869016 0.5605313423982605 0.04660253034988748
Ni 6.2141595957361595 5.8457738044501495 8.945982733992366 -0.429707442904447 -0.05447704800195779 1.4148937533849117
Ni 8.627080144789307 2.298156802022817 10.033385652771042 1.2775778184088513 1.2768249994032268 0.46780604954838145
Ni 2.266200971635478 5.4328833178758345 6.8510372889966185 -0.007085446091871668 -0.43373147646217564 0.2952634301595431
Ni 1.068121806733894 0.34889309954231856 8.746273385774868 -1.769032360614108 0.160797048817136 0.9412970652966821
Ni 1.7785553647172647 1.3328700248116507 11.564802249437637 -1.4889813765289452 0.48256161059100117 -1.3389423375592617
Ni 4.310662770885748 7.264169450658051 1.3225682822301614 -0.014835008130303482 0.023593471049223883 -0.22900841568605076
Ni 5.652762048080957 8.114956955462528 7.973531430424953 -0.6166762650209444 0.42541704305920924 0.4070529387297248
Ni 5.359450570650134 3.171351691319785 4.357072595445717 2.1086547765050008 -0.13371279100583422 1.7686181558948249
Ni 0.6550653395337089 7.633421624331847 6.893322221409272 0.5723627878155497 -0.012821834355016626 -0.40865962109521237
Ni 5.2151477441036524 4.790328540021735 6.862142487245095 0.8755938095616017 0.07871869415814185 -0.4717737759468778
Ni 0.7530285640927047 7.294784668297977 11.438425330485149 -0.006169619145821633 1.1605890250259174 -0.2449813940755394
Ni 4.772617860052496 0.21010593687091253 10.228382792780451 -0.3088103156060424 -0.27278273255852376 -0.1707328198736092
Ni 8.193086407211482 7.623152713082948 4.439681700130248 -0.07138976459689642 0.544196866904295 0.8066795030883914
Ni 7.4616225567414665 6.649247711066978 7.095394513591769 -0.6180523194328645 -0.28353097221396334 -1.0669414774720851
Ni 3.015302543557866 5.207158786506818 1.9463316820839434 -1.6609205580058297 0.3123954618541394 1.3285995608723569
Ni 2.5918513116671877 5.039490994933978 11.416080872713454 -1.145838349079304 0.5606239021120667 0.360769739392469
Ni 1.3166185151797334 3.656635266254459 3.5534436519805483 0.2758875967360926 -0.08120546513573758 0.9597115632481278
Ni 1.6127844945829422 1.274931842605382 2.4916820039544545 -0.3606902923047853 -0.5266349467611318 0.22569246393894035
Ni 1.0856500904109676 3.4204138282713363 8.178512943467485 -0.0503249735067972 0.29113526692378244 -0.3380653558164177
Ni 3.751900849652332 3.0199354093788617 7.096021956836817 -0.1073471565281119 -0.17789822727379684 -0.04001896359509882
Ni 4.323813543550857 7.029434542456075 6.095713267567015 -0.7677344892837616 -0.6344302465702557 -0.24101135368419782
Ni 0.7730447331949115 0.04964462280151831 0.041766926942904244 -0.003578461379877708 0.8939391448380088 -0.1234422623177616
P 0.1740179184845711 5.6980054483525295 7.988533525455538 1.1211256768239724 0.5234436935173437 0.4982756788921483
P 8.783539684208597 1.6842747212970839 7.739651048851769 0.001750407032203437 0.5422515702524662 -0.10516866081955437
P 1.6624236454956955 3.3729451932353487 10.395857244283597 -0.33682068477603927 -1.402813682291926 0.5198024972203306
P 4.069425434868083 6.314231321432585 3.439440497488547 -0.09725583373038088 2.8612099869451626 0.8496565208705495
P 7.100915649355609 4.0274834074847 10.121200347633968 -1.1233792487448395 0.12946250036991255 0.933798700037108
P 6.656798917562615 7.809552603861152 9.970571105693738 -0.7395821952192617 0.14075504256459628 1.0346466219941215
P 2.5130834728956555 8.327749589717033 5.972886692441523 -0.15087747571057886 0.504237295792222 -0.23655666034695388
P 6.949599685375376 4.004565313374146 1.4459238066029327 1.4484178532842862 -0.10604849232134639 -0.03505493472160414
Ni 5.644061744944677 2.777959368377928 0.12397931969197602 -0.7062941225900933 0.9258300800093346 0.5777232807965148
Ni 1.9477279257004678 1.4940627480126274 6.705719427084238 -0.6468677010026601 -1.0568804936916572 0.4058972278587268
Ni 7.22725244112382 0.7665787846376559 9.040257905523783 -1.7027580628669061 -0.6086492809514098 -0.9701127039767938
Ni 2.956297343042431 1.8708570083674532 9.341477174201428 0.059627738964961825 -1.0640194187292837 -0.7694977518317715
Ni 6.804977665317607 2.12926695529247 2.5988243219166627 -1.8541021938012585 -2.1609849533672847 -1.3596841980923033
Ni 4.185037324656982 6.616252221814297 10.510995815694328 -0.09033005314482509 1.3648667707345075 -1.543906053591283
Ni 8.382468477366587 7.487705226521086 13.509278961230262 -0.5951281065365234 -0.5046095915299761 -0.3875529210235842
Ni 7.7276110696059455 4.127536893551909 8.042179010925699 0.5921111740870707 -0.3658929195516473 -0.3754761923647082
Ni 3.1233723466657346 8.666714859076802 12.41901971651628 0.8976613308846024 -1.529863716565604 -0.26280839495463126
Ni 0.09738502831283215 4.968976588382919 10.526919012000347 0.49046826703258767 -1.051117623065951 -0.9373110840657406
Ni 8.890059118833062 2.5658507202190415 5.5907536926150225 0.4420078575383549 -0.5971785613076489 0.9233520507824873
Ni 3.7561780427036053 2.6706009108095037 11.541470115743866 0.1797838743322839 -0.32644062709329585 -0.13986029866446878
Ni 1.0396679851561264 3.5615155998903183 12.900420074390755 0.2984667675881892 0.5195232754170149 -0.863255599711223
Ni 3.0686352193869646 8.596118374194269 8.271146548369414 1.7716080917610844 -0.6902769212262305 -1.1304238142964467
Ni 6.012037144573318 7.954730932610026 3.322647591707879 -1.679433786318669 0.8072037510229777 0.1324434373751074
Ni 3.210375378028525 8.831920300705411 3.490641872643695 0.3113510797500251 -1.4451929185890853 0.020767828674970686
Ni 3.2592211050703592 4.258123518927569 9.284922467871231 -0.46413888510943935 1.9910941697789966 -1.354568988352925
Ni 7.462197105061786 6.133522194969935 11.50364294871173 -1.5459210271387829 1.5909983790933957 -1.4587457175728555
Ni 8.167651244269047 9.013441090668197 2.0335599728675575 1.0690394976516944 0.383245809007798 1.38571816026222
Ni 4.928174537825568 0.5888846688844956 1.3419050251440527 0.8494063525329565 -0.7527177041599553 0.917339268929504
Ni 6.2688055248688475 5.671840700241434 0.25137948184350994 -1.0374293269455812 0.8902868927974023 0.15779091500096054
Ni 8.12180593623333 9.139148615228438 11.120334404782225 0.8593747765995781 -0.9562899391610885 0.7897976397313882
Ni -0.26211441561889154 5.211791652327813 5.796389096364966 2.181315951615153 0.12655046892944014 -0.32874536396707255
Ni 7.597498674589916 6.455515489343733 2.2966711842231318 -0.6706295793089482 -1.1535084640300521 0.12602647810517004
P 8.68840177821524 1.3766816141897267 3.558702137083671 -0.18253315494264694 1.0236520706558305 -0.17785349007879045
P 2.16363041673639 3.1814838053495604 1.5513041763828253 -1.1147575685140996 0.38742976518215855 -0.7545701839876617
P 4.9609967506006925 1.3157156535335157 8.086279698426857 -0.8504887869638578 -0.522594458143171 1.4320347839405725
P 8.757219899249163 1.85060190012251 12.391509795750464 0.4416638439353749 -0.0670883090080651 -0.2716897566046611
P 6.514493330415344 8.021925726643678 1.0759903827778998 -1.3336679765341999 -0.3999235267737951 -0.1609808826931679
P 1.9695151627995986 3.417951478327106 5.657973110148116 -0.0957342548795319 1.4108447801265185 1.3244737116294416
P 7.184170436914404 4.0611537630183925 5.821229647394942 -3.115857443355556 -0.8310047100973171 -0.5886054749266573
P 2.3791042764857235 8.480360567371639 10.3352588121561 -0.006832449540801136 0.4981183273786776 0.32852064955077614
