# total energy = -381167.96298446466 ev
CRYSTAL
PRIMVEC
9.21750565866220 0.00000000000000 0.00000000000000

0.00000000000000 9.21750565866220 0.00000000000000

0.00000000000000 0.00000000000000 13.49075125120067

PRIMCOORD
 96 1
Ni 6.361701064591049 1.013538467956438 4.362437029724134 -1.1582786317251859 -1.0489630386167934 0.04138396226342551
Ni 7.427429048595154 4.310861399541669 9.942427263273556 -0.462034694282243 -1.4389952744188057 -1.7972728435170402
Ni 8.87490002219907 1.1449800961513743 4.532959959418629 0.06729091193717444 -0.10319919579800935 1.1020810014876956
Ni 2.426121183305245 9.251149378530702 2.085319587811568 0.8278229699352259 -0.2628387339719344 -0.9202119624916087
Ni 6.273554059652187 5.224306975452608 13.099896671159593 1.2572319077626477 0.6937263132274117 -0.1969812120471769
Ni 8.796772445720787 5.24727699911753 0.14754461027463853 -0.5030692436260497 0.5006580630813958 0.6755534989731268
Ni 1.9808880159349782 6.4345838804492095 7.387062826831193 0.5993606565606323 0.33413413908281164 1.2556270251693729
Ni 4.267336338648507 0.28779264320852593 5.8288674903570925 -0.3984011765919977 -0.7747823972694786 -0.9865186561386429
Ni 6.098154147806363 7.034578964887707 5.464320678987329 -1.2337358815232367 -0.10739909281196988 -0.5197245927945436
Ni 4.18179788776148 9.184691163994554 0.44142541585502665 0.7382889303291349 -0.3604254686791728 -0.14580211807020052
Ni 3.186399470596601 6.8535287221804895 2.536503576721993 -0.3157726058564884 -1.0370220642048336 -0.7124663128390761
Ni 2.63778276172322 2.4182309986113553 13.150527507029999 1.514521686891895 -0.8134453610573151 1.097845109029477
Ni 8.520892506599159 5.486213176261229 8.382154301063471 1.100444494325537 0.7577856056011659 -0.5600993970671644
Ni 3.473423373847802 7.329096700097006 9.216260198525047 -1.7402509176060417 -1.2260629383590111 -1.8098666210216507
Ni 5.393623333679311 4.308612328203692 10.768303771839449 -0.5379686266063961 0.9116879841809977 0.36827041864488835
Ni 4.125912152014923 2.104421024425058 1.6905660892217753 -2.1556398870052873 0.8631370718554876 -0.6602585204872693
Ni 0.7708655140897224 8.489294897801665 11.143994547338783 -0.7280770227931396 -0.44184536381856165 -0.19540872535373444
Ni 2.6243528562337377 4.403700114771641 1.6222357993219239 0.12334584594921337 -0.13208039760873383 -0.638923506454919
Ni 6.011398986195512 1.0584830246940615 1.7632949727383607 -0.2530952814319254 0.230728483700951 -0.21208824289194442
Ni 8.694181609689256 5.231367584652982 11.374254286570848 1.9246537787675755 3.5186387512931208 -0.13577841528561133
Ni 8.465541386170646 3.189828382636469 8.01919935289071 -0.5278425939159878 -0.5750351924413902 0.6479902446428775
Ni 0.6493612785565646 5.613147444274725 2.1544730009510973 -0.23447329545536394 1.0056489492101905 0.7000435136946911
Ni 5.7891557114824606 5.729518451004113 8.652373770067673 0.5373806153134101 0.907876066634075 -0.35091058721020213
Ni 3.95287192157288 4.7933425065708235 3.556161546568937 0.2952678010349173 0.5255206306510304 1.8804233481942905
P 0.7532573133645619 3.3578819426119306 1.5011970478156835 -1.6590256549759623 1.2089023674193244 -1.0752535968822063
Ni 6.709081193748312 2.1360001982115833 10.660296729585804 2.3520765394029044 -1.255345232262896 -0.12530065568273904
P 3.573138348168477 1.6692625905482736 3.7611948167937155 2.658528382079099 -1.5631499894225596 1.5325636319952702
Ni 1.6587546342970654 6.392118832686651 12.217656038312551 -1.447799760084313 -0.15166063373350655 -0.00952233766813844
P 8.585147737324748 7.248314482039473 9.494210389378276 0.5662170799291282 1.5877359062920398 0.6676586696060824
P 5.103354868497913 7.2013328565899934 1.0253267357193065 1.6997269893500664 0.1061860463404752 0.9621481977140786
P 4.699379255671863 6.445368361864923 10.82820280947353 -0.8945297272341561 -1.2537483200894215 0.04513083090036743
Ni -0.06332518442230238 7.44506213658512 6.612626451117156 0.9262219161311145 1.1682395995926396 -0.17497976807542123
Ni 3.662557368864064 6.97814017881214 5.102431274448465 -0.3040946552979279 -0.030380154953754134 0.8327962547801013
Ni 7.286585564807032 3.0464132148184455 4.6953751712898235 0.8920316434026508 1.4724432696646061 0.8831279131551177
Ni 7.4276963562541765 1.0103860810810756 -0.00799157725420826 -0.6979367517643335 -0.1515773299910809 0.6628085406026327
Ni 5.3731236014839725 8.25298570972077 9.659593638015162 1.892149378381967 1.4299853576107113 0.4906711270720131
Ni 0.8251040816063747 3.91889619636064 10.042056514793234 0.582142492910133 -0.9165707661945957 -0.40356009508511786
Ni 1.8368368402385922 2.2071685580498093 2.862305525542345 -2.155233395595488 -0.4952327783007664 -0.0019195856202160488
Ni 5.181878797711985 0.7400910285319079 7.910692721839859 -1.1643096684106142 -1.8602700131748673 0.16248626359410082
Ni 0.6236048029839761 3.4802535454110872 12.66718087623594 1.9189826965247272 -0.7634224921719691 0.21697385311901987
Ni 4.926710593411816 4.758574075887002 1.5406977458147424 0.16192370622241145 0.8378063064001829 -1.2434924466893682
Ni 8.09862014538833 5.513238902338896 6.097765169074958 0.03681871149024627 -1.486067802426576 -0.8744926060776229
Ni 7.334535028332281 0.22374296285521916 8.880772494942617 0.1043929589957944 -0.7116726132931872 -0.6399144096132786
Ni 1.817913301480934 5.313154510808218 5.509905852356058 -1.3247899573182798 -0.25273172744491956 -0.7166494976824884
Ni 6.8196267370121175 6.588801964693912 10.772890402568047 2.0182704730834726 -0.713947525370293 -1.058249863235358
Ni 3.4048727855668943 6.562983731834585 0.09677274657033642 -0.45073778121218505 0.8625498318934499 0.5896760822830167
Ni 6.960728310953778 1.653509873676945 6.602278879461362 0.9309352624463839 -0.5640444977578415 -0.08158521707265949
Ni 5.671485036479898 6.578607403629145 3.039020775420666 0.022161880809019898 0.36315983689120035 0.42725975269490285
Ni 5.439001113174659 2.586035685938762 12.46830029092141 -0.9176670845825678 0.9683327292582355 2.457116130843762
Ni 8.08978977513512 2.291499515718496 2.436686288090451 0.04942971538603745 -0.14421086232368066 -0.8486411922321577
Ni 2.6533787810013285 3.374049447230017 4.803206159188734 -0.7810844282281064 -1.0033390701300915 -0.2765020903916399
Ni 0.22313645099440385 3.1620283860981853 6.071134873982533 -0.6392826895665507 0.5388386879161752 -1.0831132021359413
Ni 1.5504765973822046 6.1391443946915585 9.83490598355889 -1.182192719338622 0.572033429500589 -0.45877042170867444
Ni 7.372409758364047 9.071315846547309 11.279441181666307 -0.07153220371203166 0.9691863355077825 -1.1073029120082671
Ni 1.1289324191045733 8.860446973600915 8.89582836839939 -1.6186004570813803 -1.7936388463088788 0.19882006502812857
Ni 5.815969434934009 7.677039097088763 12.404611015032508 -1.7170531393333395 1.145488421939053 2.1542401784442835
P 6.251413611480782 4.9077501846322225 5.003490570588405 -0.7213859839262092 -0.053193810414160006 -1.2476599478034964
Ni 6.284670371265307 4.080552807530541 7.036614190098468 0.02860095156614429 -0.5889523167431147 0.6133981084903048
P 0.3463671253046242 7.498726453510149 0.632114404046358 1.8636607840239712 0.054725159457021874 1.3249390813016342
Ni 3.848815502169469 4.419305351555233 6.445759184097424 -0.1792136036511107 2.417184584756147 1.2862632619979912
P 7.602275910111966 8.546360474250113 5.393561576392572 1.008532955626205 1.249678520895422 -0.15838663960343044
P 8.789886969124602 1.5056334332048997 12.066289850264445 1.6449959163557732 -0.20601529722498713 -1.6781153246175617
P 2.4914548621724055 3.7729369970291664 11.503212718788525 -0.3041702457308697 0.17146815537773694 -1.0325496302557766
Ni 1.404286960413643 7.007553238810039 4.011556091984232 -0.9541230134167569 -0.14136079446939526 0.2662007084656319
Ni 6.93708540938856 7.4210874048224955 7.584068571530377 0.4685187593446899 0.7096823223360358 0.5647446091486596
Ni 3.8527882470328647 4.812902053206844 9.03737330435481 -2.346623486708133 -0.676929296274731 0.1920503504044628
Ni 1.690425983138426 4.0079465168368875 7.779104535307734 0.22485736963215466 0.013599078840673353 -0.07634350905774594
Ni 1.6784985310427565 1.6407344110767919 10.978300668767101 -0.5210731364026381 1.3949409644120687 1.6023451715647823
Ni 4.030741407897622 4.6451250183958885 12.643896535634033 -0.8166646393255612 -0.5436397088492444 -0.09156392555192618
Ni 5.711774752948346 3.123029120397429 3.0064138497727284 -0.2745611646151852 -0.26935493782389736 0.9221814275131537
Ni 7.301149223470987 8.894653136450243 2.7524641996974797 -0.28837133102540013 -1.4920528163654174 0.8737693547583534
Ni 0.16307518526381443 3.8622085376370174 3.8689446906443714 0.7718811644622835 0.5204182764274585 -0.5548507470737154
Ni 4.797324468939703 2.6062588929695956 5.679930115003894 0.6884056723454466 -1.3648500585639591 -1.3080505330764118
Ni 4.361760464821644 8.564279304910068 3.4501648422612465 0.7248502883257257 2.0462571881043856 0.0780293814006011
Ni 3.720019298048302 2.54704563774349 8.004737086787076 -0.7483059482455048 0.28450182076766484 -0.773107580670217
Ni 1.8401551422126579 1.667861529714779 6.163181805491471 1.1823140754078347 0.10478633777947113 0.3946802760969848
Ni 0.23179261039397359 9.06534290299399 2.6985279663606865 0.8309980252290978 -0.8605112041968664 -1.0631455007647626
Ni 9.182469745173027 0.6862036479741774 7.225794272642148 -0.6259741453831026 0.7113589387075104 -0.8983277608240078
Ni 8.132264040403163 7.540371143284674 12.672293826527648 0.261940133417065 -1.4404433197192417 -0.43675329400763485
Ni 2.228553170771566 8.788356863214338 6.92223969505681 0.7748531026064139 -1.2383620674413383 -0.48600431772396296
Ni 1.937252344976014 -0.04505608855397393 4.417559556016656 0.7286974299859579 0.9220598143336248 0.5075221371910807
Ni 7.605612647097 6.913433290317858 1.5023169747319307 -0.6416943843318368 0.33560223898790587 -0.3549441338496274
Ni 7.731081331738618 3.481285906025241 12.161790581078055 -2.5214353617471224 -1.1000377458054216 1.770925463871763
Ni 0.7030025517178851 1.2222965321471055 0.6330370763452579 -1.3178088980147562 1.366067733021144 0.9948359177550865
Ni -0.3360416756619897 1.6043068294059373 9.787121513381797 0.6652624014597639 0.13225343285148836 0.09738310333686453
Ni 4.626468787297252 2.1705105387418664 10.122812002084865 -2.4148333109151507 -0.6992521281416474 0.14281655307931532
Ni 3.570280921468586 8.219627557375926 11.488831566733142 -0.5314930461843814 -0.986876553698694 1.0069830946405818
Ni 2.975078939881516 0.35234836461287766 9.817542968479593 2.3184601369000393 0.7917704471870429 -1.5776746654012956
P 1.6823422308293827 1.8564056043800963 8.57221189012918 -0.4877999761718051 -0.0016424206994294294 -0.0797461069813917
Ni 1.9405245594226619 9.01295981933117 13.039310007616445 0.4634647418605502 -1.3091082849169648 0.4838379062002635
P 4.951966558436649 0.6495391764123963 11.982538673690671 0.3146053250212646 -1.1070792260332352 -1.0678215660841932
Ni 8.021303709392598 6.7596484288308805 3.9117507861098186 1.0039381371666711 0.5845624152055352 0.16369005409421486
P 6.488423329978425 3.347899384173283 0.8445410354194647 0.5553364284608823 -0.6039824716033598 0.5020253757425677
P 6.36904741646141 2.2826783629707714 8.606761865933043 0.6189704603717598 1.3027054667144145 -0.30632637284192404
P 4.617131454242451 7.467663460030701 7.25386895084384 -0.22733899840342783 0.5262713927741258 -0.36815420478199823
Ni 7.376695898413883 4.834351188466986 2.645886792544327 0.2566171785422548 -1.003575868731246 -0.2602298355941776
