# total energy = -381165.6074542861 ev
CRYSTAL
PRIMVEC
9.31675110043411 0.00000000000000 0.00000000000000
0.00000000000000 9.31675110043411 0.00000000000000
0.00000000000000 0.00000000000000 13.63600698711807
PRIMCOORD
 96 1
Ni 8.321097843593806 5.77810926942485 5.003173591426765 0.17064257415264805 0.9317914397990921 0.9419413837489004
Ni 5.1930359350144055 8.440454741697762 8.970883467665516 0.038555748786011014 0.05944699041272343 0.34613373464684905
Ni 1.3612984507581982 4.913710420842625 5.054963547338112 -0.3907025223961594 2.2279516491958216 1.5675933699058937
Ni 7.887086311217359 2.977959731906789 5.50215641914454 -2.5163852009177243 0.3333910902692 0.18670297004962041
Ni 1.2828793569059624 7.355323426494747 7.607950858767638 -0.17194200969036194 0.7508474837204359 -0.7334056340949046
Ni 1.946669921203248 3.4174308804169438 0.7017032194728716 -0.49514201835917304 1.2035434171002564 -1.0054268058970555
Ni 2.7444353660512237 3.2475678747006596 8.214262658943268 1.5654012473505814 -0.4485055494475566 -0.4556146496885121
Ni 7.691592923276113 8.411675297607283 8.989264485874031 -0.6482100739631674 -0.5319687002692193 -0.38913492079872336
Ni 2.792248932601025 1.532801204664811 13.090512287037754 -1.6832991828113462 0.6495858712647716 -0.06283570437929824
Ni 4.871449637937343 8.098017555700503 4.26414280874622 -1.1408624931312676 1.7080347378848133 0.5946748210491888
Ni 0.3358194977041333 1.0463363637000196 4.91103558160715 -0.11672576952953446 -1.5699364162167737 -0.13508190343921897
Ni 7.092330176968678 0.6330424907033054 5.006350603545525 -1.4169233822204306 1.3614482319712617 1.4212518343924556
Ni 4.4239660834971755 7.069513453570304 1.873055475883696 0.8789226168245184 -1.4260292011764408 1.5676712743316807
Ni 6.722240873761792 3.8005450016356437 1.0071706055039842 -0.8053772393372001 -0.997112115383773 -0.2063701094612446
Ni 6.330909378089288 6.742374372848721 6.159793269352554 -0.715167256710007 -0.26447087025871874 0.22237754063309442
Ni 4.70885369806456 1.6975679475395637 3.9522468644689335 0.5533739054178728 -1.1415525772197566 0.7939677119486779
Ni 4.378873008263147 2.394870865476685 1.0921421703917766 0.7140017756469962 0.6360240734199368 -1.0673839643261425
Ni 8.462991962563695 6.170344489952252 7.567288830347928 -0.2917356195119427 -2.303824389264735 1.7198021628333866
Ni 8.102498912970661 8.405740527168424 3.7883009273644537 1.5067464138218503 -2.174493786486997 0.9144141248629091
Ni 1.7329716016489254 0.26987646522501474 6.793922093231951 -0.3134748109612472 0.06567883025504818 0.2041527900949516
Ni 7.8364870360942165 2.9595125647655958 12.717308393944352 0.8476801138704692 -0.4073930956779629 0.13784763910981424
Ni 6.917911279973585 2.7167832488415957 3.1338131390219557 -0.067537994950974 -0.3537747961318746 0.444631411204131
Ni 5.9956460904247155 5.720680815759033 8.763207496010217 0.9441044528384902 0.579325592286628 0.6640724949167208
Ni 6.652458408162024 3.6841321968734135 10.629444973452536 0.5044429840451248 -0.8758753453577626 -1.8693362371421935
P 6.306285204981119 9.270539996047154 3.065674148312949 -1.6399676099032467 0.7243779766749976 -0.36062370073290795
Ni 4.574431613461963 3.7020762594562115 2.92126916492662 2.611117496895303 0.7179751584724473 -0.9963333282362197
P 3.032388191724392 0.8300526457206052 9.654238277558658 0.1424691970422256 0.6021590452413759 -1.1508864530261729
Ni 3.3339248404742574 4.401950600691801 11.983240644564875 -1.5071693602918816 1.0732458224235581 2.2837512726639444
P 3.1651053108790914 5.153076389626234 2.6685122298136976 -0.47813648494011207 1.0634488909377944 0.8668502590410168
P 0.5319659898961862 1.4444318206576283 2.64548122114045 -0.14289137218130876 -0.3059070259163183 0.15494136136730735
P 6.345089473235196 8.902835781117107 7.10715499128942 0.6208159982209308 0.3024247237946727 0.28660112649885483
Ni 6.686921070412163 5.071098296860899 12.332663530522977 -0.1379214297705431 1.3413008104891095 1.914841163552528
Ni 6.3880396957205 8.467622387851156 0.9716402435799155 -0.31754409593461447 -1.6500455629645387 -0.3076332645788057
Ni 8.89677989291419 8.141368398482308 11.492358731912388 -0.9947628984253062 0.3240387025200226 -1.1874223431686777
Ni 7.880732286979837 3.4121948663091906 8.168704677830275 1.8081825484510086 -1.7877996139192822 2.3550968142864668
Ni 1.7218939846131278 4.572298077464319 9.884155197395499 1.5397634921778192 -2.640001526919505 1.747775508117861
Ni 1.8045056164519986 9.146198636114642 1.4341396057379934 -1.012343844731863 0.5559331815046168 0.22067855566411673
Ni 5.046585924765707 6.963293174491138 13.258985233492691 0.9145143978861993 -0.8731798008034704 -1.534242305249274
Ni 5.947562338093553 6.3725645721742765 3.64889997098395 1.9850230238842523 -2.3659088173003058 -0.3840785893217385
Ni 3.4260395584161674 2.5363270971457474 10.955331882828778 -0.877338045946218 -1.2270371293468223 -1.686613849006876
Ni 4.342369977526179 0.15611334447033817 6.372324199996376 0.05633441292567072 -0.4751910291585429 -0.3253075419301172
Ni 6.520440045338431 8.446436095892029 11.700539671476298 -0.196219651290804 -0.3341104849337278 0.15777343149946377
Ni 2.610227566723499 2.0537473413819045 2.368601354127539 -0.8627791742954367 -0.9578158888873117 2.0152293722643035
Ni 4.139413871968723 9.351782065477057 1.9334634265453483 0.44312551608256595 0.9648344862969899 2.7619597484925724
Ni 5.02586547036065 0.7497208228713556 10.714696972547879 0.19531950807403783 1.8211468219211606 0.06385411834148358
Ni 2.8478513030548855 0.13484972347723395 4.201812812336472 -0.7601543629436586 0.9731059822771628 0.6172876733526982
Ni 0.9292862931638214 4.856924823001424 2.6549982823701113 0.7912261446477986 1.3822561698555484 -0.5028270457082565
Ni 3.683526608053122 6.132024692754408 9.547468310165687 2.3079540951623927 -1.0617133963039262 1.8682442896295952
Ni 8.121691420198369 0.23835137459084452 1.8230384977031413 2.3774186177121184 1.353564715458127 1.378820404701122
Ni 4.704046254506552 4.408043755899045 7.487040858258411 -0.23371276314025552 0.663093161722587 -2.8301052951205583
Ni 0.2974437999998016 3.1649562428617886 4.047943873201646 0.1291472831223389 -0.2924856103040898 -1.1999027350238753
Ni 0.688228402383827 6.366564584477848 9.543050306802883 -1.6303385714539147 2.5164741610871046 0.7608123082426317
Ni 8.914910290518614 3.3041112370137427 1.5446045966098505 0.09302174104437527 -1.1820731630416224 0.11034197749037772
Ni 6.404297426357562 1.4397268613615157 0.5322594675552507 1.3208978213527252 1.6132533338368538 0.8570908656614078
Ni 1.07030836423249 2.0118592285198806 8.72269453560781 -0.9188330798662111 -1.6020191556839312 -0.12598148379984755
Ni 7.629030939764439 6.294853551404228 10.448713045924679 -0.9079336593448879 1.0959640899566803 -0.46246792516491964
P 7.841145411634922 4.6791891626213475 3.365326018319045 -0.6679204079079013 -0.943358575811401 -2.1557550724269134
Ni 9.160406681513793 7.006653334024024 2.1254714179070384 0.06357721053101309 -0.04353828960226695 0.2201910745047369
P 3.281136128846983 7.996418385157717 0.31144128682451344 -0.9894144896291992 0.7541518655033206 -1.2232025860920805
Ni 0.6243732538220526 7.694481116111351 -0.060094907825316915 -0.4479440205171318 -0.3102208228003238 1.0080760705944445
P 7.626645851487597 6.98298878627724 13.03215029491358 0.34507084059997345 0.5829297646981186 -0.04656884889847463
P 7.035917249170736 1.2463390591646686 11.451736765522325 0.07224619905992073 1.1121437850403362 -0.6273604842076679
P 0.48282944469282485 1.8763470840407583 12.569780435595533 1.5508377477141098 -8.04755289482485e-05 1.9431618648740918
Ni 8.425547939967505 8.016207164454633 6.464149166979655 0.48743770773637984 2.2911362522741054 -1.308520273623979
Ni 9.130220408010022 4.8857974346027175 11.251246803976121 0.12310313381078798 -1.4832277618746197 0.6730775266288085
Ni 2.9726771340436295 3.575498879264162 4.3803217630563065 -0.41961689143766445 -0.8265356185823701 0.41905176296281377
Ni 3.019624242742859 2.16320053308632 6.18551122903768 0.431618800994547 -0.03189864848080958 -0.30385117182855415
Ni 9.219726435649138 2.1909365010556807 10.62809497622084 -2.1718090405659822 0.8056101812836126 -0.4842955625629724
Ni 0.5570420254318037 8.938612105269724 9.127793394353315 0.11037103095610024 0.47275902267828257 0.002491141852969903
Ni 4.22695406512966 7.0741438788577655 7.378511888261271 0.22926783999502454 0.23525259682354965 -0.5658008183273159
Ni 2.7070938277169287 8.01155810566501 9.743922255143428 -0.35429287341887367 1.8730555949753096 -2.935634938823957
Ni 4.700226386563174 4.881381294590128 0.7579670792535124 -0.8443829311764361 -0.7589418306927962 -0.37514117762279264
Ni 5.6212524482182165 2.250712775994013 6.619422140502449 0.3211097017986857 -0.20596901736808398 0.176155019330445
Ni 1.5508850185138296 0.5185032845835474 11.163253816712626 -0.20694526523842421 0.681062344606498 0.3998021707045824
Ni 8.259458218439192 0.4270649627701477 13.269662230231988 1.0340678666725158 -0.2971418781291786 -2.0532354191944315
Ni 3.7999394128153514 5.843429011256623 5.179091553670857 1.5504155725750266 -1.6860968001611414 -0.7893749503716728
Ni 5.647115749220212 4.206373361990823 5.052808582812981 0.5577604645213426 -0.006782055918839933 0.2040322053566873
Ni 4.631962551389676 0.39826315847707394 13.477897206952173 0.10613359583598496 -0.9692637257129372 -2.981537614893343
Ni 2.4703551827382766 5.984009468324032 0.8744432379230958 -1.5383984935094925 0.5209816051300963 -1.1606625585763302
Ni 5.233358833694752 2.8571028368787266 12.425852469864573 0.33624270078538226 -0.3065325753154592 0.7680417361115353
Ni 6.823867994557823 5.996288946249333 1.2399645380747673 0.41392498325920973 1.2979679520294292 0.5686755687719497
Ni 2.636463537768752 5.4913862548944286 7.8330267947425805 -1.6567114050204887 -0.27029236203650225 -2.7060647370971656
Ni 2.511237086483508 7.437990958840107 5.715232379726624 -0.4040244363160461 1.7938496767681043 0.01740174041621519
Ni 8.33035869416873 1.1354045040383083 7.132831957269788 -0.35839686828491824 -0.7903049183851099 0.7702698541111056
Ni 1.7208877754963354 7.64482283284743 11.599591741834102 0.7936357825305558 -2.5483231872769014 1.4428501293885214
Ni 4.963023984316532 3.015878908808132 9.106411450621476 -0.13888096547033502 -0.9390890019017699 0.9917012287808469
Ni 0.5164722328477998 2.8614351261315827 6.474867157423709 2.5435370787421676 0.7076339244474394 0.9344337625179454
Ni 9.059087013503449 5.364752974195891 0.09101534131430358 -1.3281208214637257 -0.5208435368903352 1.2277580666732468
P 0.6334412476495898 7.471400828218046 4.775793622909389 -0.5706203512031464 -0.19247972463239754 -0.5697004104920382
Ni 4.0673301688518455 8.321013992834075 11.599496710973073 -1.0013996870155333 -1.3948023819516753 0.7107087067180211
P 0.6702796814254887 4.514888257300665 8.04838070096407 -0.4845557582028946 -0.5059900168172705 -0.7756948817814189
Ni 2.3903242909489566 7.396596633785398 3.1638941332385078 -0.7645846308008704 -1.1178313223434169 0.2503884240237236
P 1.4356368076367763 5.501783749101283 12.586675432006563 1.24386422820649 0.2983600668069958 -1.2856022313752247
P 7.013566363326431 4.591239032412828 6.905233045102001 -2.5539832137761564 2.1371927360436933 -2.8166476269537553
P 4.881474462100942 5.434824259079183 11.177420868407019 1.8870138569276147 0.5915018226378458 -0.5899128808841712
Ni 6.643188240836021 1.4106399644853505 9.107748404401658 1.0320942878859127 -0.3514870285389624 -0.14387353358891997
