# total energy = -340867.9283047809 ev
CRYSTAL
PRIMVEC
9.28966873886639 0.00000000000000 0.00000000000000
0.00000000000000 9.28966873886639 0.00000000000000
0.00000000000000 0.00000000000000 13.59636921343590
PRIMCOORD
 96 1
Ni 5.993369203766272 4.206083365323995 5.903298432528097 0.5057177369924903 2.879319294951364 -0.11415569480951307
Ni 2.003465722256255 2.481493501951999 2.785311192732274 -0.5121007577006987 -0.49699604084877635 1.0599035967886972
Ni 6.838775517482531 4.3076658942013895 1.2028969242125744 0.6494614298717654 0.04274227606353284 0.5268851150987248
Ni 5.0519634521516155 2.4258390958702005 4.8261947721504175 -1.4364557958264035 -0.4220362995124345 -1.260593625146029
Ni 9.107544892432843 3.7235222272293327 2.917277441518154 0.02057885259261617 -0.24386399264164452 1.0948891117249466
Ni 8.561516736753328 0.4111644591792436 6.132425327818658 -0.4879593845678048 0.3086131119935718 -0.4499093717736187
Ni 6.582492133242059 6.019631097605906 7.900266031423609 0.05958223043900707 -0.8113866787560737 -1.2126728902053503
Ni 3.4987215307223303 3.2590945227303423 1.2099654332407233 0.5950957106366912 0.7972240141024464 -0.2834980620934988
Ni 2.2620157856961858 6.605010290535045 6.543497819276284 -1.1961774636534883 0.6152264199482952 0.9348898762187577
Ni 2.3221478121638013 4.214063190866352 6.777015012065468 1.73395711417753 -1.6507402750387181 1.2471719524234843
Ni 3.8390671283886406 1.144988844467707 11.073644779672769 -0.3903744496327793 1.5365892082148955 0.4212611119093067
Ni 1.4463921503138033 7.716008236679717 9.850732334955463 1.200451151328178 -1.1755119648843368 2.6278389234150423
Ni 0.31178822665378164 5.7985276893013005 11.025920963888423 0.5363264630172828 0.882746361445983 0.48022910580308265
Ni 9.140188788772592 3.2033472199600412 9.841881138474955 -0.0976237585927609 -1.1160315501305167 0.6984730838837777
Ni 6.662968534491704 6.323040971923654 10.50016379460702 -0.13798570734957527 1.0790824837099933 0.8892273411846363
Ni 4.800965889486931 5.8608056292733215 12.020985700715846 -1.0244938498308356 0.7121266701114704 0.03593450911308005
Ni 5.2714876167516795 5.6440219169840775 3.1418356776681646 -0.12038573487962492 -1.3662009161648987 -0.597584538496816
Ni 8.663665935430586 3.2900941476835994 5.234656866661125 0.9680301104161522 0.08076374961262865 0.7608755573803994
Ni 3.781610526549895 2.414078375105795 8.770012206494386 -0.6190326810682629 0.6832464967420104 0.6134392461408854
Ni 8.234817662628023 5.249814819324065 9.292112033149445 -0.13609800340855918 0.049685797260901526 -2.286239586303437
Ni 5.317443608553827 2.038060449054556 2.3943211073951 0.25319838266869293 1.5817928013347275 -0.27728293442172247
Ni 4.505554420049241 9.118320908299122 13.15641826283731 0.07485458321704527 -2.0488581160623425 -1.8608323134362403
Ni 5.697242429827114 7.143913270206423 1.022909590239139 -1.3543098211542677 -2.197814206380492 -1.1352114654930772
Ni 1.2526468167731595 8.739636847287866 5.607468927992147 -0.39082773512011404 0.08946127738662658 -0.6432874398505696
P 1.6474670325772878 3.2806558441317537 8.645849279542707 0.8239866269082712 0.6675915638135729 0.5293292057638432
P 2.032040743639599 9.273857833858722 11.448550732362635 -0.033740843895870926 0.14545296226089788 -0.016261970384817154
P 7.888693890936862 3.845895034993568 7.235838259347107 1.1361941411213208 0.606146312023898 -0.1232723123988006
P 5.447238861729406 2.3409965502609418 10.247392834158825 0.6546841117232854 -0.7581872119149587 1.117245625043276
P 4.978222060818395 5.10629872525668 0.44131407943270345 -0.5469034672021807 -0.7570947501817284 -0.02192868175229127
P 6.431107689658518 0.8319595180555329 7.912719761484243 1.2672414694798497 -0.9197288522076031 0.13256967854032653
P 3.3517868385180556 4.211109076171976 3.4654970300794408 0.49536724699610174 -0.03860305708417868 0.39845516975838474
P 4.844088532289754 1.6637425324029114 0.34225741151568984 1.1108569479081127 2.599820069604613 -1.3840320308090486
Ni 1.602309952296262 6.882056084655806 3.9459522002457526 0.9864158120121914 -1.0173860351414605 -0.030414864846431494
Ni 8.44445761957143 7.981971455862141 11.638397191886831 -0.0652635970945005 0.760027093337175 0.056162663234496826
Ni 8.03076079666361 7.762874616029187 1.0306116546828745 0.517221880977348 0.8426939735097874 -1.3197043152652563
Ni 0.38928821800380914 5.050792953876484 7.444434057511748 -0.9398798732341813 0.11426779490734514 -0.2478471456591086
Ni 2.362000491531339 1.6728464078761485 13.063215015262832 0.5603379954405318 1.0796640672450761 -0.9368631978950446
Ni 3.8780930272285064 5.671342833072639 5.247437593065289 0.9761450262138027 -0.25420188423254286 -1.487649030870767
Ni 2.32094015521327 3.201535734534244 10.942398480222783 0.7099857125090676 1.5021407967290388 -0.31047381935139434
Ni 7.055215512024314 2.9606267522409224 12.455973515661535 0.3136280487096599 0.1726567763691994 0.1501467681921414
Ni 6.712909794230604 8.03272091679101 9.029484734051145 -0.2590373579479732 2.7689678043792894 -0.8954067305224709
Ni 8.993467758951871 6.143871128809041 2.2021633782609626 0.8093470226182256 -0.8650337746575684 0.44058423771795086
Ni 7.120874891457825 6.010703725840823 12.70852616889175 0.4514556332148161 -0.12498800953832667 2.029585126765343
Ni 0.4441827291736582 3.192208907008601 12.37145889536269 -0.6110650894817541 1.4404970557753127 -1.3846092434687574
Ni 4.333231062877255 5.157921415057473 7.54094071132937 0.535373097965078 -0.4035860632270468 0.1782018745571447
Ni 3.40573194553141 8.135529681956639 5.061398039835921 2.3959873818532413 1.0204621029636234 -0.2094909144784134
Ni 3.3577508059199106 0.6539285883419584 1.3242943167475347 -2.127692509862742 -0.2518053589759083 1.9945818712172811
Ni 4.531834893226575 7.678097098101881 7.65581675633146 0.5160607707897112 -0.023913830503120105 -2.265193307156099
Ni 2.526529816537972 5.538073243747069 8.985419189860023 -0.29864185971347273 -0.12860503746562368 0.31744485135258876
Ni 2.145467600301052 5.396814539210292 2.039142695475609 -0.5250364919257602 -1.2146670378172435 0.36270809406576243
Ni 0.6901536520234764 6.525249193786869 -0.28632710226903885 -0.8200019312289103 -0.7389034239846822 0.9136785322484652
Ni 5.361903963671083 9.031155945477304 2.2280508984459315 0.6691879617664153 -1.0096135902848933 -0.8471792629746506
Ni 2.7581026816368004 5.078773436453413 13.402213610945857 0.26923769551974275 -0.2533467353210992 -1.4800779033917284
Ni 8.831465223872504 7.259996972159046 6.579962556414138 -0.5382856436261826 -0.18609824658608595 1.4213541642982748
Ni 2.6820295834221697 1.6192357289414026 6.052192315892889 -3.4921242499423597 1.1356256702123604 -2.5716832021590807
Ni 9.012818139166926 0.5261947126842481 2.4241102884971704 0.1716692156449495 -0.3146048108006324 0.059170596822885196
P 8.695436602898415 1.2639895024393046 11.76069661126715 0.5323425386688703 0.21823626477121127 -0.13518603311725105
P 4.490198597439791 0.6398482372656469 3.8931980287789996 -1.3216061602736595 -1.6856501995420259 1.084802674023222
P 6.4921779726800075 8.232513824753163 12.962615333349794 1.0406020682466077 -0.40752550749076916 -1.2623044371895487
P 4.192975642576304 3.0695109608346067 6.64228880266418 0.1916942526166247 1.3180492961603363 0.851946859566623
P 4.874883784528305 6.4649127946045475 9.295293744730655 -0.6812947723322783 -0.07162862008057987 1.6829495127814111
P 2.71737677339734 8.904853607789414 7.030002421797874 1.245805153982945 -0.8669327914524941 1.3992326498088872
P 6.095406926417328 6.625689093395683 5.8691180249605175 -0.8485280636930612 -0.013270491856661015 -0.3084174510429979
P 2.345641384686063 5.482651079386527 11.151877725895082 1.7236125377184124 -0.18510760053804248 0.9281587281425112
Ni 0.9316144406465022 8.924138960322518 8.121016432311905 -1.107632270323228 0.5256859525843012 -1.6635011742488126
Ni 6.229466137595168 8.97958899368961 5.938608463827867 -0.23309518416091468 -1.3827667909433798 0.42898522002644185
Ni 1.2488194732068598 8.978186253693226 13.513907015399857 -0.881536914518914 -0.37913255817037284 0.654827322169369
Ni 1.4824639344592923 4.323012427141989 4.810504521462359 -0.10640947520519092 0.6645363219270168 -2.3006174522916636
Ni 2.055432129804508 8.919540574241648 3.0360830164438966 -0.6990261281737703 1.4324471888876427 0.10894329737063818
Ni 3.355261174668046 8.91925259450729 9.21117300639106 -1.4213011995731522 1.126919143577298 -0.9223860873247921
Ni 6.904945828702803 2.1074264063593118 6.138040003671743 0.27872043819919734 -1.5123714733181115 0.5678947247418671
Ni 4.408560987583866 0.9024402356223177 7.059302966318421 3.144936362999384 -1.0974481307013744 1.2317419910216594
Ni 9.54346260323044 2.162458404628144 7.4449505630998205 -0.3125078190622876 0.5517700512658626 0.2160713959094085
Ni 7.236791379371142 0.7031173849039889 0.6817530044822028 -0.7823740935738075 0.38132853738042716 -1.2475887282459288
Ni 2.7085701673273106 7.372067537168363 12.242252607192215 0.20951328307591657 0.06873021548686227 -0.26037715980531934
Ni 6.9393361827863975 3.3230538927642574 3.6931682342611674 -1.2285070290241293 0.5363586018067988 0.6066895861218777
Ni 6.766882770250509 0.6270080569808426 3.871933047813911 1.5111926225186618 0.48937734796125393 0.38785296876250624
Ni 1.4917443136406838 1.3478659224881384 9.752553540744797 -0.389841974168077 -0.7765626290983529 -0.1374527176642407
Ni 4.816600402161888 8.491370447265153 10.749561676295691 1.8060061096249802 -3.0251386394127446 1.0609932303084504
Ni 4.506947870376777 3.3330031281028663 12.3040614188873 0.016178666642391495 -0.4359953327956878 0.5878660256574714
Ni 6.643079353483335 0.6794185107001369 11.58679865522505 -0.38219139960135473 0.11587833392757463 -0.7876474261576047
Ni 0.24993946938264155 2.0901383326290115 0.6464977822286498 -0.5412593815425258 -1.72656339281662 1.211068778943024
Ni 8.711702813055187 8.02149899681992 4.261754492809724 -1.573054393020465 0.5367350113096111 -1.471199369955176
Ni 3.8141615262011417 7.385676902033968 2.8864273802333855 -0.6688542325760803 -0.49508879652373444 -1.150512871736838
Ni 8.355880627084375 0.615651436811422 9.230588414288064 -0.5597412423967973 0.2524933861818684 0.5092031244379295
Ni 7.412765576401272 5.71403815110835 4.06836030875162 -0.7804159414061721 -0.03774507995925758 0.3397139471634343
Ni 5.418162198228148 4.4250037014487935 10.187378786485608 -0.26561321139327804 -0.0031213192378010757 -0.19257125590493934
Ni 6.172390412179283 3.255768821281956 8.201629391693649 -1.3423161391275011 -1.0234702936623277 0.9909669217179835
P 7.945388739929888 4.583996383820683 11.288861324826977 -1.231677713442627 -1.53931714866902 0.8734417962156054
P 7.593468214876177 2.1980471259934204 2.08834821344157 0.3729755374300415 0.2844360005267359 0.08162506917165942
P 6.830219732471458 7.4283815097385295 2.7905728611690503 0.7354121230019722 0.5146299518804556 1.2187733466761332
P 0.7727778247112974 1.0556686784726317 4.267275343007423 -0.47700751354199133 0.9979754918253328 0.3115014892849603
P 8.760176305115749 7.503209792327228 9.317374358620794 -0.9889151813952776 -0.37523913665323766 -0.3328565579219687
P 0.3072437206522433 4.162542687422912 1.0246198182744684 1.2578728837807562 2.3769563333637196 -2.425213111487578
P 1.816539005651689 7.406439311914258 1.4113171476359452 -0.14001996417078466 0.789637202894124 0.2789122424950294
P -0.013369691409268048 6.01212504517491 4.897180847702655 1.0917238266230875 -1.546931470681168 1.1447880534379187
