# total energy = -381177.58584641496 ev
CRYSTAL
PRIMVEC
9.07958727025690 0.00000000000000 0.00000000000000

0.00000000000000 9.07958727025690 0.00000000000000

0.00000000000000 0.00000000000000 13.28889374877857

PRIMCOORD
 96 1
Ni 7.2262163721156965 3.1753404344971483 5.6947823934020345 0.348940865078341 1.6708789547701222 -0.12149465167308754
Ni 5.751900259843002 6.09725143424827 4.966883700176048 -1.4673915661733115 1.73331356705626 2.0501668075714368
Ni 1.2238738616779812 7.032476142873411 4.9153089216511185 -0.9252716364027033 -0.3580068319353512 0.5119017543160151
Ni 3.2807907589146157 5.301698013767948 6.169076415851233 -0.4906343602968067 0.7559904613739562 -0.5422582551206855
Ni 1.784166101171479 2.0904659715196154 3.4990059231060773 0.21638558471571764 0.5844742263671031 1.161238228574142
Ni 7.38252146380217 0.3151978656924723 2.581527267440636 1.7991692892088047 0.34636127727662286 1.3938546733264252
Ni 6.105550176844927 6.0734719956698875 0.8656641760414391 1.3881360256750932 2.6223167080452323 -0.4528630550853039
Ni 3.3014831378837393 3.958863402088446 8.103420703343515 0.3385299541576621 -1.2343969121460032 -0.4100559872221067
Ni 3.045293508663552 0.05562790620014605 3.299246835584444 1.7413076410053303 0.23320419893495323 -1.2973920249213011
Ni 4.55674513211822 2.762164744559034 13.020364858628833 1.204294693443984 0.9857444969767799 0.8133168058992509
Ni 2.194708710854637 0.13149965976736502 5.398732468915348 -1.6240301127373835 2.362091757547061 -0.6973636528696828
Ni 2.245445443491524 6.38811600655011 8.60596676896969 0.5836818123727948 -1.6098587063330079 -2.128436072896986
Ni 2.917589116298159 3.1655707987925505 5.1581243190935435 -0.8965606416212558 -0.06252228690393749 1.6097172956591375
Ni 4.226130127553622 5.235780211523172 -0.021747426988523975 -0.36968709648675685 0.6365154112340585 -0.02964353389804572
Ni 3.361263139258339 1.4112674595471135 11.437431461963055 0.1479423043416549 -1.0864008717482774 0.3689679589325452
Ni 1.2667113535499985 4.2736890047103895 9.13077235029604 0.09956648414142853 -0.09359663971123881 -0.7828201799722905
Ni 7.903190385252114 5.587850280372123 5.7599647490928385 0.615519782818998 -0.8177306186962303 0.1210583354666173
Ni 8.545162590171781 7.311328421460396 1.1059618039849006 -1.3847390841784024 -0.24645206508379494 -0.48631644964774307
Ni 6.688532304466481 3.103920402478223 10.325071272958608 -0.2316275984764527 1.479031207294769 2.7167875228313085
Ni 4.546893780129848 5.892597541328543 2.6966882102466414 0.26470689752892473 2.4606223442248076 -2.0124356115692503
Ni 8.2974351361158 4.714430321041774 10.172753935920332 0.20218795305909695 -2.5988330231009953 1.2129420847063368
Ni 7.538953669707848 2.1172598330105696 0.7237611253908699 -1.1534295311630007 0.0838020222183202 -0.01025510206910492
Ni 1.29747299459756 8.625153752399944 1.0988642907597297 2.467487960996389 -0.7031578909539568 -2.0688150188002434
Ni 8.60204620326593 2.07848091656602 11.59430675171853 -0.952959846346591 0.5460184934940661 0.8155919750866729
P 8.319652885715382 3.151751667247572 2.7397844703506116 0.33428377728679853 1.0044238185538379 -0.2656607768017618
Ni 0.11352116937826336 6.090187515495319 3.046319502004277 -0.1517745336035515 -0.196621514714913 0.3433407452827442
P 7.1408773330938455 6.771746720110194 2.626376795810924 -0.6301403609456502 0.21118192902759111 0.7730687570124815
Ni 5.056167819786792 2.3343073623027646 6.1008778213304415 0.7856136835570277 1.4302959468725946 -0.9769688076666786
P 5.2411825658393765 4.735340610100963 6.867687085013726 0.8072616008441065 -0.05525660648045967 -0.06282619129760149
P 5.49180640817581 5.505098923669798 11.383239946439922 0.9212496597275037 0.2830782009472609 0.5789790075804867
P 2.1665438317136876 6.9630354608392455 2.6162911904757316 0.398751617952881 0.8199862474996265 -0.08414603582130024
Ni 2.016658008097057 6.126642057645838 0.4819571939498315 -0.1581416134721599 -0.01696670976132562 0.8510731987124183
Ni 7.824760912002754 1.5526275508899365 7.027724794951276 0.22273260997966798 -1.2626160548926966 0.7756460308213544
Ni 1.3725793389734244 1.3274174728073762 12.72321176431119 -0.09955362862562209 -0.4725736461403539 1.4842374340860567
Ni 2.9206126187978163 8.106963558224493 12.457380521564318 0.20096796460906677 0.5152418744328418 -0.8169744572564961
Ni 5.4606452652964625 0.5486776316930135 7.723810430945135 0.5384530224419825 0.9845095961284142 1.5579417057487428
Ni 5.713366492249776 7.631946800643244 12.244492351116245 -0.7009907080993089 -1.8424011033142462 0.559662566640062
Ni 1.7889147252174868 5.502220694563518 11.113341956637205 -0.11774264082982303 -0.23322990996656606 1.0429826526636425
Ni 6.606661667711505 7.087861624098359 9.773396469568489 -0.7078738083723873 -0.9225889473642175 0.22748323729077596
Ni 2.4407292025384404 5.037681780479579 3.695973945557457 -2.4721899944577492 1.4137534691328812 0.9223228381870244
Ni 8.695230005530133 3.737839013652558 7.672435403336098 -0.3194431127295402 0.4188481315924399 -1.352170920434394
Ni 6.88074716307831 4.7849333147650075 3.6547244734667914 1.7548231589932617 -0.9677629727976946 -1.3263917545877606
Ni 6.382604697188873 1.302902587675022 11.905599487005292 -0.9511119945045748 0.09831641378441132 0.6452769594767725
Ni 2.3293771465150357 3.648641150119133 13.169758568625397 -1.3390030155938681 0.12348982772624538 -0.2407928099154885
Ni 0.5523076506100191 7.3048909942163816 12.215642871109008 0.7438276007591771 0.6413819952977405 -0.3642682394640307
Ni 6.601795009033379 2.3129612530634445 3.6712692970550043 -0.5608707280155503 0.9321807048177106 -0.21830774143909498
Ni 8.177648143689447 8.723258690864792 8.525754972775335 -0.714711400119511 0.643262500149905 1.2973514014913528
Ni 6.9567069886402635 3.9354017490580744 12.54670913115178 -1.7561138527802271 -1.6703487932982652 -0.5646440790150534
Ni 6.433177997258212 0.5764865910201892 5.132648813647484 -1.3427709672767325 -0.6814438963156328 1.2686015830521702
Ni 5.0147285843260265 4.886552053432158 9.33364028843594 -0.12242127725241496 0.9192732527274233 1.0167584288597908
Ni 7.70281297784992 5.951732892020033 12.048109054073208 -0.4316913061036952 2.3218336813579628 -0.5447820499838038
Ni 1.099174812638073 4.145421677945661 1.9110760296668419 -0.9163589072941059 -1.0049948605659595 0.31625545903017793
Ni 2.725465053557191 1.6271346425181215 1.3870812554672747 1.0752733943765482 0.3055450145912093 -0.31573532486064976
Ni 2.986112760036632 7.709777021144927 6.720432525734634 -0.12988159018520212 -0.6855476340713612 1.3493545340315214
Ni 0.38371333780256783 1.577796166292487 1.8319801147253643 -0.2735388939982579 0.5246284578540642 -1.0397777725730997
Ni 3.318970422611485 8.837361861775271 9.332192094295715 -1.2102375412909803 1.159552613341603 -0.9855997438687993
P 4.992329242984724 8.200701215300947 6.368715652823331 -0.24473328262047528 -1.1354140684221865 -2.3835267874923853
Ni 4.08640436188629 7.828311030553401 1.2640501265750752 -0.52504780477967 0.049274934975728046 -0.305992386541273
P 1.106483880242349 4.998403486745296 6.647463516158828 0.12186643319020948 -0.20031361885451954 -0.0023070508666218335
Ni 5.531820148464065 8.123143382411847 3.1884041443965674 -0.371626736711631 0.15036814017432812 0.6970327518928253
P 0.02874960454929121 8.938880724984475 6.052386470579937 0.10577029895929525 -1.039532489331513 1.3769080181697577
P 6.813358467725594 1.3730787162631575 9.350158781221605 0.45261211541676244 -2.856644479061667 -0.5737534975154893
P 1.7012149935532612 7.486818680659708 10.154494886290271 0.04453664895979426 2.308594042739237 2.6109388052255937
Ni 4.64130332665067 7.017449426245985 8.28745939378435 1.3036346633969031 0.16321877088475115 -1.6387077693542162
Ni 1.6885398899811255 2.9849505728896166 10.980120807158324 -0.48262203151529137 -0.4812776016722551 -0.653743602186887
Ni 3.3293120723025043 4.02340110709614 1.9581318976990416 1.659983133793225 -1.6508366914072667 -1.1679331240958144
Ni 4.476200115077807 2.1062372142880963 9.632680120950067 0.17655739697518627 0.28058911597681996 -1.074619305732317
Ni 3.7987812021741734 4.090308584333294 11.276702795448253 0.21328483430320685 -0.4206281063109982 -1.342783565682223
Ni 5.294615935840823 1.643132874963754 1.9464373895322002 -1.5540043183675496 -0.5010452712174855 -0.24430210862032764
Ni 6.334274055129791 8.879581941725437 0.7866881116494973 -0.7807298731021651 -0.36699900813163244 -1.6100649088065435
Ni 1.0613674120117311 0.4703325986035526 10.610331016152225 0.4944452494024646 -1.0525682394695486 -0.9667869820376704
Ni 5.228407586809294 8.849673781863965 10.542052521265076 0.6260543638017346 2.0428255367150174 -1.6882331297778537
Ni 7.174444566550999 5.271299556203828 8.220642712418055 -0.5611165254777691 2.419920495630071 -0.9159297901764871
Ni 4.466012818367251 4.307755615457276 4.034189472471793 2.9483007072170837 -2.9289678112164266 1.7864114753225038
Ni 3.898093725721466 6.892959207709057 10.399210641309807 0.05663651754712181 -1.5839579273068463 2.1157003704978723
Ni 6.898761063857047 7.439795499141018 6.9856127620874355 -0.5521024949046169 0.10680079710633865 0.2698665873529933
Ni 8.919931626735874 6.638467461273962 9.61391624627802 0.5787740906585322 1.9940738212326112 -0.6413737677676246
Ni 9.007703995096788 2.164255775768001 9.308125740765412 -0.08176082341857532 -0.5107954086257138 -0.7333932927997305
Ni 3.2917589001145724 1.5349041968979533 7.081238973277789 -0.9108135519958444 -0.8455417273712277 0.8332647097760876
Ni 8.648279460708133 1.1087991749492934 4.490809170699274 -0.1464441225295736 2.510271117600186 0.3321775295770731
Ni 0.7445906061249934 8.88265992174761 3.1615739645572685 -0.23267403746309603 -2.3404471826940916 1.952968823662185
Ni 7.644086208577303 7.766288371168546 4.658939516606627 1.072915435667333 -0.6109712442163672 -0.7926855028021446
Ni 0.1380814524460478 6.9424338777409815 7.17164351393495 0.8301547033921961 0.33145324981653884 0.30003616895783813
Ni 0.3073340353172383 4.07845972318599 4.584416081721687 0.14235478295154838 -0.5730413019398132 -0.06932645430996447
Ni 6.143185065316634 3.295490610406942 8.264389070957387 -0.07225956879635942 -2.4485091059010413 -3.8669234708447013
Ni 8.261552607951703 4.937443139049508 0.8117868142314848 0.5628036833722049 -0.5613168144140332 1.4129042337587085
Ni 5.775616141311783 4.0314093029060425 1.5221364815375398 0.20648298089002504 -1.9125212571700998 0.6901324252285662
Ni 1.1001009305208507 2.420527121271963 6.317061881890752 -0.6006454368103269 -0.6793553892177203 0.030741909168547056
P 0.2243239103829612 4.147936723568499 12.328119887972374 0.0012433854887978586 0.2408501455159852 -0.3206209350877252
Ni 7.8163168960127205 8.467341449257185 11.30369186806156 0.14444431849072542 0.9444523230962121 -0.40182228645840473
P 8.462647302733695 0.1082967749689461 13.297797089795559 0.1270934859171037 1.226907031526861 -0.5385347835225113
Ni 3.495032695797219 7.112576260146606 4.525147261100033 1.243852401131948 0.29485539608784705 -0.3870165889041399
P 2.298161526113171 1.9602828518797286 8.91915986183356 -0.6337393911508182 0.2701784621664573 0.9319027685659756
P 4.286037243147428 0.7390620455482934 0.03942719896249436 0.18632527499522747 -2.278204374703786 0.20064169161789963
P 4.265880559816381 2.0423532395505988 3.999916755098053 0.18723930216906462 -1.2878527179722983 -0.8419331840843629
Ni 1.35373011618277 0.14185674475643037 7.856101830706406 -0.3352489694135452 0.5042678919198412 0.03400129664610919
