# total energy = -381164.7324165906 ev
CRYSTAL
PRIMVEC
9.24005109124735 0.00000000000000 0.00000000000000
0.00000000000000 9.24005109124735 0.00000000000000
0.00000000000000 0.00000000000000 13.52374877071495
PRIMCOORD
 96 1
Ni 4.443263362107606 5.107558354292609 11.365479967728001 -1.4160677190883546 2.757095478421735 0.06525408401280375
Ni 6.139551939094555 2.6597117427355124 7.357433175472886 1.694656259695378 2.344536522272117 -1.785477650654325
Ni 0.622244443731958 4.6717975454315965 5.3197284071566155 0.435203947242644 -1.2759012020373768 2.454863587364159
Ni 2.9044806958043887 6.947492765345573 7.529469066477525 -0.6364092246734976 0.0881423014648869 -0.32547106409117493
Ni 3.3169935361519505 4.976913272094011 5.786555191748576 -1.0355382805704552 0.8166790375032645 -1.103659915939041
Ni 1.0984942324137514 8.661559200607513 8.191970564748194 -1.3881159710704352 -0.06086109715143066 -0.15212034697874446
Ni 7.964443546991759 2.579526579476483 5.838216317328346 0.5407014521565269 0.5295459497603396 -0.636524152984807
Ni 0.31520863445543573 0.4131605679281629 12.155929377287462 -0.19992563938748148 0.6972312410568766 -0.07229582135093356
Ni 8.174368267443695 4.635253143416217 10.474982057106109 0.6455358695651141 -0.9106166054936898 -1.0708845212802331
Ni 5.789049081534658 8.557008022654538 6.96041682478904 -1.227848569504524 -0.1190032527098015 2.044998633106936
Ni 7.398619779150093 5.146255688209273 5.563589063204476 0.0731900510304288 -0.6403972627869681 -2.2069169400127087
Ni 6.034760519813539 1.557613890401155 4.951734132905159 1.7668626066562991 0.7454939327180063 0.4029741406746609
Ni 2.1569328434023016 6.625292184239052 10.529955740997513 1.3259510675059165 -0.7033520092426339 -0.3550328369086918
Ni 8.526368013278304 0.32536160258046715 10.160594863191552 1.1568334146382269 -0.2095096835314908 -1.9494723804731522
Ni 7.389093286488182 2.497770607534111 9.496727685371482 0.8626873859125788 -0.389128235930504 -2.332989440864466
Ni 6.287965639517065 9.134270973731358 10.242738917279217 -1.2551045770069997 0.06291155192255617 -1.0575744344348883
Ni 7.342486468848341 5.838834476745497 7.534688771331757 -1.3254399321974528 -0.5118248783314926 3.1569526707339697
Ni 7.3692733769248475 4.7169813952053525 12.792316643200138 -0.20669432556988274 0.14420186346261618 -1.0942355373013477
Ni 4.255865886184998 5.406058204382833 8.848670234946688 -3.948225352348987 -0.38226878980650936 0.49710094185775683
Ni 3.7291090543031378 3.3350301158571387 10.031524285696726 1.6951095451827127 -1.598783679465769 -1.2671473671041469
Ni 0.05733266893173888 3.0297757884285477 12.449368451402005 -1.4729117246605923 0.3319736410963831 -1.1465721419215351
Ni -0.1130649610166854 0.28926996306793296 4.942754651267095 1.5965375637440697 -0.22480723312050963 0.7548920861034547
Ni 1.1086860087533124 2.3195023020770393 5.38738775717366 -0.2296121107083207 -0.02838060802522209 1.3931620181347748
Ni 2.3441270382011825 6.717803575636772 12.885116324191506 0.4093263081449337 -0.548935410030545 0.09173516102246783
P 5.995019060125006 6.289841369885996 12.581305292741373 -0.21478584432876557 0.9332605681454508 0.30084735200522383
Ni 4.102065235983735 1.104481785512605 10.859002275948077 -0.5613576949542977 -0.21077132385273378 -0.856305650755951
P 8.282273583938156 7.375759892781939 8.685546373207242 0.1643091757354525 1.1030348807605326 0.998065737546294
Ni 0.4377575838990707 4.617965007848385 0.7098586080580842 0.9923442616814845 1.113946899687346 0.41339456467703645
P 8.90886916772297 8.196932472177338 3.1217817490322743 -2.1435649581186245 0.9017301016373374 -1.4006259306119877
P 1.4927856920345548 6.911170124556077 5.599900615932679 3.0397597317600296 -0.06921435421213241 2.2562075587177213
P 2.40994392203318 4.50278777115516 12.311628857985351 -0.1367942581446354 -0.1455820316395944 -0.2944651026279639
Ni 2.849622512551466 2.464792865235024 13.342706753725421 0.267062799355611 1.6136397706419952 -0.23738789799899762
Ni 3.932833700481415 6.980784669381329 4.464135713488779 -0.12304271288649778 -0.17866827267060198 -0.8302194951918604
Ni 0.12301187600266673 7.410437804479466 10.701247807890333 -1.801485853157123 0.06434879858971498 -0.019669196294153223
Ni 6.788850328379189 3.8641339207129333 3.6525616991537038 -0.04837684864149088 -0.23080895922989927 -0.6377852790854177
Ni 2.24768862509511 8.893475242626227 6.151926215498852 0.108892903748677 -0.09304462386251072 -0.28699501950316375
Ni 1.8517986366377301 2.1706450792027625 11.43330194264403 1.0630331435566143 -1.118051408774023 -2.2800002902619445
Ni 9.357584528196009 2.478163219145581 1.022657437192253 -0.0643346575223279 -1.4709021504297313 1.291547650325382
Ni 8.910781858296216 3.7811397819260457 7.88664416492119 0.11469665491464763 -0.8957959955410895 -0.01147637607071572
Ni 5.004467104410032 7.930966841934433 0.6615192808410277 -0.20004056769879097 0.07774656005285965 -1.7424880344666764
Ni 2.8821290122455507 0.9913743202609585 4.43618178696106 0.48018359727712784 0.9203248339203891 -0.16878032413292868
Ni 7.776288386880715 0.507859079416158 7.4779437696486095 -3.0037797141209945 -1.8489635870231125 1.114372931481171
Ni 8.14076220167127 1.6720704031102591 3.4081466400411333 -1.2768432542356718 0.4710212140515694 -0.1878190859319346
Ni 0.6425559240126677 5.9054182848170065 8.31074957335181 0.16071785883976836 0.8391432800440517 0.22476146748423875
Ni 2.2339024688860216 4.29828696068629 7.611368259211613 -0.3313846013621325 -0.9528760283835331 0.7716939881521419
Ni 5.603619736491766 5.575382140395938 1.1137181405706513 0.4671195650043181 1.375091019565677 0.3596595370474258
Ni 6.9905421633202005 6.677193551146862 10.521381897601794 0.10806526564105905 -0.25955080724928203 0.17822501448559627
Ni 7.1704829180224765 8.37848099576727 12.352443087604096 -0.32901610112995594 -0.07220968939503047 -0.3996072810849569
Ni 4.467444575779982 4.728540699104529 3.2930599558484768 0.41645931964528926 1.1935528815464478 -0.3209744617724021
Ni 2.685186563558876 3.4432680741904274 4.02405887676901 0.7379860543767355 -1.2013764913559246 1.755675736801544
Ni 3.828485803652166 0.7735807723105904 7.976767003115124 -1.021393099418325 -1.7938956995146913 -0.11704330076995326
Ni 5.3331726814758005 3.2779358402432246 11.762077744097995 1.087691822645559 -2.645201068842573 1.3027723153966078
Ni 5.163192701836122 3.6576926995175825 5.383101297478355 0.4486937541989628 0.5325803657112892 0.18708400753812296
Ni 2.7712945995592104 1.6224698089209904 1.862530955965382 0.5840744198255231 -1.4294690800959253 -0.2803767428556978
Ni 3.903598178869111 8.557035742807773 2.5052605929383254 -0.364610710405114 0.6491274435711143 0.7418046567918773
Ni 9.199764455775608 6.574536583664974 4.432111544460991 -2.911305103829341 -0.07893518104432212 -3.236824504659948
P 4.474956737306784 3.860779782171446 7.590596624387194 -1.0908753625798633 -0.3049670306005522 -1.2366913646071347
Ni 6.039094103769345 4.293094051980185 9.459551263862334 0.4768668741990691 0.1014701289220446 0.3165110266844097
P 5.765413030875912 1.0816311391955293 8.386116973978522 1.1469184695173602 -3.031503405288508 3.021523925478293
Ni 3.140822722289693 6.29181874081679 1.5777073054764126 1.8702165828646178 -0.7117903698179741 0.4592072521357769
P 2.157579646977795 8.279603209176477 1.0580902610628915 1.404501868627626 0.606995804508387 -0.7095391118899521
P 2.039233072764652 3.6716359365950058 2.11895530946465 -0.6644990409311782 1.2974586164931785 -2.283516530945319
P 6.2062928280344 6.18959605573559 3.3812479273465765 -0.3589972208730785 -0.8137749764825921 0.07553515422383765
Ni 0.9432798543974817 6.695100770136953 1.779535893173387 -1.6091161717400289 0.3509558386258408 0.7581270481009846
Ni 5.011794464915265 6.38499541589216 6.441902118469181 1.3045687451753984 -0.3667444689186652 0.49019315899432997
Ni 9.189055236575651 4.180577949997561 3.1257032267099802 0.43603724177721676 -0.6230250900571077 0.026033447949284194
Ni 8.536088547012865 7.411546610608884 6.429162860047284 1.3364810205029627 0.36863217285968125 1.5811045170184512
Ni 5.381257907288198 7.094187816267486 8.869469589924343 2.6001275735427023 2.6323015871720856 -0.5360598396194574
Ni 4.750347219649736 3.5181771682836467 1.1293042587298276 -0.36315109514045196 0.46903709374200514 0.3276842696924098
Ni 7.983542732570971 5.86545506390259 1.9353296223922771 -0.4336646277799821 -0.3578391960092353 1.383206963804592
Ni 4.674948402849357 7.571787576411845 11.471735935104958 -0.6994673294762469 1.1789559575688793 -0.3042640909962566
Ni 1.8849889001116222 4.349384443150272 10.043331222964804 -1.8840807424412196 1.2158944824664415 0.3665243824880591
Ni 0.05492286361047187 7.592697812002441 13.217855183553029 -0.0926784987723436 -1.6743841397099035 -0.5871106355486856
Ni 7.365623556748849 0.8470955426960673 0.5296267917468359 -0.8856545362317135 1.0368199754963563 -0.6833441986621392
Ni 4.751816387771214 1.3518471929345333 0.834945799532977 1.3177361357952917 -2.852624816379313 -1.4039771064724078
Ni 1.8771625768481517 -0.19486436119912556 10.312845956826951 1.0105299314515759 0.9082959277803131 0.7433511753433908
Ni 7.33247025347927 3.7842351990373357 1.2306491389585719 -0.10268831759986184 -1.6928055796398844 0.8851372302756627
Ni 7.129817453226097 1.7578550373228465 11.448515686744743 1.841498646104635 0.1649316398107998 2.766064257579249
Ni 0.3112520445836316 5.400024451028587 12.130018426053194 1.273590551626329 1.0623281470697896 -0.7678669010965679
Ni 0.2785672119037321 0.21298040534358909 0.8753747190217486 1.169711556152476 -0.20718180672926256 2.729415238897648
Ni 7.256341472643692 7.730346852918524 1.1159570049469665 0.5808769959341481 1.0864553791352967 0.4182755469184216
Ni 3.281105177763143 2.4063587822147308 6.272869244065048 0.4754586809976327 0.006778970595046389 0.7262772505802395
Ni 6.179626040621914 9.27969089760444 2.821040262550411 0.411164389794937 -1.1047600909817554 0.42102637019068134
Ni 4.605269177666557 1.9548898865203066 3.2376261174133654 0.21119169921960404 0.8114180462146412 -0.0279211518903003
Ni 7.121048644752621 8.672296139960705 5.2884757823938795 -0.783214844307548 -0.21564305012273827 -2.768067404052207
Ni 2.810065853884503 9.103982086296107 12.598953790301264 0.06578990191161573 0.627996318019454 0.7619538780462427
Ni 1.0944563300924566 1.9335176483757874 3.075151831264736 -1.8972314208905647 -0.6172236528839822 1.7053741603335146
Ni 2.0503765743652957 5.6220628784444076 3.6262987019733464 0.3763845631115905 0.5245744646876772 -0.15718079222078737
P 0.22178340200605487 1.318324287621816 7.168533267244919 4.750362230372018 2.4635860548388213 -0.8753143306479699
Ni 1.6832046646598247 8.80713620534893 3.2794013123442713 -0.5807494692173482 -1.1129621671765735 -0.8415698872076732
P 0.34249080926974923 2.877490506604155 10.060560222205734 -1.6173817541829305 -0.5356888294332839 -0.7097694827332034
Ni 4.777383609105362 9.060821807708537 5.002272592278894 -1.458131223917308 -0.9375044310234694 -0.3381270622922886
P 6.448326725984047 1.997310961021598 2.093395480171365 -0.06292646432089162 1.526246688638307 0.0031318607607623483
P 3.5366387903384453 7.851474682506288 9.463513397764785 -0.5793016810272281 0.9450038247243079 -0.0034774170256391727
P 5.535280318715344 0.8607782103330772 12.355445180199494 -0.6060982323947819 -1.1637612521063119 1.2444992906873278
Ni 2.0010069814529894 1.8155406762057833 8.723804804697679 -1.8597820177948552 0.9307740542781712 0.13081284375021987
