# total energy = -340864.339318899 ev
CRYSTAL
PRIMVEC
9.26216690700848 0.00000000000000 0.00000000000000
0.00000000000000 9.26216690700848 0.00000000000000
0.00000000000000 0.00000000000000 13.55611750258410
PRIMCOORD
 96 1
Ni 7.843230786474513 3.399354214732285 10.785152508055766 0.10821644650694266 0.35304254595154033 0.49095677663323184
Ni 6.84805725514225 5.7106353633073965 9.481324671797053 1.1072751440941253 -0.7773295891713645 0.40294560142957053
Ni 9.357659923126235 1.085192532225913 6.761452288997998 -2.613029369206035 -2.5923708124154192 1.6314294905252484
Ni 5.995280278984283 5.8845881213878215 7.32488565216934 -3.5320406265213236 0.43757527568829807 -0.42937345660379606
Ni 6.053863485142565 0.9111230708415209 10.201168248785768 0.8295870038141842 -0.39316023990803256 0.08268924877011566
Ni 6.014008380620971 3.9731825079070164 12.033629634432758 -0.4994704705311978 0.23787203672426774 1.0263951806186065
Ni 8.713781861070068 7.289714425490313 10.006759994926599 -0.9418637364334296 -0.14738926005166228 0.11818204236008677
Ni 2.1634013905477403 5.211747263180357 7.853397867170156 0.15139581010789407 -0.8056582609127286 -1.2161706189459633
Ni 4.7026800415406 3.308603502647093 3.150387166268316 1.1203566598684318 -0.09611657791961511 1.0313424973215526
Ni 3.253234268431408 5.810296280028837 13.337986340426118 0.14259158155270282 -0.04297830333373888 -0.5700541942870312
Ni 1.3097074598586 2.641125439121945 1.8369350122990764 1.1010085943591232 0.07564159789471488 -1.6226599718627344
Ni 1.0586471616568007 2.9784906092577943 7.945755565226647 0.3326354430500981 0.9726228719931572 -0.4492113172653296
Ni 5.637751371329607 6.25841844293002 13.220888468145219 0.04407513594234345 0.3831884734073014 0.16533376034522493
Ni 8.569245745323036 0.45851801912127005 10.217069537059688 -0.13555292953836653 1.3118835336692567 2.4359914330500048
Ni 4.517881285924784 1.6519167433257982 6.1506003357479315 -1.2903988814329197 -2.29030912838712 -1.2382437966959192
Ni 6.711403243496513 7.01377594677608 4.518294378572161 0.16792286122863984 -1.8318963471281806 -0.5358047861858578
Ni 3.2233823042498835 3.887572298496582 5.482880529664564 0.30743631807665117 0.14872006304794388 0.11003370222133954
Ni 0.39445716741010195 5.244433450458235 10.792892901002244 0.4074337191079112 0.04283894954239719 1.2747812295003207
Ni 5.035997644705513 8.43086897061873 2.354264086886374 0.7655693633116428 1.5893050505513726 0.3648418525793136
Ni 1.405450479946846 8.6652295817528 5.647627619982031 0.689652143158038 -0.7824918500985942 1.0776424088293568
Ni 6.112743080644257 6.392617980325646 2.2371254610707556 0.3050637040794166 -1.5845744778449227 -0.3609720852112622
Ni 7.64886421236676 6.279869621659281 12.013133385119293 -1.2096857825525682 -0.18307668615094275 -3.9136512139185435
Ni 0.22987957474839865 1.8761352816150756 12.196194558209372 0.09030871298858639 -0.13271905963399724 -0.39111389890196513
Ni 8.025426873168513 6.454100244749152 0.6268782807782369 -0.3438266837802272 1.652768875432973 3.020439691275179
P 7.140482391083636 7.687524497347734 6.548594724728286 -2.0144115043486983 1.4107571055087187 0.1747905348827506
P 4.125739660260069 1.5619255289330924 9.73784686986787 -0.09213933843942196 -0.39576245341757 -3.105467358370484
P 1.448547342911982 2.2868846007457178 6.0115418655537844 3.2971965779901016 0.22282208436968076 -3.0982775254902637
P 2.332371102792093 6.339749531194979 10.604570817066648 0.37673320470026084 0.191310901135277 0.37895206672845055
P 4.035628037696603 4.449563542268897 7.4871523341691475 0.7040310375875295 -0.44405779808884815 0.47918806613307796
P 9.061428036555434 8.938037448027272 12.668585451035602 -1.801509507306207 -0.2739291874581411 1.3710685286698452
P 3.0058788370222276 4.311029310725907 2.495504723621373 -1.5614273503044978 0.2748355013224944 -0.32469947603247307
P 5.660573350772138 6.579491461345329 10.89642077243848 -0.4302599729738074 -0.2794164358249575 0.7529159362136904
Ni 3.525106655840742 6.382550004816705 5.779582934318029 0.6326065630979557 0.4513373624693969 1.1356889193501278
Ni 0.8168795955875873 7.748071282906104 1.451602931799194 -1.248846769022746 0.2807436392768133 -0.04255561397402348
Ni 1.6308360512757984 5.638659063693799 1.3578623922123583 -0.36554402085266074 -1.5289509749433476 0.36761581578002495
Ni 1.3715602109613674 3.970403857812553 12.841859292276279 -0.013419615840015598 0.4927290380423063 0.43047414586714244
Ni 3.5754928442203546 8.483783730584305 4.21226497176828 0.01939588802810853 0.5639665933320545 2.2493365426295004
Ni 2.814559515851403 3.1150612614006974 9.340639765080946 0.3308935206583269 1.9570908162503584 0.49684511709320883
Ni 3.945979523482215 3.2998878035174575 13.359215227147823 -0.9237549426478606 0.6635137941997734 -0.4915969813203921
Ni 6.75600057751266 8.325326577864008 11.915800050960316 0.18385521618818015 1.3100277114074406 -1.9077143226997595
Ni 7.590845998394353 4.65638773096683 4.327899421666095 -0.09303768188397527 0.3004642576341922 -1.0581637312794552
Ni 9.129819877547174 6.427026930662091 3.4474424594837765 -2.5383781602490476 1.0967143378591435 -0.5887278594371345
Ni 1.8362153419246103 1.0759488895783298 10.340091491341983 -0.6992104762704345 1.3304001044162055 -0.8860669411787837
Ni 3.83934419502367 4.610012060890227 11.09367621642778 -0.21835479262694651 0.8993315194981737 0.3268424905174048
Ni 0.11006233024171695 5.204300480927195 8.548257674942851 -2.082824445705458 -0.498490880226748 0.11077675103495115
Ni 5.3074347102667145 8.361504602093929 8.21666098240311 -0.3775482444023885 -0.3352713380110484 -1.0802541354205912
Ni 5.3140386353245574 3.3014438475703574 9.028401001532636 0.4077630774228719 0.6678743851613143 0.6352720257452609
Ni 8.052101914075367 2.556497019411555 0.5831886391262822 0.6254563252064197 2.133276945929055 -0.387032786854056
Ni 7.570432182367025 -0.12140107506052616 8.335752073018437 -1.5931419077989595 1.4676245081197241 -1.55238580892752
Ni 5.807749184108912 3.3531545258283315 6.648339927169258 0.34986800487830066 2.4056279902667987 -0.3736108570211953
Ni 5.3483827504921315 4.491854596706639 1.3207618561510757 -0.09074554341568888 -0.42734588465080603 -1.5924258555685413
Ni 2.1931514708924675 9.012245929883422 13.409494900607148 -0.11362913288208172 -0.5229487561587961 -0.3940066470687279
Ni 3.831851101935599 1.0475418234459266 11.601393014121626 0.2739870372792701 -0.9862219508338306 3.601164992122811
Ni 6.534792243492386 8.867737600637334 0.488355163835624 -0.09857352410053992 -0.7088726819505469 0.039072797631745614
Ni 8.149688105392942 3.1214243701170195 5.943191704313462 -0.17875877550187924 -1.0554021093739177 1.284239289589427
Ni 6.105036957715609 9.08702866609243 4.918552441162806 -0.9432233357851175 2.0941398707182772 0.25878770383101235
P 3.488493309762689 8.703778720729998 6.5353498259446745 0.9368958509051929 -0.029952837608348413 0.21859441944157834
P 7.447865926700219 7.902212265813001 2.2841244749852168 1.260893415774635 1.5162186149783434 1.058053688064152
P 7.364700929372914 4.185073101943856 7.976704169978787 0.04033212396014344 -1.074083487833505 1.1904634439878468
P 2.3284068953239907 1.9173241381820127 13.131824396667367 -0.361105782575649 0.2871608556570667 0.29091080961780225
P 0.6600433220890605 3.2618758702251904 10.15576881110902 1.3406549493749942 -1.2795778795580155 0.45993024634473045
P 0.6009016072617918 6.355022844547549 5.759303419711933 -0.04468294472967144 2.1855040215545714 1.210440658440722
P 0.5998707280767456 8.961785644167957 8.686000917425618 1.198152585101988 0.9074775456440759 0.20026271101192608
P 8.432156411829165 4.800034678683635 13.076339385364411 2.14205237812884 -4.303518899118234 0.6034463965942317
Ni 0.7393635939023265 4.304166044992581 5.919360148669944 1.4679996320709556 1.3265953859581345 1.1146400690996288
Ni 1.034667411341577 8.428831293882789 11.177683144733706 3.063683589565479 -0.9341247159179591 -1.5388600065269433
Ni 8.391884509793401 2.4479722088887743 8.799194786323795 -2.155910624168171 -1.3910061481340368 -0.8568576666046792
Ni 7.966593588501731 5.585948071401818 6.527650186532915 2.0369256262908144 -0.11322341280323081 -2.207009242616199
Ni 2.7578935782583014 1.175646854967696 7.9095469758456876 -0.47411939336091896 -1.3262369741774516 -0.5403309561909856
Ni 2.2420927612229593 7.461953682679152 8.01110941544844 -1.8934544703466358 0.7943695753727867 -1.9678495974287593
Ni 8.981967906020747 4.496004047514371 2.1014152642404382 -0.6680543623826043 -0.11419040470219043 -0.6119840017515976
Ni 8.612009170276835 8.759944501306096 4.369326315924458 -0.7443659897611504 0.6935861881051216 -0.9402807082170258
Ni 4.277009371402686 5.829450441346675 3.491256214173284 0.007440515438445251 -0.1405843213146869 0.7154518778299613
Ni 4.074853314863453 7.635971275928447 11.775142004528456 -1.1299497028735057 0.6127422200738609 -0.4822307096141437
Ni 0.6480025050130501 3.1518413264844183 3.9623179860376627 -0.6620143268361115 0.6362547013735042 0.47320922284182376
Ni 6.87399132269058 1.1438590978870284 2.158147889435807 0.15697716085041352 -0.5297030441634941 1.3682544562598178
Ni 5.83493364419975 2.010038429667293 0.27084706552447696 0.7176229173393512 0.8726609521855228 -1.2113081486473396
Ni 3.9908084116728992 6.176957684327318 8.970787544257321 1.4762346183862383 -0.18820063764106942 1.2199277719955506
Ni 9.26096289983889 0.6210681234307128 1.1393252671495615 0.00686458833031721 -0.05159895512321436 -0.8503646026811678
Ni 3.3394465186956426 8.497176824039622 9.530519745502836 0.9462371829107767 1.4303201152423108 2.2746138291390503
Ni 2.954946180790703 7.40492652057377 2.2669487125346373 0.26361597845759116 -1.44098736514817 -1.3764714448529713
Ni 2.765423720014299 2.044465904337702 3.9403296016234712 -1.6187968893629026 1.3354088704847067 1.835540371638671
Ni 0.5798607425298126 6.740051125970437 12.628458965021448 1.4638668408495046 -0.4954361525608242 1.2737538166770708
Ni 6.730335112806794 2.2278475484053404 4.202383165815668 -0.43185971336075946 0.0766813520131389 0.297986485517661
Ni 8.826131946556226 7.3802706320688936 7.737439241427987 2.387024516232999 -0.9359291161165494 -1.704823172926051
Ni 2.339391825364105 0.43598316685516747 2.4309918781615054 -1.514262005472605 -0.7316606263793399 -0.5625026071920184
Ni 3.969338708609675 1.0434386834731015 0.9481152395491195 -0.2974470680744232 -0.5621362249915351 -0.01439252127624618
Ni 1.791923659418855 5.7276036532175905 4.176070275637793 2.684842080272963 -1.0483215483780526 -1.0758745182956568
P 8.948892707729643 1.5109465618666607 3.050614177326399 -0.38171368863398775 -0.5735318684229864 0.7087598105217665
P 5.542823421935737 5.002338929894573 5.1351658141435355 -0.40735787156465325 0.8774702006487081 -0.4793752424432196
P 1.340504165072242 8.056288413551027 3.6202828313097175 0.2637465904981845 0.2797149409019828 -0.6400650762585299
P 4.226410153182498 7.822159356591494 0.3674977779769146 -0.33678006134609095 0.5297989463114101 0.941214789995521
P 7.006625553866326 3.6467003839744847 2.4600426648991256 -0.6129918741908217 -0.3451824264771733 -0.7337694451922266
P 6.941003100802069 1.7821983840882312 11.994086664938441 0.11656456136132183 0.05737570970599151 0.28169726143933427
P 4.518048004930452 1.2231895580839744 3.4442025534736316 2.5118667442220803 -2.8828579042322415 -0.43256959494359054
P 6.799931035506135 1.483447188098449 6.315089937823309 0.41666346523629527 -2.2306016852241584 0.7739722426633574
