# total energy = -340885.33872846095 ev
CRYSTAL
PRIMVEC
9.16326115326294 0.00000000000000 0.00000000000000

0.00000000000000 9.16326115326294 0.00000000000000

0.00000000000000 0.00000000000000 13.41135893443087

PRIMCOORD
 96 1
Ni 1.47753920181688 6.582327826389093 10.839408503956095 0.7486232223756075 -0.5048975550840401 0.5748351606154423
Ni 4.696711954058136 5.843494082652845 11.709202659227802 0.4335926368914661 -0.8056238081303674 0.012563181376991266
Ni 1.970137792859584 2.937567411642194 8.435409540129756 0.44527341566350415 -0.27204276906870567 -0.8759586491001882
Ni 3.6762637064617105 0.6248583530043296 12.898173358324014 -0.5231960962829119 0.7276471343445727 -0.275924363511299
Ni 4.7831764859432315 5.387356107588394 7.388411659777514 0.47001719826708727 0.17035178238510662 0.34328392390287976
Ni 8.103869008082217 5.320555934056989 6.452204936919584 -0.6647031865221842 -1.4905188962193943 0.09096408718439818
Ni 4.433872972223452 2.889139576647204 7.376743163073139 0.016586700714087563 0.05759425347470081 0.02269538471498672
Ni 3.032682062020245 7.073194561080983 13.08917787097048 -0.8753654956008795 0.3982098865167981 -0.5114803505078804
Ni 5.515018661448415 8.50018921458521 0.2300949845648447 0.4864234075392526 1.4736565732464166 -1.3589671174206208
Ni 5.11923908735123 1.3095491357879003 1.9941345410686437 0.5723571313885949 -0.9335760425033406 -0.8612514247970006
Ni 2.2699871863394456 1.4431586461118273 6.193808304073655 -0.11280046633319928 0.11934829475404606 0.45231952387700813
Ni 3.134357607356936 4.7620734955944215 0.9435758174469508 -0.24579900488082831 0.8538173371164587 0.5322574351542317
Ni 0.13837898773450263 1.1400746214582227 7.630580157188035 0.4893742626374604 -1.0281443020992294 0.36554813461771885
Ni 8.010440397749402 5.26046326766207 2.1255659442254355 -0.32633366920178636 1.5077440018484292 1.550235852464053
Ni 5.603572416867825 8.371564518308071 3.6450728819509353 -1.9282944608439567 2.4632142733216997 -0.6085258679996681
Ni 1.4197556772230466 9.019003895679129 0.36400596617946895 -0.5135919975342446 -0.31021773747653025 0.4068449364839768
Ni 6.1200779561606575 2.0707778896902327 4.170436545764044 -0.5073894682679585 -0.13255656591420395 -0.3073023636019482
Ni 5.5488127684420805 0.8642622945363287 6.330187868232773 0.7462282397808697 0.6640843219912628 -0.2820764991556239
Ni 3.6826230096758117 0.7380227951275333 3.815102689904207 -1.072147961373689 0.6617253348407829 0.34646026474833236
Ni 6.95606059424258 6.515216101979763 12.89503494139198 -0.49778408396771046 -1.5339499708198356 0.600985593758565
Ni 5.499551076685587 4.122294604515854 0.8900248031623297 0.5613803206621171 0.8141063916800819 -0.434625963251987
Ni 0.9609328666517779 5.507330685372578 -0.16978789785982493 -0.4921063168566428 -0.1687073048031482 -0.2085257223516667
Ni 5.168555758674415 0.1804475195153921 10.518595401696377 0.8836994693878717 2.7231468893904327 0.20889621831720798
Ni 4.185722697956786 3.0779668984526465 11.73964667795767 0.42212911633655686 1.0579647278947717 0.41175008709507793
P 5.040306756103009 6.240584003089535 9.47783403685929 -0.41718771317088155 1.360828853219708 -0.005678795552332155
P 2.6424004445923113 5.013201829723599 11.95260544791057 -0.5936908598693647 -0.4898494025016661 0.5245693224813547
P -0.014801415679736592 2.3511828430831745 0.8079366447859585 0.8951686463697357 -0.7030149376181893 -0.4803522616445083
P 6.641082656661162 4.060424265464544 7.7367713576024055 0.8812785186512049 -0.3621987585295117 -1.0165473412902495
P 3.878414409928973 2.621389086854655 0.7570686333559321 0.601661536779667 -0.29988395965069 -1.057081811069186
P 1.8273650214202377 9.098476859333159 11.663631012722488 0.6725095699404805 -0.7394664955770038 -0.11748527340337832
P 2.2190486177988302 5.181906630119582 3.0676609786761344 1.136021105878566 -0.27221888963525376 0.6988224968033965
P 6.751371667446346 0.177287110756684 11.93672643272366 1.189524734223661 0.2571108303492217 0.3813293087113755
Ni 8.107369373828307 4.168019277481796 13.649678975856773 -0.4450420163789884 -0.6243566643843377 -2.8417696188323633
Ni 1.4783638953172678 6.886245707804202 1.8681351191010724 0.31007581258202727 0.05040107816037126 -0.27191807056538336
Ni 4.198175569812641 3.3117583425514514 2.968725248412954 0.06259967710909219 1.072735972666675 0.390725662324611
Ni 0.8449910400844906 3.9495396427068563 6.212423469029629 0.3774119759348403 -1.0744745526243367 -0.13952708369476616
Ni 0.5996309788274691 3.7532076100478853 2.475187423105919 0.3810007217273632 -0.37220420648165575 -0.6430521839113119
Ni 7.25641396708379 2.895242308550073 2.0613663041985855 0.24369095739889 -1.2729398054162078 0.75782982857554
Ni 0.9234551286897135 8.804088769478087 4.815482479331753 0.5153159222038868 -0.006856360800201094 0.9983706703812225
Ni 2.163445949350467 1.8522524386097163 1.7328954646247121 0.35262525590846366 -0.4604544942793167 0.6304270389481336
Ni 1.3423261207977548 8.459861702416251 9.29893969010296 -1.3108543210737942 -0.1868137845958718 0.13703748450369302
Ni 3.483752753687869 8.079723815043087 10.78250465242934 -1.2419531272267064 -1.5130489590011105 -0.3616508564458417
Ni 6.464011798866801 7.509100055602588 6.430170042915335 0.9723207673717061 0.465315936136676 0.298794326130937
Ni 6.336889877412591 1.8826469757295616 8.933373220555538 -0.24072133324760478 -0.9923162366570264 -1.5947604172389889
Ni 0.9902278124377729 3.8748773911384213 10.546866811215779 -0.684919256458743 0.08724164402748846 1.0751021589060066
Ni 3.6593666529648776 5.172944960748701 5.265568120429469 -0.6004816575389529 -1.0099388348347962 -1.2535272052175508
Ni 5.747884616174562 4.017375264744304 9.653898768583177 -0.8530917718043437 1.3004763202735796 0.9855925447799476
Ni 7.673443143707631 0.3470997494215206 4.7533876403831155 0.10903405731223158 -0.270987588331314 0.20560340649854916
Ni 0.26527366031305044 1.4306874477337417 11.781180991615532 -0.44654765439023736 0.004493002774347101 1.502745263082257
Ni 6.807551621344981 7.299618743242991 1.7049053672215528 -0.3502667829786161 0.013298259770802902 1.0539229537252301
Ni 6.6980964673212995 6.593342066249827 4.20541362976771 2.482641528808376 -3.3276880617107394 -0.5656406386003677
Ni 8.110329107168587 0.14809296084295853 0.5828915334218213 -0.524190084765065 0.5400000552141281 -0.1332934440802285
Ni 3.78576467679097 8.71393144336348 5.9680145542763885 -0.6478562901681746 -1.3567675386661406 0.6124552849610613
Ni 2.9707659066633574 7.445919370211773 3.992548325078188 -0.3325122872086725 -0.5289209145818311 -0.38204536094179364
Ni 2.080426803644769 2.8261696462620427 4.185551344973927 -0.05610661318558079 0.5882226376659418 0.09489993190369464
Ni 1.9577765536148835 3.093626911698898 13.081184758299498 -0.8379757420985118 -0.30578849806058306 -1.1268116714651562
P 6.1674795059107215 4.542466779702285 3.1833737237155364 0.5131438542532323 -0.47755592984629364 0.28060299993389093
P 4.065308283639062 2.5172302977556855 9.474038614105284 1.4841399892762441 -0.42250244051557556 -0.5168953508758646
P 8.575254649642725 7.026910929187001 5.382353883345487 0.25812615898761354 1.92772907525879 -1.4387615611414448
P 4.86643387643793 6.491877275918791 0.5778526561344524 0.7942150520727935 -0.4669336742457571 -0.8600095819700995
P 8.733604964978284 6.998752227779318 0.6487973726683622 0.30699100300911647 0.46031282649512983 0.3948476549127845
P 1.793442628770956 8.492766973081721 7.034565917522823 0.5019497853096259 0.7861996379674847 0.9739091949047486
P 1.7047056081292369 9.001153863026293 2.6928671051854827 1.7852333958540028 -1.237607705773817 0.3164292656038808
P 4.8926591297502595 6.979710971181476 5.137328281119179 -2.485222402161675 -0.625075030607601 0.8182381544602684
Ni 7.108308177675269 6.294830508892817 8.427697739575018 -1.966629608978729 -1.49544898653116 2.440836676957448
Ni 6.52256503739433 7.34418884530839 10.8340580757908 -0.14571701455556196 -0.09088284032450154 -1.417489796246862
Ni 8.677333378468495 7.734433809691861 3.134315456355805 0.44173789170641986 0.2721219590460733 -0.04587850769966938
Ni 0.3080404325909348 5.438542084179127 4.197701829212973 0.8872735598923751 1.0395522868258549 -0.17667001129365056
Ni 3.762425850729997 8.243562923786781 1.772029003870333 -0.9334713986046763 0.8845595033953217 0.21541859281675804
Ni 1.8688929207953175 6.550155616612857 6.072623259496125 -1.2367052485642056 0.226967473996622 0.3639216547578894
Ni 4.601643119985662 6.15291908399832 2.6063228529286833 -0.03018218001033512 -1.4457413348933874 1.6411333480765735
Ni 7.8684831565493285 0.037507976723745305 9.88985824026189 0.4798305848130833 0.676293719573261 -0.5830326088245701
Ni 6.002366703871983 3.992753582127173 5.601280685262859 -0.5435278658617285 0.47895949506203966 -0.37560423330214027
Ni 2.5112283617250863 1.8953380923744172 10.593672748993342 -2.1976293440631958 -1.5582726067256 1.6768020051227768
Ni 5.101563156659586 8.686065966311489 8.28103149848773 2.2455637058506293 -1.6227196214560762 -0.4682446797476968
Ni 3.208506716302908 0.4787886402156557 8.72387449799982 -0.651716030233897 1.3564546354114124 -0.6993590860331569
Ni 8.214130529084056 3.543799603777211 4.579268268994031 -0.7515558226413701 -0.42748395289056695 -1.023082828415922
Ni 8.8442696694692 7.2953303370409746 7.536821669455066 1.668777077935771 2.6728576542175775 -0.27941180783926717
Ni 7.5385232870442 2.2580016408004773 6.537836528369287 -0.20725354050746242 0.14182462147969124 -0.034172532116650826
Ni 7.26595292190494 2.5336783514578634 10.989830765774594 1.5984723188729375 -0.7840607372476109 -0.4920664647576429
Ni 9.348908785617565 1.2794569862848637 2.8727263433372645 -2.148281132647371 0.221280965134806 0.4936096408750467
Ni 3.18363762563566 6.961338632645061 8.30944952018498 -0.2706212061308307 0.3259035236429032 0.478034412144609
Ni 5.979678469350206 2.005306389020563 12.968154099788581 -0.09503800014345568 -0.8075421081990027 1.1923637463343528
Ni 8.77538027240348 3.7691425211275993 8.47565733192701 -1.8257421546013266 -1.3490488298656442 0.23084624022573794
Ni 8.847595933254098 7.994505486669689 11.913283145485972 0.17804426593335787 0.7281734391616879 1.1968467218063712
Ni 3.147845927718833 4.698187239097718 9.885606487104337 0.9529750158552426 0.4551860467915258 -0.9685623287705384
Ni 0.9434768542269043 5.582020426724359 8.59647951136437 0.6332801921262126 0.5713263761312354 0.11908115713558846
Ni 8.032047367459562 5.180522977691153 11.051281427466817 -0.028096758236216126 -0.6691987603996926 0.10369156205339562
P 7.31380347144966 0.026568875604157893 7.591915776911525 -0.8824283159849319 0.9720716274753773 0.468816750201083
P 2.513189299603786 4.762907352355924 7.286834161334758 1.2888909294288253 0.5376014730749645 0.2254644070885343
P 7.053548529249524 0.2670018513594185 2.512873167095304 0.5433679432450965 1.0778954053804275 0.3598012048316126
P 0.21140559719383575 1.8192555353330917 5.200468648161086 0.5871885399744726 0.10031570360262723 0.3695084048170475
P 8.700534755612736 6.979765950748169 10.058331210151652 -0.7976145646726457 -0.11655427694867669 -2.258071351399337
P 0.3002315014683746 1.869845899951321 9.725072566644974 -0.27830109127359165 0.8671323090578098 -0.8526300016765769
P 4.127334398129335 2.6130596825007393 5.2322944866671595 -0.3334214292865032 -0.7414205339795811 -0.7838491354574372
P 6.2501504476940335 4.015286041209989 12.071228444680228 0.5442984254791658 1.475018229480634 0.3615007040212226
