# total energy = -340893.25458302174 ev
CRYSTAL
PRIMVEC
9.04685401772940 0.00000000000000 0.00000000000000

0.00000000000000 9.04685401772940 0.00000000000000

0.00000000000000 0.00000000000000 13.24098532496837

PRIMCOORD
 96 1
Ni 6.227700339772701 2.0914787954520557 11.39427801166635 -0.17607222980865161 -1.0569671398681926 0.38188415277358106
Ni 4.46567177126286 0.4793140737229121 5.976424880955222 0.49973323727428126 -0.6851784236574007 0.06017846926210926
Ni 2.5846770756580577 1.5091237713281178 4.75477122101352 0.07933755868906336 0.17990908705623854 0.5632212305255978
Ni 3.371490995017443 4.231104946675927 4.714453012495543 0.17474554057742808 -0.0242897257853001 0.35204881457970333
Ni 4.980700109619444 4.352957020123991 2.4869222019157085 0.19829633131417462 0.724556668344707 0.10420963934039473
Ni 7.564743905513498 6.330753051083629 2.461817182699851 -0.5973981335176227 -0.5137264662295797 -0.06534792927819068
Ni 5.144113429293687 4.473008769671531 11.820610995647343 -0.9313175854864671 -0.5799963931014075 -1.9682049238856492
Ni 5.531490660934688 7.987286257764242 12.54192750307197 -0.30756050235934124 -0.39979060074035666 -0.5218254411876303
Ni 1.8199465263548553 6.587584182802175 0.3309845733418579 1.042195637985973 -0.15438163220909543 -0.07854128804001312
Ni 2.920496287655395 1.7435096588396213 0.513355575094237 -0.4210019447106491 -1.3760842367168817 -0.599669960270935
Ni 0.6129162008493741 -0.13033983165646634 4.48963417284738 -0.32002778158841655 0.06634243198097607 0.7442124949024215
Ni 8.4852250893465 2.2361379872580205 1.5519361974308927 1.9194431811009138 0.9409188560216568 -1.005895518003358
Ni 6.733681824357805 0.6002035619296905 4.841778432475352 0.21582097046149928 -0.18259871807325972 -0.9880970563693563
Ni 1.0031965678656432 7.4795496835474715 2.3910698815215006 -0.5016533371151296 0.12050786227978602 0.5712834387084419
Ni 7.905023216420175 3.9784353676922635 3.585420136780876 -0.5682495369781245 -0.34639932960340986 0.5333576101969459
Ni 7.558908684830894 3.5998064436482835 12.7847803410282 1.1924485927386754 0.657830627772067 -0.2898841681255008
Ni 7.824578592684174 8.775448158335578 6.896831880587298 0.25749958114720817 0.10847818480876156 -0.11568884362458787
Ni 6.795643725838671 0.9437044574643909 0.34450419161795753 0.44761389087122266 -1.5539773217843558 -0.11882404681945986
Ni 1.7182056088407918 6.435669414271483 9.517911686451036 0.7511624438576934 0.7700479679082868 -1.1486012565364219
Ni 0.13775553769294846 4.895189247771416 1.3636232221214055 -0.48803497500074666 -0.56796028787248 -0.3773343286193695
Ni 6.612019734838942 1.9423775984442941 6.733901662904452 -1.1722651758122649 0.3313889722375067 2.279334374543171
Ni 3.308913907480116 4.213798315411086 0.4354314048189713 0.9946320292743968 0.9680972162086617 -0.15002489790229648
Ni 6.036838865755788 5.45087414697703 4.5944229753970545 -0.23685002321765658 0.44875057557882714 0.7638888902854263
Ni 5.509760118175594 2.78170850394712 9.290616722925618 -1.2570239055168997 0.16294469128775807 -1.5262891118404682
P 0.12468011993702845 5.6733996091941234 12.499449810558739 -0.41224348179172876 -1.0971727655528007 -0.4667999768813702
P 3.866299615194769 6.128193995140193 12.612356354997564 0.7980429104593159 0.3728827206059191 0.6057228513332341
P 2.6273239443368146 8.556351453697875 1.2869809910255585 -0.8967503890345588 0.5163672462865365 0.4205412030241467
P 6.301006995883004 7.578368467293347 5.700998845994777 -0.6271038881121717 0.15089238810891434 0.7375528234940587
P 4.710226322413507 1.0559940064760003 12.621942401253822 -0.06483499419751414 -0.3389485297523195 -0.5459053649549696
P 3.9025051239882322 6.139213063033856 8.338484216487718 0.28419020306451703 0.45889512021199685 -0.7568008730903935
P 4.690250869286079 1.206587934356056 3.7685166962057277 -0.15803645535286331 -0.9079220893806621 1.387196287469643
P 0.37963222012723713 5.637103631862946 3.5214398822235924 -0.4472899318729006 0.08242493936513547 0.6116546434366369
Ni 1.3773834867078265 1.0001839655597404 2.5389063283720095 0.1554571246614613 0.8179003115048753 -0.1503977078606829
Ni 1.9288344583483885 6.591175783749452 4.783106871711173 -0.13568971222654697 -0.09252423258266645 0.0849541335448924
Ni 5.976433023123616 5.555998587801628 9.088546197085844 -0.7694525004161329 0.5056552591856711 1.9055052308635827
Ni 8.454529114499868 2.2840682185393213 10.308940534982554 0.5189033824448289 0.3878097742293966 0.29965744546218065
Ni 2.420567148243411 5.336820461479982 6.84938927472428 -1.2066349115413866 -0.6412441841682955 1.0657590271282096
Ni 0.5082169621520364 9.138226994571925 9.240247459867527 -0.18919411190259028 -0.4714726997666912 0.08974692694784543
Ni 1.5546565863599766 1.083957831483645 11.475551327207818 -0.37519748478202475 0.09181203700699027 -0.5661885406840378
Ni 4.060653174767474 6.875545538348383 1.613745207083021 0.8326245050889274 -0.06228497408215079 -0.47579652395302574
Ni 5.725654236578191 7.926708524910412 7.875791022513769 -1.3256404782440332 -0.491105129285638 0.1347412322703486
Ni 5.489287088090734 2.9558875796094246 4.783134012272487 -0.4473274699790554 0.2298648501490751 -0.14471531276392494
Ni 0.7261402898555774 7.546514495163966 6.87697041781739 0.4747464854219566 -0.3840978725954482 0.267380844816662
Ni 5.000693656454414 4.572560348572896 7.181340956734308 0.5175273280329088 -0.16029208415625942 -0.9836349068329447
Ni 8.052387417503812 7.223017098003385 9.279030417300485 0.2183499075309401 0.3319263327982155 0.39726217789154805
Ni 4.553191034648158 0.29721990569594026 10.370034843186735 0.46775385615420734 -0.057271322917643294 -0.1443119066779192
Ni 8.222278284478435 7.038895530046225 4.933074757310242 0.2021164763912132 -0.18857396182008812 -0.6035158163795864
Ni 7.207691727714499 6.11008219388969 7.223777938405567 0.7681245256333287 -0.3404544248738846 -2.081928930474382
Ni 2.3333735715938873 5.323223040261447 2.5603428483835313 0.05447396267816424 -0.639293488199828 0.11892997626970488
Ni 2.317650139739055 5.184462397114488 11.471102084523004 -0.7606073913206771 -0.02478826268827344 0.46931348733184336
Ni 1.1378770799616655 3.25404473935609 4.03067461542492 -0.3804559049674867 -0.08098203627102182 -1.739188023559166
Ni 3.3829533587459086 2.623090016771762 2.711409022030458 0.33032890640410856 0.39845234154490733 0.27478253659737195
Ni 1.1973782372166895 3.4590193052565117 8.221301224271114 -0.9210172320017235 0.21755106577872854 -0.05489485226566675
Ni 3.674307284456421 2.6805284913668883 6.7737042007574555 0.11844969419917664 -0.13390742351514356 0.6889859703289489
Ni 4.024221494629724 6.894019213749744 6.125041166600832 1.3189872345935736 0.3014119662594422 -1.1134221375321276
Ni 0.6860645370186755 7.515890895147507 11.631966905489822 0.17103569582600867 0.8890561057140948 -1.5123521900444017
P 0.21746917564421284 5.846583530941564 8.074643582467031 -0.18041610859964413 -1.9229781908373655 -0.2743205093592888
P 8.522009596781338 1.6638973456505974 8.185643050130826 0.9881891018625305 1.0738058086920863 -1.9793663398191073
P 1.780411775373488 3.1988408376425195 10.414432278070274 -1.3113567146315093 -0.09115537725959784 0.17762749011091344
P 4.008217610307975 6.110154568719862 3.7922447842775653 0.21514605588166172 0.37680108182371885 0.03812226079301822
P 6.8930150129811105 3.9250770241480746 10.48364251879285 0.4391996986655985 1.1495546215886268 -0.3660476999619567
P 6.260992761651748 7.744278718608518 10.430361073505718 -0.5693936778848968 -0.06426935150203124 -1.3917011173185323
P 2.308928972703348 8.671852635798361 5.887259994868892 0.7792571452113806 -0.8913086491936972 -1.1065056129179525
P 6.9653446088840925 3.922779123290119 1.6990172319914827 -0.8455424987021759 0.9527107064502625 -1.4677288949080722
Ni 5.370393335825945 2.8240477795976466 0.3607188676325811 -0.8905285764945632 1.1581259081974054 1.3134308235517185
Ni 1.6769338619353 1.1178202051502946 7.286699711071588 -1.0061760253582543 0.914795676572044 -0.4241338054714115
Ni 6.951222470146813 0.5715286542156075 8.964040681426605 -1.4952006179657797 0.06403898065878004 1.6345387255781911
Ni 2.8648852775221076 1.7775710632892432 9.26637205950343 0.40829195334314844 -1.1902675259269566 -0.6939541129675016
Ni 6.44800027596201 1.886567557528034 2.5882949124812726 -0.8948719410649233 0.43212196588321067 0.7755233892005611
Ni 4.114626704368123 6.846116123029757 10.454935947090567 0.34991454184551996 -0.14533134908136905 -0.20005573720744257
Ni 7.984481733095083 7.476347097312368 -0.0021857198711895624 -0.5875600643812784 -0.4197968686589545 0.8723269658848719
Ni 7.710959156168157 3.99926122507421 8.345713557336508 0.13816439901928462 -0.8958096223878443 -0.6216732040149036
Ni 3.1977823557512557 8.447716833609944 12.140989942312896 -0.681342080630446 -0.497337226238279 2.2757641406934095
Ni 0.17019393657596707 4.69795878869938 10.216744048197402 -0.7918581218048427 0.42758936812017967 0.800260229825609
Ni 8.828589377389251 1.9337740405076167 5.888663161888848 0.4487768008310723 0.7663772039249188 -0.4004169214704459
Ni 3.5453172433826596 2.665275495908173 11.467685992538891 1.2343634878049066 0.01724875977811868 0.48803163256663695
Ni 1.2669485427193705 3.1634133582734036 12.58586083435703 -1.5164122190463882 1.1146603808146027 0.4112646628182272
Ni 3.1444873401834674 8.32965539189213 7.88948162632615 0.047406514308421584 -0.505423345680523 1.9061924867385949
Ni 5.757779614320717 7.748286474829284 3.5520661962961833 -1.0585190577363446 -0.04704861674837059 -0.17248014158201908
Ni 3.141329988217221 8.407195975567486 3.664164856693215 0.7525739794932393 -0.1153844250102916 -0.15386741157683825
Ni 3.24499788558461 4.332999660704107 9.360065800587764 1.6093920511092348 0.11407007707424224 -0.7392381816162817
Ni 7.0757524123112345 5.968517026073572 11.342704612371275 1.1635779324509121 -0.40734193072505326 0.33482396606098463
Ni 0.651622260025274 9.090821480809371 0.3748961921778674 0.3162749994142037 -0.23676826213712768 0.3671496747768838
Ni 4.60614226977263 0.4237329182070706 1.776290933480579 0.19399693260787235 -0.715447249844271 -0.9642133077732233
Ni 6.0920337206155875 5.606398610162542 0.2320056602842269 0.08999015330690309 1.0136067706046867 2.6126964113466484
Ni 7.730346563800439 9.081322284349318 11.29552707932376 0.6808129475998533 -0.24509092307021013 0.08380279354926856
Ni 0.048615078111801956 4.739140067067157 5.649954687645332 -0.43748400152607236 0.6916486047627766 1.1998531127328627
Ni 7.941916286100271 8.734176411430086 2.593259825831061 -0.08547195372157537 0.76713953601224 -0.44001576680899057
P 8.378571730234523 1.644907999584261 3.6701493504630487 0.8259080123007002 -0.5463429667130204 0.6086238270301132
P 1.7143245085728267 3.366080976462098 1.5567690267156171 -0.5885815636672573 -1.029045216646944 0.5607228895837763
P 4.734064782101357 0.9136327155279914 8.258508219777081 0.5125694698070011 0.9536033934678609 -1.2995121565880976
P 8.697618075339536 1.5867005424185587 12.514292983541605 -0.7512583460056095 0.26242864301770935 0.20596233249986462
P 6.21185929881884 7.840148228024892 1.320328598712611 1.2071637874616628 -0.4423708973047285 1.2067830070834766
P 1.6778023598973621 3.284451214882034 6.091197791327103 1.2940321073101326 -0.5590138773124694 0.054172372277345414
P 7.004535579422144 3.9291390614914685 6.041225685149579 0.061250876390681615 0.9804673077382403 -0.032848156878272465
P 2.2258064802509905 8.44004510161173 10.250971914756418 1.026611924615103 0.05774826255406183 -0.8188192237747188
