# total energy = -381167.12201324484 ev
CRYSTAL
PRIMVEC
9.25732335299030 0.00000000000000 0.00000000000000
0.00000000000000 9.25732335299030 0.00000000000000
0.00000000000000 0.00000000000000 13.54902847167966
PRIMCOORD
 96 1
Ni 7.003998328273482 4.148521374644799 10.334996214148726 3.2911256892056744 -1.135321251598064 -1.5092977194887942
Ni 1.7033752817210188 3.7082523299913435 7.851065639013793 -1.3384234889413142 -0.9068417118322899 3.078584675047027
Ni 2.6504920410829715 6.019056145406957 9.103511142427937 0.9723655045667123 0.411884041569781 -0.8929893793302298
Ni 7.652057254469685 5.843259573612571 4.8009627177492415 0.10150458170440584 -0.9120772491996162 0.1994078192107985
Ni 4.189318398968015 4.085173510464232 12.545045172897895 -1.2402957941289414 -0.20956161981534877 1.595322460390046
Ni 8.476977344653868 2.8884422823364138 7.075966612025137 -0.6043781643798818 -0.05390729154141684 0.40787466330007177
Ni 2.0465072317015696 0.8339756039561284 12.234718399929864 -0.43186896933214014 0.5525056438803065 -0.03772759645776083
Ni 8.037985810632724 2.627533878995027 2.258514749795634 0.27529161502330657 0.4051510937213216 0.02590797811501345
Ni 7.299723525007112 5.693985233423817 7.165335886614174 -1.1151334637962795 -0.9227432135538947 0.3774088906110468
Ni 3.0565460183666526 1.2325663270965423 4.8995994988166025 1.208211769110203 0.642888661750254 -0.18502352546466844
Ni 0.006200555228429637 5.954347454683273 8.754555410282254 -0.7186606145752461 -0.6657162011677309 0.21040082788719247
Ni 1.0063821439131722 7.271229483512477 10.528123421122482 0.7697834013929904 0.12476329512203028 0.7096517262084165
Ni 7.629524929259179 7.468484531000351 12.036197876330126 -1.432735666662339 -1.3031255849709686 -0.0003936358939928705
Ni 7.615120534013678 3.118088704479821 12.25049010184488 -2.4573513867830195 -0.19912936873843123 1.60031708539116
Ni 0.3697217600471654 6.533929959522811 13.471718059213472 -0.9818688160714575 0.7547961839555388 -0.025358019148814394
Ni 5.994653840865092 7.872251949398661 0.957884877967073 -0.037843038989702565 0.49557164969742395 -0.5640198151674931
Ni 4.320133636252188 1.43182095644369 12.061995259511772 -0.6773126477560787 -1.0191158733483738 0.9164730642744667
Ni 6.75196769809433 0.6950990894355913 1.9888757647344322 0.2534575498673506 0.41386147701112597 3.6632797591756843
Ni 6.100150298588568 3.7301921865028067 8.174142523531714 -1.3585153745951828 0.9496400379447387 0.05963622360539407
Ni 4.16603623056028 3.5822879301805903 1.7515911250350722 -2.4819794697443447 -0.395680435226725 -2.4839041975708835
Ni 6.058955209358182 8.289109223116466 10.171892358499012 0.6351457845800417 -0.03206114220060285 -0.8974700408094026
Ni -0.25677500843321444 9.122166500589078 12.56195459986154 2.4882470479206114 0.6157465541178234 -1.8703615930829143
Ni 2.8589762218824104 0.9525785801812625 2.42545206307463 -0.023190579183850382 -0.6913909802260157 -0.970772963268612
Ni 8.667317171545092 7.410654031579629 6.850415629763869 0.04041259948909169 1.5263914417462874 -0.46974440422167485
P 7.684559717006288 6.199027770064914 0.9091645105264903 -0.820660904969148 1.9990136817363893 -1.678416400797748
Ni 1.265633486361921 9.121259282893666 0.9727280703428032 1.4432141975961594 0.7835760843017086 -1.7756295542156517
P 0.6664615594279069 0.17434502348172745 10.445081527092762 -0.9945510395248163 0.4536061038989156 0.8447500847078677
Ni -0.005680293652081852 7.552235536004238 4.495364585585454 -0.02308567817486992 0.004098081328773587 -0.2873886553971567
P 1.8985011448217055 5.700613476994368 12.051359520631594 0.1733761710337272 -0.0776794542603501 -0.5253054293164308
P 7.721227975083043 0.609686394877356 7.1584391806643675 0.21880550701111992 -0.4990696355483534 0.3257561994317616
P 7.311508097724029 6.199101828652295 10.155417100003882 0.15799917435702465 2.0485783800383945 -0.7437849204466996
Ni 2.4030993299385206 2.150300341915295 10.071616105453517 -0.19899361449151534 3.4310237830866135 0.4973565095119886
Ni 5.539748967880571 -0.16541726077301208 7.424555754163285 0.9208233708233625 -0.8472610240551794 0.7075480496018524
Ni 9.289538908068932 3.933529295479303 4.533559376294588 -1.6885804858149436 -0.6294849867498384 -2.56383131021483
Ni 7.203271472267476 8.082819027968174 3.1681291662404605 0.5100690719826506 -1.8842985148789808 -0.8378746977442731
Ni 3.935195613695363 7.677616724439369 10.42706122131841 -0.8167353446624966 -0.6731914264988536 0.13674900672899673
Ni 5.226860693521518 5.205911370616269 10.85506153523995 -1.685957703480116 2.51519272327152 -0.8123824670104396
Ni 4.011235268288258 8.455342979815349 5.7293963469797875 -0.5922204459714252 0.3731100061253768 -0.509462034526271
Ni 4.524489050805165 6.858704637156428 12.580381302134144 0.9092670334443308 0.03252882586564075 0.7837074676732503
Ni 2.5547528022468726 5.891045877119818 0.5038085354288707 1.639352602027067 -1.0177336482888666 0.8951200525199874
Ni 1.0960763505543407 4.960499726684245 2.1872740916649933 0.11588553301642623 -1.7945382181946967 0.7244859630077717
Ni 6.915637176205163 0.7210732874946058 13.437018833828695 0.05099371743904766 -1.0042620961649933 -3.959394224481614
Ni 2.679115685105523 9.43469373933465 9.70216095632092 0.48263308725888493 -3.5867138496944873 -0.7716556787150387
Ni 1.1707736932509647 2.8327039380091894 1.4003192105690656 0.8059490526802701 -1.1402451712622428 0.6137477785202398
Ni 0.375965824695681 0.9891172357301006 8.405207167623457 -0.7760301536336506 1.676118348792191 0.8116543305951635
Ni 6.935910714500565 1.7599745571265413 9.155187373237343 -0.10551395997411506 0.24510994923360369 -3.0597611145826207
Ni 5.287172155619487 6.520599413794327 8.39668487568065 -0.292785915153328 0.2973177415854106 0.7543794081330943
Ni 5.139175326063045 5.812358628028072 1.3497408983175756 -1.0013395232015592 -0.6450851551809407 -0.15744458740513528
Ni 9.014938923385584 5.30516839235294 11.436206676273216 -2.12660878988026 0.38730172424472653 -0.5191700058426543
Ni 7.869530296312429 0.2888497826276949 4.760979412154869 -0.7165050016848241 1.1832538136132846 0.9840812503417439
Ni 7.203289986914321 2.7928696753219207 4.467697223072454 -0.43553304844728863 -0.4226104268483496 1.163937115562544
Ni 2.050293476981396 6.875099356937779 5.699683115990402 -0.28436041009379415 -0.2696922665586581 -0.1887441688493653
Ni 7.608473775796281 1.0959189760561572 10.981582300188398 0.6356319801878407 -1.7741496272360153 2.297451652969172
Ni 2.024845094892783 8.709308390589817 4.0659006888308085 -0.2583804410902647 -1.099558492176158 -0.8462570082706974
Ni 4.864075445914875 6.162063277638638 6.037744829932417 1.4628869934347386 0.5194322583651054 -0.7395557128567005
Ni 1.4490766073033388 2.694732789719379 5.9104788504484524 0.43501702804281855 -0.29395216754728726 -1.1690847212017543
P 6.1782173070110025 2.4963668634207967 0.701545889467061 0.04889209771501257 2.4994246618039857 0.8122595682793301
Ni 2.5894492504346216 0.921165704611495 7.195469400086943 -0.6011529725743646 -2.5093383213732716 1.516437415857369
P 5.552190810560489 8.884114428777988 12.089459886641816 -0.44885496236717537 -0.7472538528319066 0.9115252333508883
Ni 0.28986345954246506 2.5348402995649493 11.428280555958823 1.3733627240206605 -0.793910119237865 -1.5733575260831805
P 1.9017319506961783 4.737259372349248 4.82265447799298 2.1712377414435444 1.0716946758863541 0.04214757990232741
P 6.114989788034928 4.180079590192301 5.941926903847226 0.5040038396251771 0.49059836485254854 0.20382883109662958
P 9.106706770473405 3.3886524961509363 9.246954294592824 -0.44172040820492314 -0.049274934975728046 0.11902947796204662
Ni 9.24678858850356 0.336996196016079 2.708071667038943 0.08200147867447168 -0.03582986521441571 0.9741056271862708
Ni 8.23831428949689 8.274399336198021 9.40868899210834 0.5984738830803048 -0.09484902406110117 -0.6147127135366703
Ni 2.275070547004537 2.875648661366438 3.3032398015927007 0.0639623617845737 2.0665897290141504 2.4267488314058143
Ni 0.267436667818975 5.056451883959063 6.47829159428855 0.6264634263146953 1.0904081931354574 0.22725415199910537
Ni 5.931768842855653 2.0238545612865693 6.580058276405078 1.869690792268135 -0.8772976796265858 -0.8986031259725814
Ni 5.692133768739304 6.278835155290791 3.5730685617840647 -0.14539459821913667 -0.36981668008608565 0.3798121007359007
Ni 1.3094391407974673 8.180733737808575 8.115163190274252 0.7760000717266636 -1.5099695487448381 -0.2863561003675843
Ni 5.1848046732128354 2.920963259519861 10.778171132624523 -0.10840259437581976 -0.1239863077466897 -2.043951165679028
Ni 4.756144312131267 0.825326486682432 0.9288900152752777 -1.952812757700295 0.23895961336149169 -0.4242243083026887
Ni 1.532114798403688 4.470454053987692 10.31688055794312 0.7158696820936704 -1.1116647885213886 -0.29526677259365275
Ni 3.390411387601222 6.171950099053931 3.150785570808297 -1.184188152502096 -0.13651889299606168 0.09878641144229439
Ni 4.375881237902835 4.163360864091161 4.639987120754373 -1.426297624346479 -0.009370128360990314 0.1995212048602112
Ni 3.179835051708286 4.977449885870949 6.82585132206211 -0.24887532981330687 0.011793907311134527 -0.36622562030071765
Ni 0.2527406668856635 4.014475331486153 13.260447424063843 0.5598497429502036 1.491683863061773 0.8739992113809723
Ni 4.687630861480912 8.48233733491553 3.390616900181203 -0.06206823008565439 0.19927309340514712 -0.7362780705466933
Ni 6.462694855786224 5.092703562481802 13.045722881545258 0.4071275007214021 0.05467399450411229 -0.44604088995714797
Ni 1.1250610301903712 7.05583933943981 2.1161417442183965 0.023488827150559548 2.798367854807961 1.19096660887651
Ni 5.896248492883297 3.9536824885702124 2.916536407459194 2.3247009756034287 1.3091072564757003 -0.04324312695935133
Ni 6.362345469885691 7.865364500772277 5.310473764406408 -0.0021039337168802475 -0.019577150800979187 0.7899722176360395
Ni 2.4156152312058192 7.790361666402709 12.590624530501206 -0.44195977790923885 0.43217210239485565 -0.08924067673538824
Ni 8.906174630493945 1.8408928211631244 0.2306915739578138 -0.38573437975760666 -1.4611332439684255 -0.44594961579492237
Ni 8.398225294298163 8.447576085463822 1.0539870038813366 -1.5993302959978584 -2.521083891944974 -0.41723733546189434
Ni 4.8445517508167 2.0262151787593217 3.3124804618330983 -0.6281613828424084 -0.5797657651478403 -0.4346365047749482
Ni 3.3105392011113883 8.093029855703255 1.3547018979397247 0.9305208006167847 -0.970685031540496 0.06205434612858345
Ni 3.8236818957472245 2.549290981427563 6.861729004718578 0.1804924703635343 2.9255780688085875 -0.12944013177240934
P 3.564476839915588 3.7671196496353927 9.122764523682175 0.8943186396646147 0.32028334924264845 -0.18198113909391886
Ni 7.943755515514502 4.963961965644282 2.4378494706021203 0.6705565599791677 -0.1337459582366148 1.8962721423010893
P 3.3481979927943555 7.408515589869018 7.454066249769717 0.28260331819337137 -0.5917267941644583 0.9086489402443578
Ni 4.592789583016801 1.4169814669973289 8.857555167878667 -0.42755748644097974 0.6846742303274725 0.51752989913607
P 0.17779245072428818 1.6710579656528675 4.217622665332487 0.8648779658059944 2.333329340702388 1.257526813295247
P 5.480502097976197 0.7572453530359106 4.75131939516343 0.7221323751739306 -1.1533128030794781 1.7826512369491234
P 2.7226436198383923 2.4947098025281584 13.585882148857488 1.3621231465510995 -0.12110024444814628 -0.2593600313947146
Ni 0.5964632341005736 0.41241653567200487 6.098959806796427 -0.22818617689507154 -0.8336645163176675 -0.8377569412194862
