# total energy = -381162.3722067342 ev
CRYSTAL
PRIMVEC
9.33384950260701 0.00000000000000 0.00000000000000
0.00000000000000 9.33384950260701 0.00000000000000
0.00000000000000 0.00000000000000 13.66103222703636
PRIMCOORD
 96 1
Ni 0.976451313410047 5.6213760936432475 5.1608103660314555 1.2008368168023709 -0.2181064240615663 -0.08820452216139003
Ni 1.5952481883391434 2.391397534315177 13.217117067247228 -0.2932885658213594 -0.11778429270103587 0.5076134113533064
Ni 6.092390132190776 6.28045786226418 1.5103362942489271 0.008500324161527297 2.714169111371855 0.1977360879353304
Ni 3.6646559224487416 8.959543300511188 11.527971288071548 -1.0151640877894776 -0.6008562672695523 3.2150943120717077
Ni 5.664181126653155 4.332502175586967 2.5800906322934347 0.0661529416779893 -2.8691094442978975 -1.2401307293059867
Ni 3.5317512418931214 3.4217051583373403 1.9542513680477283 -0.10132948957912227 -0.34169343948730824 0.5931244458429332
Ni 3.1772703121830754 1.6889227001767866 3.4743966045535486 -1.4322265882364043 -1.109342311035799 -0.46462250961407725
Ni 6.1272053901774655 8.894766386187428 1.5884634132639357 -1.406938245983261 0.7823193290764721 0.3362378156893758
Ni 6.293273237389039 5.2598014384452965 6.5656153596436795 2.0211853327374225 -1.7306051669861615 -0.5241088379051684
Ni 7.073116348592219 1.1198752421562834 0.0029074940651082036 1.223171732854145 0.19763864312551768 -0.24258255482605962
Ni 0.46290572363786775 7.303233069880108 6.693919385866421 0.372634609150855 1.6305884826811918 -0.3599433868364317
Ni 5.280989276415748 0.2979402040317172 10.257631594622282 0.4992717242568305 0.9090523463303635 -0.766775467804602
Ni 1.3377926223748429 5.875434138452815 11.677777702987033 -1.4772196080073268 -3.2773566604460393 -1.718837227816956
Ni 7.934378627467754 0.633967180238953 4.967916102471479 0.09044292457360553 -1.0048171973375146 0.34142347365537323
Ni 1.5781205748255844 9.201794025923123 7.711925929861599 -0.8532354964710596 0.990981577006003 -0.0391923539287454
Ni 8.078595933406715 1.2898539722355307 2.8034216451211846 -1.073751301305067 -0.26055816546787386 -1.1621905651850823
Ni 8.673516821759419 5.710719699393538 9.87226775764667 -1.2216925772054574 -0.09411574543950242 0.7781703399051049
Ni 8.317141120636157 5.221019294494977 12.284423772863295 0.20081009887496384 -0.7948915093145278 1.174168306372249
Ni 1.4033255784940233 4.209267362933279 2.7175072956133355 0.8129738207375353 -0.09169530892346789 0.24211332849912495
Ni 2.8116821017748626 2.2328714373591647 10.094915532703745 -1.0887297769917703 -1.4078095928446204 2.598030324694042
Ni 0.8264600882779032 2.387047960529172 7.5391274439009095 0.3463540781877712 -0.477762646540461 0.6063252608039236
Ni 6.359804915386122 4.6406032079951745 10.650591318179545 0.8885423993024697 0.9841208453304277 0.018415783503026348
Ni 3.92221416075563 7.161759915643046 4.802112403195837 -1.4473066224979783 0.44533049415368464 0.043516692335712155
Ni 8.631822516819328 3.711119824394516 8.963399113667835 -0.3480785170780457 -1.708252510322574 0.026504474048431773
P 8.872271809311309 2.306842193269221 12.34613078414367 -0.9537851704613638 -1.2759968470749767 0.4945452653154386
Ni 4.41801890311352 3.339296602636409 4.5995464049640615 2.0601987378861426 -0.565139273483917 -0.5327760266618631
P 6.04559021166926 1.934150923523778 2.7401848159362467 -0.9044760398135906 0.046105021888178666 0.3496016385907914
Ni 5.017616049978644 0.3169383209502445 4.1938273093778955 2.0706947523214594 1.157520927623555 0.8498868917138008
P 5.030440758952829 2.736749959384209 10.454719556684516 0.44673868735512096 -0.6861893814204183 -0.08540279104653678
P 6.233723278687946 5.699575083298068 8.774726550158096 0.8502998108815034 2.8262671523213907 -0.08434092544092572
P 2.0893728378183187 4.523883422171168 9.637789328568653 -0.03420621356806367 0.18371971905158035 -0.03315514659573
Ni 7.084933001839175 1.8940993760650966 10.534499700415193 0.5670904836730168 -0.17130154789288563 -0.5376521238072418
Ni 8.843896907359692 5.138797415780569 3.4846423709589076 -1.11022419942012 1.1011813724915616 -0.027560940337404145
Ni 3.7520207521418807 0.1429833710580403 8.058383482690852 0.7430740104226041 -0.29174924635869753 0.8447449425015451
Ni 8.849553220051364 9.340289682225132 11.916081143518923 -1.5660118843513868 0.49580741985731386 1.6920530177445763
Ni 7.588652848425674 8.084532261578174 13.596688317331008 1.4004814346143235 -1.4160795461628966 1.1721227366971299
Ni 0.812724395609482 4.461691984110763 0.26606044165811504 0.33188545225795096 0.6779628797455678 -0.3761678191150941
Ni 2.1586486675173013 7.202222152472079 1.0431538008497991 0.17453779544199619 0.07855285800423892 -0.9439391309052195
Ni 0.24276688727967513 8.6733674801702 1.3673323887223692 -0.36159480639692565 0.551950799818101 0.17361322674519777
Ni 2.6670261049175696 7.081628819177704 10.276784653439623 0.6194013772615913 1.2283453066352845 -0.5326436148490569
Ni 1.6614438477604832 0.018993449993864157 13.108511196642482 0.7497596499728959 0.5320535466735418 0.3283159897391378
Ni 9.017459835580196 2.395467092621396 1.0081910680437562 1.5384244616514215 -2.0577397348226882 -0.6943060969902817
Ni 3.665925325957103 2.399611321722224 12.495021548440256 1.8514205332040372 0.2475409272725995 -0.9040883174568687
Ni 3.1262421579167943 6.614096306428843 12.553341305800156 -0.9528179214520881 1.669508556785157 0.5374801170057518
Ni 5.3944795503728935 2.610248299466355 0.7123145780980598 0.08694956670836639 0.49633346756411295 0.2105288688246245
Ni 1.316530113609782 6.333567464930201 8.593376391444751 -0.8774527171472115 -1.0762887230149398 1.0474931389394864
Ni 4.037496533783403 4.612564324619299 10.986776036440395 -1.7742370447434992 -0.04069439239556862 0.9192696531829975
Ni 5.801855404214458 8.821747682908642 12.55853185941045 -1.0392532675281971 -0.00693040857124613 -0.355983116637103
Ni 3.3565922254378386 4.6270131233762415 0.08849235869174273 -0.16433822920117502 -0.2411530214683847 -0.9574906443374093
Ni 3.533309994730595 1.3929370041939737 6.00335454346825 0.057470326302326825 0.2593721155795726 0.3073676696222448
Ni 3.7502006515232735 8.657770617946136 2.8646498299311265 -1.6182111920627615 -1.3974485613252707 -2.6406404460550843
Ni 5.580615173635776 5.873399359299705 4.083855896616725 1.0836737026251013 0.07381662887083415 0.7090901972779917
Ni 7.961026767294027 1.2089108308788103 8.424457986648958 0.3959797116346987 -0.31521416224985715 -0.5802923270752716
Ni 6.7509212037014645 3.1751328606873774 12.37117070173104 -0.04458292881669741 0.2061636498773933 1.6541264179021318
Ni 8.0200353627342 4.152442888235434 1.5871800089815844 -1.0455316443377412 1.1884440995649725 0.5247032769560576
Ni 3.90896009471244 0.6385809019608887 0.4021806333066078 -0.37586442894206235 -0.5533859896027308 0.43729116878897595
P 5.336591016851862 0.006669968728495418 6.39583544055508 0.13140162637415434 -0.7980521664306965 0.12048575079259896
Ni 3.9986770544357793 5.217257753216523 6.351054431642819 -1.6931015136137486 -1.2842148641093947 -0.13255348059041044
P 1.6628439251594118 1.1397003381251112 1.798475023103212 0.25664828889050634 0.24692309118294248 -0.9559592952945472
Ni 0.6555311723372499 0.24893469491442152 3.5924277962078848 0.8803326097981677 0.6887949373640654 -1.0374565806390907
P 4.86056470121617 3.206130574299655 6.746692036571766 0.12058962336031491 0.22068986851802636 -0.6584590053846853
P 9.007080595129473 8.568417678346519 8.342218373620831 -1.2680377401289 -0.4295045828650215 1.0320107270331709
P 3.2715795257748996 5.007171472582636 4.295261050160401 -1.8837346719557109 1.7747150128211822 -1.6697101312730018
Ni 8.723695595737016 5.517957043109061 7.508062526573483 -1.0956123630442163 -0.9324591552900781 -1.3867594570425408
Ni 0.5601308317591939 3.336281769304049 10.795548798370076 0.8328705596614624 1.2682922793418674 0.8441998686313525
Ni 7.100557865611217 3.863476246945916 4.420860126848412 0.16059393166739439 -0.33763418181627014 0.40968857658035895
Ni 9.317179071293486 2.590087184921785 4.418633070399183 -0.3637637890237864 1.6082371115691851 -0.7742172687946278
Ni 7.3160764465529455 7.074357750552601 11.447617112607311 -0.0572155299790434 0.5910115132649886 -0.11886904112478237
Ni 6.222401319455278 1.9058786939147485 5.596719797263184 0.24893755050980998 0.7696805572665391 0.941039183649605
Ni 1.7923417507109727 4.440784161620098 7.10256184306155 -0.38187078303714234 1.547907461441192 2.2008509363242874
Ni 5.020210860091325 7.008899465228031 10.620728600645334 0.6248102069819885 0.666262046368872 -1.3567737093137278
Ni 2.1803498672006936 3.2834148467205084 5.313021180533367 -0.9468079678125823 -0.6484599851904446 -1.5710383910317007
Ni 5.1922523708716595 6.230783116150197 12.685634619224912 3.3377289908865095 -1.1884204454158886 1.4679960325265298
Ni 3.7932203630676833 5.961790912418724 2.1978144326749276 -0.4716994710655166 -0.23434654006951255 0.9832605542126615
Ni 5.115201444683961 7.048484320220402 6.861964142365282 -0.09691079168613632 3.067873973497742 2.471659061654943
Ni 3.5816406665416074 3.223734214128849 8.418611263431034 0.7169616296062685 1.2185527460248948 -1.770341823454151
Ni 8.93177509876577 7.829027470123047 4.619601113626314 -0.11781437460802292 -0.9926833901884582 0.48099683720704256
Ni 0.8511658540593957 1.031549025982547 5.709095609610781 -0.007370324322142146 0.1225781145452534 1.5012879618104402
Ni 1.653230060353436 7.475909282414625 3.2893035722604016 -0.3455351818309017 -1.1637519961349312 0.22374253930142113
Ni 0.4955284604178346 7.426467882533796 12.899334032932964 -0.9743221140724511 -0.25569852338272736 0.8496572922014979
Ni 6.27857242470029 3.6195174271072865 8.392026593780178 0.34371921166808544 -0.4919561644320237 0.5467006071627553
Ni 2.3225323939865463 8.865766116330954 5.113105995510231 0.9397520894070653 -0.9504041698042729 0.3361768805444533
Ni 0.21642396432636893 7.67678305376356 10.379160179619142 0.3169830812248218 1.5222997881754172 -0.5589467715199599
Ni 4.057965665355738 5.670724155030814 8.833605405092634 -0.10631717260170077 -0.34145586955520546 -0.6147970457203606
Ni 2.9823142013069437 7.352310449637215 7.585683750955013 -0.09899287102614565 -0.18937743155798997 -1.4508889405325978
Ni 6.45606490348712 7.763634521743759 5.214197184022464 1.3089409061011652 0.4817439997857123 -1.0327972274902084
Ni 6.925576192293132 8.203184154212702 9.357984793777723 0.8717579807552792 -0.36211494056645377 -0.49423596160513583
Ni 9.148497746270579 6.2438038359602315 1.3840399790162492 0.08648728235996718 0.8918434386512446 -0.11902202176287888
P 4.308364841229439 7.738535800905634 0.4682988217785403 0.43144139487641825 0.5139887187520309 0.8941569172757698
Ni 7.684782162636105 7.652001683802526 2.732083034721114 0.2759796422292666 0.043904157582117936 -0.09617494196137631
P 2.5812106942125776 0.05592375823786775 9.917458522544353 -1.9236898721924096 -0.021557414455801584 -1.602586855261943
Ni 5.560388722145921 1.4732081083992083 8.09130583603419 0.6500928928081772 -0.5437410103137991 -0.13784069713127875
P 8.131677534524758 2.961723729693368 7.035963894734252 -0.4248148906988361 -0.5338468911285388 -1.2920623851782715
P 7.975046208981964 5.851408810287201 5.341108599925739 0.351412209436969 0.9522947019587664 -0.0013117768328880634
P 6.513402739897905 4.796795842619638 13.889717983232215 -0.08024695787721017 -1.6754909996208371 -1.7479624273176864
Ni 0.3839861608150655 1.0645348495013025 10.214052785503235 1.2730076825396657 -0.2972020419431527 -1.7608235995510706
