# total energy = -340891.71695724496 ev
CRYSTAL
PRIMVEC
9.08913237029553 0.00000000000000 0.00000000000000
0.00000000000000 9.08913237029553 0.00000000000000
0.00000000000000 0.00000000000000 13.30286396750594
PRIMCOORD
 96 1
Ni 6.487895409144715 2.1479801216443577 11.308631253266745 0.7317531860931462 -0.5760204391727951 0.8241388362154194
Ni 4.530005402190656 0.36680193542379047 6.260833430653818 -0.3118912685242113 -0.6860726533368958 -1.1547688187997145
Ni 2.6820757188247786 1.4514889961493362 4.590845327633061 1.1938809543098277 0.8352616856014583 1.1447564288690348
Ni 3.5840357710047424 4.1802374097687345 4.828114401791798 -0.34085705962894197 0.705539760922572 0.5112597498566421
Ni 5.1329784445811315 4.592665880849684 2.914138537953651 0.8280327719531868 1.050515470705578 -1.2266355230330295
Ni 7.1265523852769 6.332298551853752 2.620451401257588 0.8212221767892566 -0.7548162385601968 -0.02059685031474517
Ni 5.432992526330073 4.485032375151945 11.878978854962908 -0.7032267965186791 -0.3039640432573346 -1.0404305756657501
Ni 5.594388250082375 7.94050236857735 12.410800351220717 -0.9683450705534098 -0.3578381675679708 0.1316325114380378
Ni 1.827724542075042 6.697136325769242 0.7277940974273822 0.44481318819763394 -0.253618243814931 -0.8972352990907774
Ni 2.508718696854421 1.5734015288231897 0.23759810075105786 0.8359299153130764 -0.3011828809677716 0.9430130195465243
Ni 0.7623500698401701 0.03946501281367869 4.742896514380815 -0.5083831996397954 0.08436843624475146 0.17643681223692192
Ni 8.78359211030264 2.491476612720946 1.2994850728899814 -0.4417677165030908 -0.7783546880017692 0.36443793227267557
Ni 6.584485618995237 0.5605340654605747 5.013303656300352 0.6791880104019207 0.42051729176474667 -0.517815805807605
Ni 0.8553164426089747 7.601959454650337 2.73546800919129 -0.6629728340946388 -1.3107715315520005 -0.07490651950090325
Ni 7.873070095416438 3.6810713483421065 3.4938779401427613 -0.9625184365693036 0.5430684097268066 0.4403502673302739
Ni 7.804556215501765 3.986802494360925 12.739061638594334 -0.3479214226748912 0.5232279779621117 -0.4230966224561487
Ni 7.9101628446777505 -0.46293132626241557 7.048535817454189 -0.3077577059718119 0.583862303814717 0.11414052530086148
Ni 6.904632128975939 0.8103625027482714 0.1921588012210201 0.10077567395818127 0.4810030078546297 0.7820365077287306
Ni 1.7206545625851448 6.50733706331525 9.490582092615046 1.3618534378294804 0.7009441711320896 -0.6920527821797308
Ni 0.1010866036411539 4.89488862176807 1.4296850764720597 0.015105488182870759 0.47240292489044444 0.6470348227081438
Ni 6.6618795812496066 1.9802220052228776 7.131904975338157 -2.1569318663438337 0.05394611519915225 -0.3777359349331624
Ni 3.4516980034858205 4.290143198562609 0.5419958710490641 -0.3009885055687784 1.0337397939091357 -0.34069996522578744
Ni 5.850647248532134 5.613457249825142 5.073898175168374 0.5368874777270753 0.05600993970671644 -1.4716991924097298
Ni 5.57576461782645 3.014665251039917 9.279985077438745 -0.5594072560961462 -0.5461730167940595 -0.9080786695631845
P 0.21033161251067212 5.919979150361416 12.750343069710027 -0.3645955408964624 -0.6685007058914035 -0.6127363065365898
P 3.920942641102538 6.2327725522430235 12.861594959010052 -0.3247802086717374 -0.8285801598162247 0.20899263468575618
P 2.498166214155968 8.776566210969388 1.3861981225782216 -1.3203812867276228 -0.5701683512673923 -0.14053675590620313
P 6.298832366413871 7.642487895953007 5.79838564623426 -0.271131570108346 -0.13191584700641154 1.2977185550227843
P 5.020464074792894 0.9583944751555815 12.501858915102003 -1.4892001774079708 -0.012254134777004702 -0.4111186241586661
P 4.1217488428742115 6.1157227053949 8.450005500264917 -0.9009261176788033 0.14834313932449936 -1.0392560957416745
P 4.660116332275366 0.7813990734916918 3.8405901662570003 0.17316534057450178 1.5597725883098943 -0.022369111723819543
P -0.01677944729510185 5.717864113526369 3.8915402067517855 0.5161967821469432 -0.11539213831977548 -1.3205723196925063
Ni 1.3935821337274228 1.1607640076973953 2.632942595893663 -0.5910719341892787 -0.32830339133364744 -0.9158439153309001
Ni 1.9232967690984948 6.444149414977918 4.84619359501789 -0.6024603785318786 -0.2847046808070903 -0.09088412587608219
Ni 6.005253390393184 5.600886979737322 9.562524393265168 -0.40576224494275925 0.8040443794583894 -1.6603040074677535
Ni 8.922955777154812 2.4414136715468917 10.092550785877028 -0.19382055493100814 -0.33731767901711585 0.3585084541621181
Ni 2.301713706796491 5.339810741123755 7.351973775372389 1.570954573068643 0.20376275374538458 -0.8151132356780414
Ni 0.46223691654823656 9.014710568576758 8.936624923347924 0.8416968997038409 0.3297766334450643 0.5583672448674061
Ni 1.677544807685265 1.2519643620438838 11.301940742918482 -0.719064277771568 -0.787001822153806 -0.22730403140043434
Ni 4.179755685752355 7.010893175683611 1.706079229893294 -0.378761033763567 0.34355029019038896 -0.3316363123616224
Ni 5.3920005392757915 7.937384796169453 8.034703954437214 1.1981998934001559 -0.1980903859509556 0.2614331118736594
Ni 5.561585571306566 2.8471343629280503 4.5654102995681605 0.21795292920283754 -0.4124301438812381 0.6597916081531798
Ni 0.7392791251084886 7.250800824973581 6.801847675405352 0.2249617564205029 0.6757288482087266 0.40816185552318734
Ni 5.358925186528446 4.607862910196637 7.226488304758171 -0.29275326214317965 -0.5047443173356274 0.389054188159459
Ni 8.325781601225675 7.0254812331608 9.332025813819675 0.6503152932316285 -0.30229565441597617 -0.8653644185241096
Ni 4.538203799601512 0.14860640557401317 10.33825457488862 0.12582258962448006 0.11884024476937598 -0.32291872998296645
Ni 8.209358904512085 7.5640486834744145 4.652849570933926 -1.0359051769915708 -0.5917285939366712 0.010990694683548814
Ni 7.5184939519630944 6.038383277934837 6.9586352090386905 -1.1326568173920237 0.4683760631192385 -0.20313386191213406
Ni 2.338133860261348 5.163363414142653 2.7002285340231844 -0.12573722899952539 0.21629173945033073 -0.33806098494104364
Ni 2.164286025142225 5.211735776693183 11.665454230245546 0.7188236225156717 0.9053011068180474 0.943192225436866
Ni 1.0864694395861543 3.3163699114123832 3.7495588697728643 0.2355323328474976 0.24108874388935253 0.734549775001677
Ni 3.9455014768055685 2.658343994168741 2.7844757020954987 -1.2189661794132296 -0.7732374213798618 -0.9144488347555864
Ni 1.0209095276964573 3.467876659130304 7.92765578886504 0.35991921846671565 -1.5533520294955314 0.638737615696358
Ni 3.8345413486550877 2.600955212292747 7.02314078157178 -0.2137291209294771 1.5947110520582923 -1.1316687424471412
Ni 4.042455251951472 6.728275693318682 5.999312733466647 -0.1624438403919396 1.1795480826269236 1.1676256201577246
Ni 0.6008807241155539 7.637961508025506 11.35287714971469 -0.013946434877763078 -0.2753795467514225 0.7375386824266718
P 0.20427552360285223 5.500597493006293 8.06436906471388 0.6504947562322861 0.4855402336033509 0.9005944453709973
P 8.669487142347107 1.6307357759048766 7.931366881617648 0.2059726169125098 -0.10922020518110868 0.36339097906539997
P 1.9377121330603773 3.363360725840462 10.496039186344543 -0.22187180464126952 -0.5791556423676671 -0.5031949705706366
P 3.864799070363226 6.269801677577645 3.795878906230964 0.5292073354739982 -0.9968447206549995 0.49878192910460556
P 7.16073661217516 4.026122081056451 10.420971133067377 0.4959064073290233 0.38128431440605304 0.8364083976113919
P 6.543093710116035 7.856509696211803 9.965841009130614 -1.916663818583564 -0.6699441232061494 0.45052977896643703
P 2.478988144824586 8.614416089229172 5.956543821031188 0.1548184626361979 -1.886378537336461 -0.5248927672590443
P 6.942651969740474 4.102316277836062 1.5085314820814795 -0.3768090522435188 -0.43788483650891685 0.18884444187265542
Ni 5.0963855976009675 2.7712491966495136 0.4057888598740423 1.416986117137566 -0.08735862922132698 0.26582712717629703
Ni 1.5972423230678416 1.2081729222151631 6.826471043948313 -0.884572101800812 0.8967881842510298 0.8362729004747921
Ni 6.934689889771616 0.7383047701168658 9.193556517594141 0.09562575432612563 0.11960643351143918 0.08490759657767313
Ni 2.675822395744214 1.7522483867538106 8.939019000818012 0.14555529216671706 -0.23504845123254356 1.6237568044713389
Ni 6.483832566968825 1.7702630471399714 2.395872573734147 0.41296364778720496 0.648902729154818 1.1216416972284424
Ni 4.0660051939598185 6.646346254004426 10.779191109693684 0.03878483407768159 0.9237613704057639 -0.8898935140137254
Ni 7.722754024040892 7.440418304779882 0.10526487779832758 1.1416641630969564 -0.7381529189719029 1.0437185023884026
Ni 7.772626093434871 3.835277568378235 8.278479029556806 -0.6951229364646222 0.419797897100219 -0.1599408714644278
Ni 3.1053020791785637 8.292433574506793 12.54825893592509 0.0718744175427988 0.5760386940052401 0.05197716439823952
Ni 0.2321109915305102 4.927345913513268 10.369316684812791 -1.5108894894559461 -0.8418982170813694 0.08023873034709407
Ni 8.49106747363856 2.3797257300530097 5.800367986007329 1.639912845405911 -0.4553179443836997 -1.103908027394105
Ni 3.8106914652780515 2.4587830035337506 11.501243602193751 0.23810369311909962 0.8261476391153321 -0.3569549936320691
Ni 1.077016741906231 3.2328589630632174 12.689708558659513 0.4270589495380064 1.078052499783582 -0.2567686165184545
Ni 3.0052125533599936 8.239216704395304 8.094486813783297 -0.45374828590373467 0.04843829800704561 0.44367316105591975
Ni 5.485454998453647 7.857818531275178 3.6465680928971493 -0.008713468613597897 -0.20515269211437573 0.39886166116818406
Ni 2.872629379266689 8.283580759564249 3.539945298720571 1.554707257971845 0.663895088798592 0.3173312085928599
Ni 3.7453860490951216 4.407183956278349 9.727852075687021 -0.8834467299471173 -0.31696688327490574 -0.09514752913812646
Ni 7.234676704123404 6.276718507322281 11.406274893560633 0.8490931921679119 -0.8238156485480457 0.8820588484606551
Ni 0.366366565982571 9.106219953424322 0.1623019102510401 1.0501683717788044 0.3185347419826579 -0.08122217730628592
Ni 4.541875809084867 0.6374390323926563 1.4757269854791926 -0.009865322829853978 -1.2909681236728283 -0.1540918688828185
Ni 5.9072634541554425 5.7754074106529005 0.44860049123170914 0.25388358166117564 0.04856582472384539 0.6434445342537242
Ni 7.6007687783079625 8.827574421911436 11.506751616418784 1.2436387424592452 1.3133945709971444 -0.8093670772228835
Ni 0.21449352622955364 4.782056132346373 5.915410952424946 0.13788569143660126 -0.369035578945687 -0.9555677162830832
Ni 8.116231654100073 8.834018616772076 2.157192866229329 -0.6690714907932089 0.7314724216279338 0.902831048011
P 8.265393405662783 1.3208781637834766 3.7981139238843227 0.4540493620839212 0.65402565220368 -1.1898800606805509
P 1.9604076966245771 3.1997199863891796 1.668564744889338 -0.9028163927229806 -0.20489841001172454 -0.0057708410455061905
P 4.75477055692798 1.1270342374183624 8.229471336652598 0.7335107922142012 -0.19575248184639835 1.5926899078632053
P 8.584503754551646 1.7843693806007797 12.40559954967028 -0.09163385955791316 -0.7685883526436247 -0.39609361150474365
P 6.136191431524886 8.08952778315429 1.4680639379657858 0.7553787959318861 -0.559960814606771 0.04640198430330718
P 1.9048549194902604 3.264961778645417 5.86406189901848 0.17683456189597288 -0.28571795256295307 0.3385178699728041
P 7.0290805295850785 3.955544968090487 5.7754246800044315 -0.13645127298291984 0.20583274890053582 0.9767361228305823
P 2.4006307345374545 8.46322746114471 10.448947482546997 -0.1643251165750525 -0.07135145515979324 -1.351618904585666
