# total energy = -340872.00490696094 ev
CRYSTAL
PRIMVEC
9.19914668101203 0.00000000000000 0.00000000000000
0.00000000000000 9.19914668101203 0.00000000000000
0.00000000000000 0.00000000000000 13.46388103166099
PRIMCOORD
 96 1
Ni 5.2933638171937 6.556029499390829 2.6465678391772904 -0.06959719147284787 -1.112407066004052 0.1638900859201629
Ni 6.905606274605373 5.412474369165435 6.2628186559878705 0.15312564831480724 1.3362750751397436 -1.9131383219288083
Ni 7.559242446971737 3.1128808665903307 2.1912330734821275 -0.9035075052527344 0.01832219534795554 -0.22501163582183184
Ni 6.188302807660974 1.6643832211262082 7.16621810171066 0.22999237686587487 -0.007673714495173881 -0.2085061819676409
Ni 4.1914624234008055 2.696187116770768 3.7626966333161436 -0.13734601688304732 -0.025288342253143546 -1.7359731161662943
Ni 1.956419333490644 5.042631873685696 7.396907864219218 0.7668952812119179 0.6485636006478442 1.5599080854464942
Ni 7.357293578618671 1.4422422256818566 13.862816082755744 -0.6936772051570311 -0.39158466789079655 -1.3672869501402258
Ni 8.144676145417925 7.402157817262951 10.72967685521761 -0.4600518595242593 0.4555012640390994 0.6093241955312474
Ni 2.883408151195294 0.34915085472054574 7.7982795152309246 -0.22540835703961826 -0.2140515372659023 0.1643809095136524
Ni 8.950769776683545 5.977789533694246 12.398174854680006 -0.8569371136923629 0.8553620558957591 1.9700008394438073
Ni 0.918910127038788 2.4458691348660033 10.764278525760279 -1.1252371278891846 0.13509527317565767 -0.3391405911584675
Ni 3.390354729667521 3.679851877532095 5.7354922878308905 -1.4985014002042387 -0.1472635331070754 0.7780474411739955
Ni 4.340212626164396 9.1439518581947 9.550240453138205 -1.0883595381365447 -0.10691752518986104 -0.6101898859656524
Ni 9.461506403612088 2.3534637058765004 3.6441610280155725 1.4545265372851852 -3.361927185399268 -0.16233174029410752
Ni 8.213522559609805 6.7895590384976 7.808054528555389 1.05356299928265 -0.4473436679289715 -0.1428111537626766
Ni 7.522234279642244 5.171153152771047 9.956633918354527 1.3992259649406678 -1.0019643012697517 0.7976081369147425
Ni 3.3177090678725873 7.060979863020773 1.5605846489009165 0.6466375872697251 1.153372195562504 -0.6625712277808461
Ni 2.9213362331986508 1.403513817912239 12.401082704964086 -0.07283549590448746 0.15746644178200622 0.26927446229494917
Ni 5.202531442296501 6.973072816786459 6.45640182029683 0.12669702180963344 1.8104091237886824 -0.1684386245227938
Ni 5.372899639895863 8.458532633846382 4.028689041348854 0.11422357193297102 -0.7933300783646788 1.1884165887611469
Ni 8.290482621225154 9.304292985848962 4.524483494229844 0.7362042798859643 -0.3360868919338083 1.9857856130818894
Ni 7.8169289454141415 0.9503178538338064 11.212962308363418 -0.18476795781043664 -0.49200964337777847 -0.15362495654872896
Ni 6.058447652298523 6.373067669906287 8.724177314132373 -0.0978556720979089 -0.2588203568411607 -0.030920600838256426
Ni 1.5759058277940987 5.5364420706151645 0.7058551288281776 0.11776578075827461 0.6701678091811812 0.27744671369309637
P 3.2328009434750653 7.127351706739963 3.9510703208270193 1.3849571137264793 0.26175424265850405 0.3084603884657913
P 0.4940364959392386 4.538123069099205 11.202595789903658 0.7862358905220588 -1.3921855131541183 -1.78830252169763
P 1.0513152858771864 0.03410859627747919 3.369740361740933 0.34894060796802484 -0.1361126586965785 -0.01248244873772689
P -0.33211587478995724 4.604770887220554 6.540915301299265 -0.00919220802222933 1.734495246069187 -1.016042890850005
P 7.1301022516148125 8.541168568999463 12.521839904202036 0.5528949088989251 -0.1436588464749526 -0.4279133271185018
P 3.822825016143828 9.108323562876 0.633526837595727 0.4642484141041101 -0.11257240948279323 -0.7802341644126691
P 1.460723311479757 7.316063002936146 7.608250901221769 -0.28205670166128205 -0.07274139352878439 0.016625010151190722
P 0.18587795900068624 2.054795008713515 1.1996239295973221 -0.25670382471879016 1.210011284212787 -0.3601436757726959
Ni 1.0825647873483004 3.0600593660171374 6.166565223917599 -0.09893604964628122 -0.8844605159236123 -0.7549075127224224
Ni 2.426495731834456 4.100758836557949 9.860892878757598 -0.22016973434849824 0.24549150094273853 -1.043929589957944
Ni 5.80370488081248 8.038821563896551 10.734523885634191 1.1385855241716327 -2.8157559683774216 0.08049429800132588
Ni 3.249009840028525 7.406288234148595 10.87497829786889 0.8165772218180775 0.9966536876901158 -0.6529182780721142
Ni 0.5567259212189564 0.7065597834683565 12.544486363643186 -0.7417434645366386 0.709872326859655 -0.18561822162587388
Ni 2.60300895945522 3.1117585706882185 1.5119395609470596 0.5334434850425329 -0.9435159273248719 2.1374025380616546
Ni 0.08407008212963336 3.8532373952617265 8.422990810507025 0.9181278262690705 -0.1400320483556427 2.1537385562175166
Ni 4.081735001102469 2.536407137067565 7.609947223880372 -1.1456771409110913 -0.9427613085470343 -0.06371347899856122
Ni 6.15598620516818 5.401499787106253 12.02064739201482 0.45916328627171893 -0.5717562645798024 -0.6451319492584761
Ni 4.774890707857973 2.227159421155159 0.3134489662279364 -0.23826541550794453 -0.1700249951733072 0.8635211946677838
Ni 5.9969605554975445 8.172319581367498 0.8118412581479147 -1.397810829760696 2.1400201781901598 0.6857026715919868
Ni 4.1098659918291895 3.854341292870362 11.557611100670076 -0.9606603003146422 1.0224359388605424 1.2661266391491162
Ni 4.571736751282146 5.512257513839316 4.7104194078549835 -0.7883989596116487 1.038844976346185 0.14471274166076367
Ni 5.015448395073055 3.646017415827427 9.349897755805701 0.6216024986779681 0.9488093145133272 0.14606077104822587
Ni 5.095572963166492 4.1865684773358565 1.6864050585038062 -1.4094805527891403 1.1245244180928762 1.1486632201226088
Ni 8.511970477251063 1.5153754422539367 8.939249685222764 0.6002885676915403 -0.2711053448561008 -1.673865805312588
Ni 4.404827432856508 6.725532977196759 12.829247790766717 -0.1687193889880062 -0.04667966344472606 0.681232294525459
Ni 1.8663688860662295 0.7108705036300768 1.1748395884541147 -0.31321590087290574 -0.01135939087687721 1.373399233685551
Ni 0.825555346105859 0.6175589586868193 6.592265858308952 -1.3461277995641074 -0.3028484415956526 0.2511751815910771
Ni 6.813532014898461 6.1221793409037275 0.7897025916067362 1.0323179738609445 -1.8545238547197094 -0.24118336048568784
Ni 1.4227124371557525 6.916120899327622 2.923950630701768 -1.9625289565467945 1.1472290587792435 -0.08284942849706377
Ni 5.125083825904006 0.4451954661598492 12.088882062948581 -0.3410552916826771 0.16396516213247245 1.35741777065563
Ni 8.210358053131717 0.5556073049755393 2.3598948293614743 -0.1667326975752806 1.2215406250086254 0.4386998762110444
Ni 1.3383102658288546 3.1977889909878527 13.084239859129378 -0.6616731414466088 0.3698717016937372 -0.9820094554143797
P 2.059495772696953 3.384623661249356 3.993629253298601 0.5681798600824537 -0.46156623928625673 0.41703421831215276
P 4.373853905787553 5.644118083190787 10.066768862853385 -0.07598201195326915 -0.3787222101058316 1.7461716539658507
P 6.178284936862609 4.5574780738372755 3.601521143052691 0.5260631334180618 0.10158094346829603 -0.9747412038877405
P 8.906411491109889 6.176288722020328 1.4662841956832566 -0.9174950777810781 -0.9547130815922719 1.0744899792433045
P 1.5489063321162302 2.151634426431036 8.172980080103331 0.31539465369177944 -0.624615317362363 1.131116212377781
P 6.520953152876445 3.735985070931194 0.3097187122254234 0.876368225833781 -0.15057974196450197 -2.226381990715856
P 4.82996599938213 0.07089322434122482 6.278585073583201 -0.5737095316514313 -0.002186723238673653 0.2112994284420619
P 7.017578288707933 8.443390838314604 8.945227290773524 0.45976003931545334 0.4220681811916344 0.2715334335324549
Ni 2.215752479199262 0.6272143831036816 10.272039543093769 -0.5417597182177122 -0.8527037923373056 -0.5664765042381018
Ni -0.5413863440322967 8.183873709671213 0.874400055543944 0.30413013652155363 -0.20592607994529052 -2.1869890907405303
Ni 3.5996353179712726 0.5194647773541499 3.1416484382713636 -0.9144082113256381 -0.706747665187744 -1.3467929439519322
Ni 7.433904072657952 7.512584374713423 2.915980489967422 -0.308319749122869 0.57197557967946 -0.7705655309746535
Ni 2.9253286628832145 5.074028561504628 3.0328473700496064 0.8943906305531306 -0.2547731833549806 -1.1345283233831236
Ni 5.551372285771955 3.5555622059465133 5.358086253902653 2.4482201139057125 -0.6396526713114596 2.0669939064311045
Ni 6.951243241575698 3.819973280654853 7.759719451846624 -0.1158600790951295 -1.1714300815054792 1.6723169727682294
Ni 8.699725062186431 5.878144376221445 3.8698694525651636 -0.5736771357515991 -1.4130651848166051 0.5716529062327187
Ni 6.145977533516554 1.379899608234185 4.945121838170929 0.21183627478213843 -0.7017270720447011 -2.2310223177013446
Ni 6.043213865299357 2.6336697155350626 11.730971780703516 0.039183355067680906 0.1478515444000615 -0.2886868053832899
Ni 6.0038047206710825 1.3602318325070015 9.338346387246009 1.223275091201229 0.5933288485442557 1.5509472767087806
Ni 1.8838748623098356 8.105358992257035 13.179079382345918 0.7622868359056291 -1.7837663243901731 -0.5818311323173012
Ni 3.8864923107218616 7.026151893468334 8.524319411832996 -2.3874621179910496 0.36612868971153717 -1.3261593268619807
Ni 0.2501036417857546 8.446187378923145 9.178004339677075 0.5218005014869658 1.7619985936957783 -1.5158578892048153
Ni 0.42907488141508016 7.269671705933254 5.543308313740876 -0.7801467469051854 0.8764386740604003 0.5718339118952733
Ni 7.3858661283888445 8.86274314154163 6.830482362679053 0.30280370440064625 -0.4012412171439541 -0.6052302279675318
Ni 1.0218596180201045 6.232090746136836 9.453448870983724 -0.04104071999139384 -0.836708959570946 0.9905465463511135
Ni 2.67360321152744 7.947372846167865 5.977545756305673 1.4116842453086784 -0.5573866261216917 -0.4675224568696915
Ni 8.179697297051876 3.280360532113764 12.320797151802724 0.8825812966230284 0.6056585737542021 -0.262012124305581
Ni 2.218107460764351 5.666959564542797 11.855256852715728 0.14245351331294176 -0.7153755160660712 0.5781842795933333
Ni 1.7411317023665687 5.281579710221519 5.203777006764911 -0.9255984236145027 0.9716507378878748 -1.7794628119188127
Ni 3.0046529052103903 1.0772016847996813 5.434628674256069 0.4434831565323007 0.8934984577561644 -0.3610458758719911
Ni 7.916114145550012 3.499732584389789 4.553686185551614 -1.6164224755934549 1.6809823617527113 1.8250273879224892
Ni 0.5262169510603016 4.228700569398765 2.4672295535930937 0.2152923516515389 0.8957535723389283 -0.9978464224466362
P 5.8520739943641775 0.8414275538886851 2.5758420393067087 0.2709369375990366 0.34466974850681287 0.026846173658566667
P 1.1753381822073483 7.955155324308742 11.098937044708794 -0.515208707202061 0.12169082684429364 0.7030280502443118
P 4.0507338765932985 1.9280491649487197 10.478938472306892 0.2412514947194619 -0.22816586518009738 0.34127460678233484
P 7.3087128846919835 7.251144624401659 5.088283559290804 0.06899581044342312 0.9837549773505767 0.4949514996149218
P 8.162734070465849 2.0068674542052714 6.200655421901601 -0.41626211603281854 -1.5767025312960135 -0.4963023572158614
P 7.511682858333039 2.9928595990914713 10.045765371019753 -0.8900243831646348 0.5167392849139746 0.01604599771926914
P 4.715206643817765 4.791081206117956 7.167928223089371 0.4578404536952373 0.3009823349211913 0.18549917954950632
P 3.2938188837923748 4.447198702734621 0.0777843051631299 1.4721553061105421 0.3937112273154961 -0.7136631613606548
