# total energy = -340864.7260397394 ev
CRYSTAL
PRIMVEC
9.30691412105983 0.00000000000000 0.00000000000000

0.00000000000000 9.30691412105983 0.00000000000000

0.00000000000000 0.00000000000000 13.62160957346733

PRIMCOORD
 96 1
Ni 6.869182088975291 1.1901402679570898 7.315199199865922 -0.6071917225692769 2.4353967368887997 1.4035361622802474
Ni 3.5996445144790044 6.335560856043742 11.206893751446724 0.87961321513364 -1.8952735258332456 -0.16456088673494237
Ni 7.8097202248340265 4.467300205188324 0.7305946265762034 0.6383648057379716 -0.5033613209451718 1.0355030564571457
Ni 7.146537439236786 5.66288501795609 8.586027621917241 0.5763845073804331 0.8280309721809741 -0.9274161935495318
Ni 4.591621965155877 0.6969827059202056 8.162518352343088 1.4792021856549944 1.8015457598607814 1.243666253263071
Ni 4.1984513745113725 2.5187301916468736 0.5551499868735273 -0.40297105535086725 -1.272006494968661 -0.35546966733579427
Ni 7.252692102673671 1.6830065235793177 5.158053793430263 0.3489637478964764 0.1146442044101574 -0.8772467717839924
Ni 3.6914479162097984 8.252599044254298 6.833103836054628 1.2360010234083292 1.1290140784331137 -1.1392964341957281
Ni 9.21686981133906 3.1636900392282086 2.554283534606302 -1.3836101127802818 -0.6888409601106523 -1.573334386154729
Ni 0.9292897993490202 0.4003806570801131 12.620897880264689 -1.265233952131518 -1.3106393768495106 -0.30237175906955027
Ni 8.52673420220042 5.8073469402660445 3.508913269264774 0.990349856959275 -0.9082820438232422 0.4353929233249985
Ni -0.13104879755585594 3.929314029494027 12.393866876499416 1.092812688811892 -0.10144724610390915 -0.6432660996943308
Ni 8.668152763564917 6.1950264515288405 12.659024585002156 0.6547769285474078 -0.3605190568342436 -0.36831104207483667
Ni 6.923757833880945 1.3972563367037534 10.671128205482047 -1.4578036653745603 -0.4522035671244341 -0.3362815244431176
Ni 6.7079863349224365 7.320418517352806 3.4009893614372744 -0.20973542638905168 0.19416842518873012 0.4762289835047541
Ni 6.269928497061021 5.752743274617771 13.08742463799171 2.436196349971959 2.245270857200559 -2.1877866469411615
Ni 5.528670008187256 7.792865403206445 12.727160503906367 -1.8687204579350656 1.8524988538698806 0.8432591019846382
Ni 1.8098969918678056 3.3831563831266123 7.416381179042388 -0.41742785420614564 0.17183505179885247 0.31917160423570834
Ni 3.703928488160426 6.148510494325828 3.9848111589061035 -0.18912340656565493 -0.5620732329640835 -0.27834968512333996
Ni 4.820823341314054 2.7323238726811114 11.100058752581361 1.1084290551929106 1.295288091204421 -0.9813885340009292
Ni 8.588736864642689 3.2499837477488818 7.616700408344203 0.45764350719308283 1.2410565835543659 -2.185166949930127
Ni 1.9410593337769781 9.526464312411127 10.431237838357951 -1.8905838336670602 -0.9172101995508075 0.8312777612530459
Ni 0.08009902642497008 7.850475202143349 2.702649707425793 -0.15136624242153932 0.4697068661155201 -1.3393169472898612
Ni 3.311967796362739 6.167459371649825 6.595502039133858 1.1303626220412082 -3.5483002829132957 -1.5218650146308434
P 1.907926719202604 7.220071368380643 3.413221438778595 0.586985422824731 0.4849193121899003 0.06172035982793241
P 8.693495490948631 5.040038398528889 5.660105973374093 -1.265112338951989 0.1823842880696085 1.1114061355433633
P 5.815946528992651 8.850205312354056 10.858615992167657 -0.7004021825856906 2.1653455443288254 0.46174287407343706
P 8.441780689325451 2.020372856642938 13.136625639943235 0.006929894350613871 -0.14140501744376938 0.20154389171719483
P 6.74563280288686 5.45100380913581 2.3480385930293473 -0.7991898795795656 -0.22520703966208958 -0.044490369102891114
P 2.578173452682415 0.8867962904659648 5.263171666624568 0.6827196777042629 0.5853774549076628 -0.463058507561067
P 5.054966688915769 6.956648468685956 8.043629038197743 0.707423093988214 -1.3116747600925602 0.33610643231783405
P 5.218051746552499 0.6935009893156344 1.4298742789225198 -0.22647510774123578 -0.1829447885587688 0.404064288415046
Ni 4.159315800273945 0.7859279542982494 11.733191373589348 0.22615937627302987 -3.2002418204399077 0.8926409948518755
Ni 1.8946829802870608 0.2928122733752932 1.2562444874900696 1.8047354704426724 -2.4659512126368885 -1.182486339319641
Ni 4.715441151756291 1.0469813136360162 5.832010262912699 -0.5553595683893339 1.1213444777029977 -0.6216204964000972
Ni 7.24808518014156 7.819250504981262 0.9680307604241015 0.5138545071670119 -0.6331266972674838 0.21316013579988452
Ni 6.391774617849702 8.764349028801078 5.860983617528284 -1.0190870769929674 -0.4340518359160718 -0.3531312490106047
Ni 9.102804270826834 1.887181607436795 11.008412637700653 1.7880322987553785 1.610822098687542 -0.6362369607616913
Ni 6.352573895212831 3.839018347864651 6.879757535587892 1.780946852663507 0.47447086316306664 -0.33465581591423654
Ni 2.4947462737372774 4.393347464905184 12.775339606678042 0.4756394295498712 0.447186573525817 -0.5156211121491314
Ni 8.395999978344735 8.790994724173672 4.529103699666579 0.04490380249122589 0.33009545023706377 1.3706805492028071
Ni 5.370973653875966 4.457537252185931 0.8430472788564815 -0.5809124771577737 -0.8660992398076052 1.898475577710311
Ni 6.415023289537002 0.8690638268287302 13.249099698126185 0.03449623400465672 0.38185149976343263 0.010425051988065917
Ni 6.522769435303162 2.159166868201264 2.4116653120006135 0.5642041632641573 2.510225866184548 -1.6324353060819434
Ni 1.2629203370502378 6.347194498801598 5.4349949860095785 -1.1311277823420067 -1.9333109402219415 -0.8595154159425005
Ni 0.6896786396511132 1.6763334660934115 5.986860562859708 -0.5102289945992826 -0.4928699344955448 -0.1769443480009598
Ni 5.014453691375811 4.125289721935768 3.065869717463052 0.5148356401333585 0.9340270139978301 0.661557441804351
Ni 1.3744823176409744 2.2165439942830103 0.3400876747775379 -0.5439078749089665 2.4804668897545605 0.4654115811742759
Ni 0.30834272111132077 5.491246906163785 8.284772115974004 0.5209818622404124 0.25304977290597064 -0.19681357612106104
Ni 6.135303983067111 0.2889489732882644 3.5131628062913642 -0.7550867186127641 -1.8075626554788227 0.8498028166404268
Ni 7.329213551277746 3.7858386400899393 4.299674304110347 0.7258417057047177 0.7588929797327316 -0.7476749995297253
Ni 1.2572058917275788 8.586735878088337 5.727941278949443 -0.6136531619239044 0.6694679549006793 0.2665753181962312
Ni 1.091151928459044 0.9025035695719117 3.197318712329778 0.22519315570501863 0.6300413734739407 2.594421781407177
Ni 6.00546322297523 6.852773999229611 10.549977311184577 -0.6502541009763898 -1.062189050388764 -1.244064002922122
Ni 1.7349204910219747 7.432631981937983 9.738661025623003 -1.7025968546986934 -1.7649548481106248 -0.7429819649294301
Ni 8.426005469745798 7.528884088659381 9.224799302242817 1.8836693659354138 -0.7915043380098497 -0.1491671778876915
P 3.348562583021851 8.387363161961304 0.01596694201230232 1.4544715156775336 0.5005282223717509 0.25454024140856807
P 8.352238867746784 9.062812460482428 7.228497848503014 0.8849210004997986 -1.5101546681724507 -1.0266463773974641
P 2.624335747145588 4.384524510237626 5.200349065040725 0.110766466622306 0.18189783535149318 1.3634760610345678
P 8.669269593269672 -0.045164593260259206 10.350557129795089 0.9758593766525839 -0.3783805104956967 0.3753751480104697
P 1.6385473944158948 7.220192358265325 7.455025348209725 -0.07076678630091683 0.2072489125217721 1.1454280010147628
P 4.7591836485258305 7.864938146819916 4.634466344704509 1.1686535472016066 0.45418794454431455 0.23923215029658798
P 5.819995036672386 2.717767858862482 8.67982549536244 -1.0473905519233508 -0.95307348910632 0.08147697362956935
P 4.742701103466499 4.520182091708435 12.410920866091013 -2.1243603601657157 -0.44875237535104007 -1.2954894085819495
Ni 2.401872576872761 0.6244474086706832 7.596826423748102 -1.450996926865372 1.3861971567811675 0.630128019650476
Ni 5.957123110587786 5.57871328587445 4.995439665652372 -0.4192744204965812 0.5106843369691463 0.3628289359143429
Ni 4.348553286830335 1.950040505986043 3.5697879337052423 -1.4105308484305255 0.11498538979966004 -0.2538740685794789
Ni 0.19331763774442548 1.2892402904256113 8.32477881738114 -0.09083578913665001 -0.787184113367941 1.4943053598450202
Ni 7.8870234542314295 8.369214679259048 12.3135537910477 0.3268090661763081 0.6873731173158744 -0.8470735906347218
Ni 2.3786797466706986 6.677292131870109 0.8847450465748996 -0.6258299064957544 0.38240402983279304 1.0221538888437494
Ni 0.5636388233210797 3.547786388521585 4.6076186892936395 -0.03029762254227685 -0.374548024123484 2.8018252172289424
Ni 6.5979041536905 8.679590961124442 8.734108072470596 -1.7358350479265332 -0.5266190059215318 0.13701485879587372
Ni 7.4880825767790276 6.950971251020122 6.528714692098136 1.502061349641355 -1.3867242329292313 0.4233465336834258
Ni 3.0876525501628613 4.477481969329999 1.5898731638084458 1.98977365119536 -0.5002088913591192 -0.47298656530805633
Ni 2.0331326360197544 7.57312915879606 12.200834961021124 -1.7663995509769514 -0.0010019589019531132 0.06612363110195064
Ni 6.730620750272122 3.4449542934563433 12.385543703124736 0.599636021709206 -0.5621534513827158 -0.4990547231500179
Ni 4.12683466969401 3.4509944807762225 6.994451292809044 -1.025330743909834 0.0012462137022752732 -0.1797224249667292
Ni 3.9704412833715996 8.124061252151298 9.552671652124605 0.6674241849977731 0.41979506888674156 0.5731279481163484
Ni 2.3253418213544803 2.096931532903837 11.819593042314814 -0.7606043059968837 -0.444883122203621 1.474824625412589
Ni 1.641134716565242 4.976844451068214 3.2547609868109677 -0.10521905444151555 1.376130516573785 -0.3454588200670115
Ni 3.787271904877707 9.114437913584691 2.8940203387182635 -1.0644829886292635 -1.5299501056318232 0.10601018288424323
Ni 8.743585303206856 0.3756838295423156 1.0312731038386485 -0.24390307340969605 0.8300983962329639 -0.45471759179553944
Ni 0.9796271755251326 4.714519767249869 0.8667557121055716 -2.017211949911971 0.29083496207454423 0.16151927169514116
Ni 7.545664454973313 3.5625936890237844 9.607525673765029 0.46258850990318395 0.07453859463852323 2.119341566794885
Ni 2.8297858782493264 3.6246335791228796 10.448006105683415 -1.048644221824794 2.8047950984905436 -2.7712995378362595
Ni 3.078233952986101 5.697125155321013 8.780693831530156 -0.24128389061929412 -0.4474755655211455 0.580333207615536
Ni 5.224538665754279 4.77160837899122 9.209025013354584 -1.3186195668415097 -0.7510184620806614 0.5949476150946011
Ni 5.060485689040097 7.322633562933903 1.5902137968683958 -1.1949235366417292 -0.259800718476559 -0.4475758385444356
P 0.603269525394282 3.539540462534817 9.446926492912796 0.23887193874369184 -0.3501608535283712 -0.46932480018575295
P 8.241281836579455 1.0660418739304875 3.0660474795243915 0.16571994004005008 0.2891550032689601 0.5992637259714517
P 3.1017339113569706 1.5793926477207483 9.606517734956485 1.7513560263802677 1.6611180187286168 -1.0966348907714596
P 1.2217558555158397 5.585246739647262 11.118707016576494 1.0469861173960806 0.3242348776912287 0.28478592766698696
P 7.4487980919143 5.414557933103998 10.868464568780748 0.7576714486208047 -1.0070586850735235 0.6632520558979546
P 2.0367344118175867 2.8077284915804315 2.420001515055183 0.4671851281349309 -0.631487361891848 -0.4088473116259862
P 5.329064619205065 3.2330823915502687 5.048100047614372 -0.19713753511938306 -0.12203998265359628 0.5887373725188313
P 0.17761873486126417 7.504444131953677 0.5507924896421447 0.19963176229614651 0.5100477318264119 -0.8801382343991745
