# total energy = -340854.3104890882 ev
CRYSTAL
PRIMVEC
9.39547140160348 0.00000000000000 0.00000000000000

0.00000000000000 9.39547140160348 0.00000000000000

0.00000000000000 0.00000000000000 13.75122210504695

PRIMCOORD
 96 1
Ni 4.865520071204897 7.125018217190713 12.746338200896595 0.4051233258071797 -2.3721419426942116 1.3756204097065856
Ni 1.5961872547627511 3.732200719048476 2.5851057266037905 -0.25179893121800506 -1.2744500714131473 1.9409049505191152
Ni 2.7772919748813307 9.01067055287092 12.187914595120318 0.503811521108713 0.7288360124463512 1.9999310513443365
Ni 2.1060794921411246 7.9368527216158675 2.4389854750070348 -2.2004184767725588 -0.12733851204837424 0.46019018487433644
Ni 7.597657410139287 5.316108092583043 7.759718018653974 -1.1220834127515515 -2.2493483697040424 -2.8376180585578354
Ni 0.39882648988441316 4.463938829081689 8.61874315769642 1.3515404859392466 -0.8844355762229477 0.7478588334057572
Ni 1.0708676532094135 3.7190094770864492 11.53761925054255 -0.9298083479307923 1.7130162502598045 -3.139735792635051
Ni 0.8457455796484776 6.6102497301127014 13.409477154991524 0.6537569719233257 0.49814738084440013 -1.274262123772057
Ni 1.8415687834823196 0.9405148818553035 3.2721307878497607 1.8548269877824248 1.2056337239703816 -3.5582831051576203
Ni 8.925838840851585 0.09557073592431943 3.030467047195986 -1.0476121810158538 -3.0940370050463555 -0.9298852239153147
Ni 3.1734896118448215 5.952294257634903 11.587962065842362 -0.891698171322632 -0.8633808124351775 0.0018550509308677729
Ni 2.342366204465221 5.7668182550904685 1.3216534571259608 -0.4683536945217353 -1.644347227028181 -0.23035387397035165
Ni 2.774905525124668 7.522146005831014 8.13486510175997 -1.5911523881727565 -3.3219521876682276 0.2915654124826656
Ni 4.393003019385601 2.5841774540212774 6.271327826856274 -0.5853049497985146 0.3803715727837965 -1.0929700403253628
Ni 0.021232826004263614 8.656808910409492 0.8642452629983582 2.009757036295823 -1.2661585208283161 -0.525573852486469
Ni 4.789040933333882 5.103526154810368 5.450902103307133 -0.32738807860822977 1.2597539028535532 0.05755028761064282
Ni 9.0295554505516 0.025732317297436694 8.618963951276267 -2.592903802100754 2.0967901638569306 0.3227081566340571
Ni 9.10849620195114 6.173181792198485 1.6263429600343489 -0.18312425155942658 -0.5911367259889432 -0.6968466040239483
Ni 1.18855532900454 8.871890043596625 4.749837389024227 -0.4550240672923647 -2.2793670275533198 1.1623934252245076
Ni 7.1787697095445315 6.42407846267853 3.3295145694788775 -0.6566188668521531 -1.6052173509062548 -1.7313430735934503
Ni 8.865698427889377 2.357558681853112 13.229885536236846 -1.4862997159317242 0.9244889926004077 -2.7469203376609466
Ni 7.849841260212494 1.1816496574645896 10.533545883199551 0.5476789119156246 -0.26448578265705414 0.5813297672008504
Ni 4.1616395341185575 9.010050451753047 2.6982093518623977 -0.3713737401605604 -0.1867219962130139 0.6158627679807135
Ni 8.706116344751887 6.052299656099163 5.535499868086543 0.17283289693574752 -0.06166996620597122 0.346263575356494
P 6.174985722723206 2.267080291472538 2.491240268753622 -0.21496453599847495 0.37885102237421203 -0.7280947634049526
P 3.2235298929628833 0.6039014459422306 4.717287717618779 1.4598160678188987 -0.18112727573405582 2.1749403871061124
P 6.932937198193781 6.155480723924653 1.1201619338917312 0.36886382925451316 -0.8873661196061815 0.1561091564231634
P 6.715732688451507 4.144276702818112 5.768719898518613 1.1611286995794712 -0.6196194068096683 0.6060455247799756
P 2.4399569667583694 0.21266837611031805 0.6591289668660159 -1.4223260412932408 -0.9043045472327329 0.5615034765035426
P 4.036087848692223 5.063830287795008 13.42365398191211 0.21746030583713516 0.1738950196516747 0.8714936713502992
P 5.568808693587811 7.667240271941835 4.208726818549536 -0.7235858197910053 -0.132308711569456 -0.980756299733569
P 6.288924605396645 8.970908917555178 10.039959486579795 0.9103247852848838 0.5567729037970928 -1.6833490622126752
Ni 5.770491884440292 4.344625736720017 1.3246581289062005 -3.2991081931905177 2.6550221686980535 0.6634158351693284
Ni 1.8900869982201471 0.025205231347244568 9.051329455713281 0.12556933596309344 1.4576236881532703 2.049954948670947
Ni 5.752067364862276 8.904811775672798 12.05089761584337 1.0575654355738238 3.4327934733925267 1.8676400803866933
Ni 8.350009184606039 5.412937821686075 12.521037613377484 2.0822081522776976 -0.7018129468902882 0.36383629413293467
Ni 7.824905678896808 3.7237353992423605 1.7410419363507568 0.9425869877526992 -1.0611811779495401 -0.9918470103300918
Ni 4.140753401012014 6.301899751514565 2.820678383095185 1.5060851260887675 1.4436425433828297 0.32454315296026687
Ni 7.146627801601443 7.189151705533163 11.03101073044746 1.0270137880392118 -0.5243147832683874 -0.6424813990095064
Ni 0.9268200426217911 5.863939243809471 10.529970906300296 -0.08779391698653266 1.266175747219497 0.3930666517529618
Ni 2.1942372010654156 2.6295575812838083 7.480802173117548 -1.0466876123190556 0.8254069042945655 0.8490237723825571
Ni 6.265764768191234 1.323558858742698 8.583760059176894 0.9111837908510694 -0.8245558691481799 1.0312730775361982
Ni 9.01596959878729 4.426375734092953 3.4086526257795597 0.26515606925120144 0.5392770610051745 2.614658934389658
Ni 3.608622082633556 7.490990622393632 0.7491901983127477 0.06296528797862705 1.689690945270303 -0.38993967608820584
Ni 7.663237801090108 0.688803623997688 0.48055863586153147 -0.043323602488299584 1.6212283816225304 0.5993747976280194
Ni 7.474285474096991 7.675827732877228 13.474492878106222 -0.039530968215086754 -0.24257998372289838 -0.48175711241183483
Ni 6.491904371313771 9.099410781027153 2.768368156066848 0.6934368070114508 -0.5780061021442561 -0.23911028000674303
Ni 3.4619117954276724 3.3768358011497805 1.3131965932441796 -0.0316623641002874 2.6100427757738855 -1.5293973184521468
Ni 2.982009903022797 4.967122699821255 9.279599951768144 -0.2716622458008354 -0.5082181348168409 0.4746896640420922
Ni 3.4736091574239145 7.706738834056054 4.883953046707249 0.44679859405877886 0.7383467801502639 0.09047634891470226
Ni 6.4180371745150095 3.0802395573767845 13.557054644215283 0.3759497895670171 -2.600033728277316 -2.990265224574328
Ni 6.462891155374495 1.755731756014311 6.315138910381156 0.9221685719973473 2.2055200596651825 -1.8328779943151596
Ni 5.18799144344187 5.913406401167074 8.799943281168975 0.42345117758209005 -0.5014206522790332 -1.2089440192905372
Ni 3.0117747566807056 4.825767831360638 6.800928005217232 -1.9819754953071802 1.0815324879123827 1.2957467760083943
Ni 1.9470611372926083 5.814575436638179 4.901347822610736 -0.7907144951187028 0.28830859610826476 -0.9839786633256087
Ni 8.61999745313939 6.873097440319029 8.811824794406283 1.2327519203434123 1.2670653489133017 1.5596941696634752
P 3.5202764642796063 3.411176249419874 11.219196386967567 -2.1364013504906496 1.1505336976724443 0.1776128348228941
P 0.7810662144128694 6.133429552354227 7.371150444081768 0.4896408860352857 0.25904378570587644 -1.0530834885430702
P 7.01363490276063 5.193732076517938 9.807908252800202 -0.5658980060268125 2.03951138474012 1.2236905814720926
P 4.403291060659405 7.185149234681438 6.774071989530437 0.9748327351602822 -0.99313487590358 -0.17377983423004909
P 5.998905191661697 9.013536171673213 0.784437309580943 -3.429746716146403 -1.588874133661541 -1.406404484966978
P 3.5082126788955295 4.462877140804119 3.308268589814538 0.006751974011852887 -1.222141748927734 0.9153273807057978
P 0.10254969214183658 1.8021547806114466 3.8142588878860524 -1.3366250022799948 4.130885005567169 1.8497374890746592
P 4.849679306284684 1.7174170233069403 12.222705086474443 -0.16229677329111403 -0.26529876547665276 0.8112416685377771
Ni 0.4397888664556723 1.5389030651313533 1.3843625919915996 1.1021607056856955 0.06265469871674371 0.7760298965233344
Ni 0.25994075132951 8.302533867202815 10.491921125888744 -0.4523411211435629 0.17705490543689506 2.0143066033397177
Ni 7.100589991335108 1.2846240249174543 4.147615853383143 1.1471447265955537 1.4218239048458416 0.9832888363474356
Ni 4.173214754985522 1.3737682583474529 1.0883855097893285 1.781454388427545 -1.4334473480173828 -1.8727740591791489
Ni 1.1418974176203314 1.3372856425792523 11.213475484381615 -0.41526504222687194 -1.4358919529031333 1.066765614015853
Ni 5.960064312551283 4.323767790027922 3.6831685720205325 0.7450848702050459 -1.1717406707673628 -0.45761265395514733
Ni 5.546654171831073 3.15392824021737 10.654749344423589 1.0005918464022574 -0.33740638207618023 -0.4568099555481939
Ni 2.583933171762722 3.358448863457695 4.9441282229139425 -0.9675493141249918 -0.1568187808956783 -0.26824293570664126
Ni 0.46548454141432555 4.044346468125714 6.261605392965743 0.5580556271642583 0.6036937367183474 -0.7835817407286635
Ni 7.824247995893004 3.3824073157391554 9.131059426717387 -0.5535186585258531 -1.6769873816607055 0.9648190596780222
Ni 7.5853399470251714 8.087246033643058 4.68424384441333 1.5068577425887337 2.309955441863138 2.4544563246234117
Ni 4.744891612835614 8.513058196720731 8.435673335398763 1.553417592626144 0.523884123488872 1.2459591630623057
Ni 4.006144481076139 1.780094213569537 8.396647365500133 0.598336329061176 0.012206055147888657 1.4703051402756806
Ni 7.0292031990078385 7.490323543918345 7.075800979374556 -0.9416837592121395 1.2918389563135557 -0.4208209390480946
Ni 6.25445262052579 5.198345253016054 12.079128189008117 -2.2184367677268506 -0.8618931721460575 -0.4577034138967408
Ni 8.251826507609467 2.55640444031775 7.0840107423563365 2.1768211490685934 0.47632822808677966 0.36733068043943834
Ni 0.6394266631663208 8.360409971537639 7.044325210359607 0.1152450712189499 -1.5772697166533933 -1.411387540003866
Ni 4.03360744422073 2.187359715939914 3.261831472010178 0.8424024104112976 0.27340622507513557 1.292103522828852
Ni 1.7390360031891523 2.6700708543181837 13.157142037827443 3.2170262389870983 -1.9231705093538296 2.9915330355431577
Ni 2.741504624002867 9.561583418743746 7.075924999598131 0.6539845145530995 0.9846237531087753 -3.3809798311553445
Ni 0.8788223370041174 1.6577275929759139 5.918168965661769 -0.6649371569098612 -0.8875075302800522 -0.936280071698065
Ni 4.777305989451707 7.412341130610063 10.526286002384694 -1.2180346687378958 -0.45529069069019007 -0.7358211855149328
Ni 5.140177889065261 0.23485108428150542 6.614022011913097 -1.7867027813106777 -2.1544039577156577 -1.6745831430945868
Ni 4.2317203559097 0.4664081162610971 10.393847436361375 -0.3759826996874815 0.9607680295371002 0.2973354821972234
P 8.8359711561174 9.379781045549137 12.531392362498817 0.4337654150239046 -0.048901867907025456 -0.8907643466544529
P 0.5164925560951288 3.6800276659037907 0.866479506116998 -0.6214909128007684 1.8811975073561538 -1.4088781433184512
P 7.904673231786847 3.347850771624955 11.258977752773424 0.23807361121211254 0.3323685625419566 2.167794005869318
P 8.006773820391802 0.20107530384753614 6.537317382726491 0.297574594791223 -0.39687651241735517 0.09200204153060929
P 0.007796362236531681 6.846104250748583 3.5856172707076124 0.8366544521839269 0.7597604699393495 1.3846035870418025
P 4.60504941528375 3.959608710821208 7.934097969377074 -0.5729122325611166 -0.4772216864353265 0.855961637152971
P 2.4072607259977885 7.90493630498837 10.542264880735706 0.1608458997772004 -2.1103653314382043 -1.2534878673391832
P 0.9574455214675355 2.115756827768538 9.312176870040894 -0.5944143682989506 0.8379086363060021 -1.364139919870812
