# total energy = -381176.873427487 ev
CRYSTAL
PRIMVEC
9.17184522340418 0.00000000000000 0.00000000000000

0.00000000000000 9.17184522340418 0.00000000000000

0.00000000000000 0.00000000000000 13.42392258878151

PRIMCOORD
 96 1
Ni 5.386844944209342 8.830313419887181 9.105554080892455 -0.3382391623901207 0.597794340514777 -0.12640185916671778
Ni 2.459677991369719 4.079627674570376 12.35442534649153 -0.12703846430945218 -0.5306787778132023 -0.27956273159483463
Ni 3.179530279793605 6.851451081394387 4.320825196900196 -0.12817463479642444 -0.3292955800435877 -0.4733519190672751
Ni 7.759647215684164 5.108506951003002 3.355940637573004 1.6144015885086842 -2.3625355299526993 0.720919585812752
Ni 9.44654219866447 6.853303794170861 6.912165946574735 -1.6737555049869688 -0.5423708694391499 2.492857035888797
Ni 9.259344833477092 4.567753288253489 7.2621140401454545 -1.2928625124820636 -2.06926419052252 -0.08661506618708309
Ni 7.262037913828402 7.218141461609548 5.884685376569893 -0.4166015016501084 -0.068315753657263 -0.671190851129057
Ni 8.322578400678806 7.252921099472877 3.4560559163433546 0.10666658552131952 1.556512429501384 0.0343584228752118
Ni 8.636044561874742 4.262211601507425 1.149200130681065 0.3934160646725805 -0.3391441907028933 -0.24365958994032233
Ni 5.62191017068594 6.543396309001024 9.635826158686744 -0.46487062106914134 -0.6689928150364737 -0.5157105865391441
Ni 3.0826664202275134 7.308649232293971 9.535589811556742 1.2164848077522727 0.34673203035248024 -0.43505096660454756
Ni 0.936647198807722 -0.2339196629826288 0.5382259021495296 -1.7501985157370565 -0.06780436123848323 0.9741385373067352
Ni 6.3425970970437815 8.914125743409096 11.539042784826798 0.9189796327464045 -0.24974693378498275 -0.22024712455365292
Ni 4.9036170959848295 1.9334892191600186 3.1872016113096615 -0.4666883910041705 -0.44967437294467716 -1.2493051967164033
Ni 0.7322672983953524 7.989007554304488 9.239673059402918 0.8831435968844016 -0.023495769129095016 1.584403242374381
Ni 5.350680357686372 1.7112829199736075 12.434620294176604 -0.4083881126013805 -0.11609662058596779 1.7490253213645621
Ni 8.145745220825171 0.9015639728607231 13.17195595435552 -0.5602631763385383 2.3202151719179334 0.7064049371363447
Ni 2.266748222789781 0.9684276432160644 2.5181530918965263 0.22484399989571602 0.634724894992539 -0.5669560149776817
Ni 1.6862621256457695 4.078031773465887 2.336326759391838 -0.8573849998630588 -0.7487440642241878 0.6837985125907384
Ni 4.003097796318367 6.278100679993432 11.418818234955355 -0.7990551537739141 -0.11901636533592407 0.9447030056544375
Ni 4.602000959081989 8.254037199794665 12.899503534360386 0.30571316473795734 -0.4499381681290251 0.4707854438916795
Ni 1.1693644328547277 7.830692330370172 5.3426137196323635 1.072435924927753 0.9754413152785588 -3.055040826288816
Ni 2.7550297578451723 2.2365911950222106 10.720653692230735 0.6562352582604891 0.8993358903735479 -0.2806626495272328
Ni 4.803304622537776 3.821816271432107 11.420966281154612 -0.214234856921302 0.10927496967844405 -1.2265851294110681
P 0.1452196630320834 6.792613692973169 1.3264432920253355 0.4166554948164953 0.4070503676265635 0.11803806058305477
Ni 4.183957416314935 2.6338605078946347 8.452560876901197 -0.7968645738804986 -0.6043180005659076 -0.7620443808775198
P 8.89650662834173 2.3881009096488808 2.4241325044131443 -0.5869268016726537 0.19601936235453984 1.0339336550874967
Ni 1.349316040153914 8.073287641943235 2.872303725042399 -0.15398876764605093 -0.8964323435735078 0.27153137664992594
P 5.381873803987316 4.229422254101992 9.039105895135007 0.4934376340735566 1.3830259581420377 0.7172377660857905
P 7.74643975826771 7.313868012342555 10.590642783287517 -0.1362340147657912 -0.33730096684656746 -0.22452312622118753
P 1.6957641575092741 5.860414839198072 8.345921664477844 0.7209890055981066 -0.18822274912825648 0.14965208794391
Ni 5.267023955536734 5.96619373252027 5.520789657656671 -1.1291120374635586 -0.4423282169922511 0.6386648534768936
Ni 7.599295842064812 2.1291888850592406 11.297802154823465 0.97105269929256 -0.22901124389952815 -0.24743679759456744
Ni 1.8585460701670702 5.326668466355624 6.012641792137219 0.8134641301103926 0.6678725853891014 -0.610827005329019
Ni 0.6568086916893451 1.5487669908332264 9.446722884019406 0.26682882896793403 -2.077188073355287 1.7709565742200146
Ni 0.8708850670882945 5.769008227661697 3.7782573431250075 1.0319076257964035 -0.03409462769086386 0.18274758494629817
Ni 2.7050982313346337 0.8605887534107172 13.008787907005201 0.6239918248457511 1.071223649787207 -0.4623938773938746
Ni 0.3278063415227609 0.8681390165671234 4.117922880786293 1.374702782988323 0.44994999520356693 0.6541457227213122
Ni 6.036459240344891 6.5316930342347765 3.3599276387805963 -1.4948357784271933 1.3483469187026134 -0.8538286499703682
Ni 8.816720744962748 5.873805733523088 9.109031127494246 -1.2133809720159683 -0.330605814214579 1.4224736226146986
Ni 4.0335116357579235 9.285026000675753 10.856342890678487 -0.37072145128854217 -0.21777680863628948 0.8075796463051577
Ni 3.0202886994710525 0.1267824193525307 5.125602353696424 1.3139463297355563 -0.38577963117324526 -0.7470548494472231
Ni 6.593034336457864 0.6465765809297644 7.316521427224903 -0.5985476737410337 -0.6713245484934438 0.45651839244970405
Ni 3.618338880609862 3.7233198233798155 6.176507816924616 0.9365855187536258 -0.5691946745002133 -0.12629901504026636
Ni 5.967413587962206 4.377749338365113 2.1058777227191996 -0.8731666881773479 -0.7606467291990449 -1.7764829033548826
Ni 7.413703549827349 7.658004824650036 8.346767308626314 -0.07601595051499811 -0.09138934764727487 -0.7214636312416801
Ni 2.0920337392300357 7.743046175459316 12.454608496918048 0.7050347962616954 -0.3567804157274178 -1.9940763923357725
Ni 9.159417577538019 8.64688568317075 11.577972682746339 1.2214321244552189 0.33674740833594263 -1.1867116902548982
Ni 4.389993752011618 8.81223571254841 2.7680803767048063 -0.4052696215770568 -1.4212626330257327 0.9300294628026627
Ni 5.365804730797297 1.8012495517777727 5.534642812991263 -0.8808928531770119 -0.2256739519961791 -0.27145192956224223
Ni 6.996026880877418 3.906729216405393 12.611426875678497 -0.6555793698440452 -0.32522115286389797 3.0833566425143735
Ni 4.754959825286297 4.907854488572609 13.376899006077176 -0.1348088522834904 0.746000954261412 1.0691212587322232
Ni 7.896995600969857 7.9257309926960735 -0.1982099999928912 -0.8576531659227811 -2.1658695351530954 1.4209505011019528
Ni 6.99798965579903 2.6838745810140265 3.6474539867368008 2.0029729234944535 0.10494908860958053 1.075626663950909
Ni 5.5022084160038975 1.889675313550018 10.119530025688972 1.0781846544860723 -0.2059134815398002 -0.04079697941170393
Ni 5.130794535393267 4.087882335455659 4.1505425490513055 -0.931655171331544 -0.29682768932286946 0.6922381587176595
P 5.002847291671369 8.04262616267712 4.578940188122134 1.0158695984969344 -0.24779340960303778 2.694299369031121
Ni 7.690133799184647 2.436519081663784 8.835518442167624 0.4964049442319967 0.5829459626480348 0.12805327872721173
P 4.178756979957206 0.9849002776049197 1.1489524908545066 1.1133398622309665 0.013967260813369492 -0.9980387409631006
Ni 6.240386051593113 3.103193010295586 7.320508428432495 -0.35931038123812314 1.0990653545898232 -1.5295143036459853
P 8.546187992215714 8.881354739694519 5.760540779962481 -1.434463190876407 -0.49386418008801397 -2.2271607778634093
P 1.9114034153691706 0.2941209048190034 10.856047557255703 -0.6565260500280307 -1.1097685999399403 -0.022805685040605882
P 7.022029062666062 4.6743851632005 5.287951355250015 0.0842931029221258 -0.6245698088364083 1.4170730204244173
Ni 7.985568112268953 1.771431882291042 5.83309741477504 -0.003998065415799566 0.9522725904715793 0.7539124957990048
Ni 2.8966613949457862 4.6441455888240775 9.946817755986181 1.0749275810013554 -0.009507168159486852 -0.20227588478721295
Ni 7.2622672099641035 6.123105664104087 1.2716323437470511 -0.8174791648070565 0.7064188210934156 -1.0039062554874711
Ni 2.05305339616064 3.3302970749405985 8.208433867141643 -0.3785851703073351 1.1357675951068633 -0.06090763411864994
Ni 1.4386039553964 6.225995426116435 10.718076403665442 -0.7143817846942342 -0.7886982360196223 1.3493409071847664
Ni 7.103594284058093 4.425176951073783 10.53286657738233 -0.004328452172024803 0.18413983730813446 -2.985253373182033
Ni 6.691668362191577 5.53615341593327 7.63315095790899 0.011450922149418988 -0.9979649503023716 -0.6504700736419378
Ni 1.8417065619610913 5.77803332356294 0.3355427931413574 -0.4597667241836727 0.0003782092750251551 0.7162982849906567
Ni 0.3130415047526166 3.643433049701125 10.01638070045101 0.28818261205336176 1.8379386966675184 1.3700873957034985
Ni 3.8058022293146565 5.520579622396368 7.602813244786486 0.3630343670569296 0.09630015468533092 1.373919624965395
Ni 8.78727912113857 5.483140149358892 12.272364845446381 0.436937384993983 0.3827626987237924 -0.17320313579097268
Ni 2.8324401332582783 0.5831505182408723 8.737604406300017 -0.8044866092021307 0.32295652519943735 0.6371574156934318
Ni 0.14497018883643928 9.210183741982513 7.560984126527124 0.23997108534514155 1.8900048212351386 0.2985950656359374
Ni 6.1945818555252155 9.200002993557328 1.304196063754953 0.0997426047079766 -0.6883313674640855 -0.8993490029996705
Ni 3.4972980364953177 2.904778478149648 1.3693611083370114 0.11833348033628655 1.4187462943617823 -0.7908582197854186
Ni 3.5847790981884695 5.350478577086953 2.0513501844646433 0.9306197880884941 1.1554007959567585 0.45384393094133446
Ni 2.629861583287986 7.960932535449095 7.2740346876483475 -0.31418186433060086 -0.8075233391459253 -0.9743007739162123
Ni 7.6909684371186025 0.2835686966539823 9.701630480895139 0.3488372496209412 0.20326550239399185 -0.10225457249655293
Ni 2.847472787914923 2.5080227886211977 4.336209133236737 -0.17907270719787224 -1.5519474358385208 -1.1334173497071318
Ni 6.31894290768473 6.211632316176042 11.855673232695427 0.5022804291761672 0.547545985882186 1.326226689764806
Ni 7.064742346824691 0.1327624625716474 4.153442686575668 -2.085853719450085 -0.25320583886786074 0.7423929251951795
Ni 1.0160478646787237 2.3651346086969354 0.761258584609012 0.39647824853767205 -0.4506279951071981 -1.5077365456492613
Ni 2.9677798843952194 7.931967847587176 1.150855648780836 0.5501924223660977 -0.7429835075913268 0.6749325775596763
Ni 8.36232917876416 0.2024739909324117 2.2904436854532593 0.3678153333853407 0.337114047646742 -2.4075881993169634
Ni 0.5211433400397062 3.184886637523611 5.034118698658453 0.2241418316223688 1.0919572827901323 -0.5007287684183311
P 0.36582180645312107 2.247734987217344 7.528176435430836 -1.9586062244536202 1.2548364109472776 -1.4680294568676264
Ni 2.0760839000305817 1.8173094531223637 6.407198073132013 0.4212464566212874 -0.8452031130848863 -0.003410568343445739
P 2.936311282731432 4.546942370977146 4.162637461617332 -0.5075164807641259 1.9203021866670993 -0.27311749019012316
Ni 6.763428880820976 2.3188167892850657 1.294835278311041 0.43576264795959146 -0.028289076752680314 -0.5769151830729226
P 9.421869934462903 3.300947169570701 12.244254973578363 -0.38638641151930875 0.28321601207670577 0.2234610035052603
P 5.1726181505453726 7.031742046974412 1.2306085135162765 -0.4167953628284693 -0.8068461105732426 0.044117816254820794
P 4.1786010585849285 0.6944912186306655 7.136506534192263 1.2333059930746695 -0.458931629876887 -1.0201890518078944
Ni 5.046239292391678 7.53211207430403 7.174697181370299 0.158471743118069 1.3058123877745125 -0.09274457612358866
