# total energy = -340872.14009393234 ev
CRYSTAL
PRIMVEC
9.23630886732054 0.00000000000000 0.00000000000000
0.00000000000000 9.23630886732054 0.00000000000000
0.00000000000000 0.00000000000000 13.51827164773044
PRIMCOORD
 96 1
Ni 1.2380255868336327 4.6918508760447475 4.169399995952493 -0.9431845121273821 -1.0531745055949797 1.3767576086348225
Ni 8.982448791616697 1.6836220655540186 0.7773656121936494 -1.0211632427957056 -1.071920418743915 -0.806708556554114
Ni 5.209453617680816 7.910501272187742 12.05697305533086 -1.0357768789438226 0.24794741868239878 -0.3419963154397078
Ni 2.9010968654472475 4.544928912961149 12.113101179896317 -0.16128195887335448 -0.13153455240759282 -0.5503117215527813
Ni 1.8090234292798018 2.471100512184094 13.26019438358075 1.4457094532141874 1.1116956417593242 1.6042832691277595
Ni 6.830786017110751 3.010657959688629 12.79101576139239 1.2114760416837718 -1.1400821633218172 1.1003773885330275
Ni 6.731726605903633 7.469402875822402 0.32861678130123667 -0.23937716051488456 0.005129865027397616 1.0533529401543729
Ni 7.3281058247597946 2.978534077900438 2.379215865604081 -0.19050460318389772 0.4268566037192133 -1.6305326897425918
Ni -0.06712764464066039 2.733531752335871 9.603217407324466 0.7861240475345429 -0.41372597987452614 0.8612239139931749
Ni 5.550338064246881 5.391150283160199 4.887206194884793 0.7808931381529067 2.1008525068517625 1.5910546862526276
Ni 9.591260082033209 1.7298959723276925 11.79842291211048 -1.766992447365944 -1.3933463662314391 -0.34582057428180446
Ni 6.041552671820596 8.546845998950028 5.29102407829393 0.347811122349272 -0.5197287065596017 0.5289075448453924
Ni 5.175473237836434 3.736049938986841 11.411462215777718 0.964692818512803 1.1341508854390467 -0.04293536591094542
Ni 9.129075192820704 7.631684820336065 9.51655219881188 -0.3258438740495614 -0.32604416298582556 0.48627814021064
Ni 7.771670315557983 3.4468980576581703 4.6097844256524425 -0.04459321322934256 -0.6646360807296747 1.2917044876182204
Ni 7.400657029890973 0.5991962930210245 3.380757774421523 -1.0361892838908928 0.4569493093395356 0.33205643061817647
Ni 3.325726923334052 5.192855970879958 3.406794005120986 0.8889362923067787 1.612595902758513 1.814541915010133
Ni 8.29760420767506 8.36512162454443 7.370432133179163 -1.3047965449154881 0.7035875222922077 0.00047308298167660464
Ni 7.579545857514232 5.248624803035536 12.952315886287282 -1.4281804431914888 1.8409772263835262 -0.9049244402049189
Ni 8.077041155029283 6.873106783744877 2.403873115409071 0.8203099493876325 0.15636498118771136 0.06607118059746041
Ni 5.103707118947922 5.638175360338226 13.031492295675699 0.598840265280788 0.3572002768736558 -1.3565554226553347
Ni 2.7211550986279422 0.5822144157766977 12.123496645380103 -1.5532396722873831 -0.09960916445390587 -1.6529511666471082
Ni 2.2891821752950157 2.9378481379128063 8.337934549776305 -0.13230922579008828 0.6156827907594236 0.20742194776452666
Ni 7.484559658460245 2.92333789688657 8.082169153640208 -1.6864071323127088 1.0742297836033823 0.3298591658565416
P 2.1120205374056256 5.179038453009016 7.483782884895442 0.28727346997553105 -0.11641209494385757 0.39677109718774245
P 8.315781263269987 0.753716967302768 9.061635360944724 -0.7959873134818679 -0.8140251448201852 0.08622168740340634
P 5.935926245101287 7.653953560701599 7.791417543638245 0.5978719878302478 0.8122703669126076 -0.7829587624326838
P 7.960765264335912 7.2273469327450215 11.610181398259872 0.5024532073086057 -0.9480824636496316 0.6404882798388777
P 1.541198184825465 8.446447322976008 7.916326612108332 -0.19452478008688434 -0.12210040357788648 -1.3718210905651536
P 5.738315419667602 2.0530744150444304 4.50438244123545 1.5689105460554205 -1.7836665655875152 -0.45099643419021035
P 6.9843950677201265 5.0488342087398586 6.488729482965926 -0.05585078842103285 0.21252327354683398 -0.2641898486831902
P 4.560953908620295 2.6348695024044564 8.257622998044079 0.0010582660611852743 -0.70953062724952 -0.7415580879987099
Ni 4.123420727427538 0.30694101195663415 0.2322802339098643 1.1794570655750138 -0.2730645254650007 1.6194692328395783
Ni 0.3269496275741612 2.322460595675364 2.9167154635219545 -0.7814919480791703 -0.17319773647433398 1.2093767359525818
Ni 4.508898072577097 1.217022220765103 6.164142503166756 2.4141902780145137 -0.5220969496814621 -1.0745344593279946
Ni 2.2235397290993064 7.620231797501863 9.812872379351539 0.9940810418669332 -1.411433048529821 0.8663316675333854
Ni 2.4208734652708728 2.6474585912133426 3.7180252824860776 1.7979503292000392 -2.6933879129604454 2.351978837482775
Ni 2.5404651908009193 7.540975032227432 13.634798746084805 -0.5139185276357279 -0.49084724763856113 -1.4787393870859629
Ni 0.4370214896887133 0.19564903345788995 5.486349840946015 -0.8056433485143932 -0.3351756929734485 0.145425194346756
Ni -0.08440693102632695 7.040330153432974 0.17128088011637613 0.2877902617109495 -0.04271502237002321 0.2946515076071571
Ni 7.400370704320118 1.2980431210083503 6.316493568526118 -0.28689294670766075 -0.1981459217792394 -1.5144070156909015
Ni 7.111126459904074 5.827621288848173 8.541790043547252 0.792914330983499 0.6094782046106084 -0.490337140771362
Ni 4.4579505935823684 0.11872905429398621 3.4091326384932605 0.018056086170762452 0.47057178521897663 0.3605810204204306
Ni 6.926187850057912 1.8429853365067077 10.624172189845881 0.07834177043469734 -0.3076391781160766 -0.49752800209284637
Ni 0.07995595384584121 4.257042405929482 11.613263554485497 -0.4588722373938613 -2.161480404946465 -0.40194235697603675
Ni 4.676832638037963 7.142511436993285 9.478173488746815 1.169853481046979 -0.39847496725272663 -0.026046303465090626
Ni 1.284835199514068 7.148164057940489 4.2691244213886925 -0.8816153331653334 0.6612185704076935 0.3492697091726695
Ni 3.5359083649591474 7.305846320702996 7.580451939401357 -0.21194580377680916 -0.004173414651399264 0.377575240985582
Ni 6.288152878796708 5.992341618868473 10.853441387107399 0.684307333906357 -0.3455470089054436 0.459979354415111
Ni 4.3337222410662175 3.079616240721015 13.348022443363357 -0.7273157191470829 -1.2445427423307533 1.4093368281224243
Ni 5.514214860775455 1.7426513146938494 1.533201388720745 -0.3245457240634282 0.12360527025818711 0.8496714332688852
Ni 3.144344292351734 6.070065156892518 5.676065469671089 -1.2526358037515328 -1.0101612352582474 -0.4822898449868533
Ni 3.8272954330022353 5.439548540943443 1.303987609311651 -1.0099833149194863 -0.5324716080475668 -0.8845134806487347
Ni 4.668676977422962 4.963010427953235 7.220987734179418 -1.3671069729189358 1.5919216622386132 0.8027074058145208
Ni 0.5904993847140202 8.439409255718216 11.800680265965868 0.3646279367962946 1.2083040717136933 -0.7264479718301489
Ni 1.0849891873659672 6.188945686649795 11.638244998727165 1.091371328379675 1.1608929294195813 -0.613608424728898
P 0.5111788889093024 2.4162091293585566 5.265867144186254 -0.9785358950434826 1.1577968069927609 -0.30440138790506927
P 1.0380964479068966 -0.10152735290171264 0.27311949662253443 -0.060777536298688886 0.7991096611609335 -0.1606522957091556
P 1.9255487003090774 0.017834388540775906 3.863184034231734 0.9952071850515765 0.7393790780695202 -0.7760100990289925
P 3.5929702803379415 6.42569075220325 11.082954422919581 -0.1463425639547028 -0.30857068879141053 2.063631160606459
P 7.511797532926426 3.973718635414023 10.21264845405725 -0.5080576979795767 1.4090012991598766 0.5303234513563124
P 5.884489241743484 4.123725525615868 0.9804748122186244 0.18261388758191133 0.16196972896899844 0.6268560337674237
P 1.81014102263701 2.869859669297833 10.653668341798323 0.08886683833573727 0.6545609558818598 0.48004475770641847
P 1.5975396681227527 5.343814200881741 13.660348223313814 -0.3563338151083025 -0.3603681330786761 0.22259865550496505
Ni 4.333011045293448 9.375684636105555 10.23448031701951 0.5806263133759226 -2.660084413712309 -0.876642048320458
Ni 0.6463855179905611 6.70200416438713 6.633537254979567 0.9796352987552481 0.5076108402501451 0.23296868588537942
Ni 5.262386903054054 3.855540065120777 3.4448069573600546 0.2796835734434151 -2.301732539732713 -2.986568749559347
Ni 7.440363921152456 -0.015038557886007215 12.3308129840349 -0.08346083682881755 1.52748904568584 0.877366070970676
Ni 2.4166339995604704 1.8244573011797638 6.108366281964189 -1.3493779310702891 0.7277782606057982 -0.3011389151037136
Ni 1.473967093526947 0.4885730232748579 9.725139453548925 -0.6695255476114921 2.076309784515392 0.29893367992227876
Ni 0.22878706194543247 9.047500114053221 2.4089558561071858 0.5674671502861452 -0.7463418825405985 -0.15187532084747393
Ni 0.192796861319824 1.8402698617379534 7.505182488608801 1.4939250936874657 -0.8505258108493804 -1.6486373697631025
Ni 5.786565896511051 3.2439855910092987 6.441686191674439 0.4569796483568388 -1.490608113499091 -1.0532624373230957
Ni 8.974736473821086 4.067171607217623 0.5853510662238713 1.700026522868356 -0.28539964999158596 1.4126466092219478
Ni 3.833068125963023 2.1930968555012966 10.426602004170642 -1.6724820375911842 2.1290616222961267 -1.0126333509478236
Ni 8.40847685775713 5.80399481109826 4.550993473278034 -1.2800615040626535 1.300180900520348 1.7166872713534889
Ni 3.1904611818768753 4.846799191421026 9.568624660210805 -0.8650954811334391 0.7121053299552317 -0.10269783068155862
Ni 2.0755371178934476 3.8183362135270933 2.0220496539959734 -0.9997770638104458 0.7464570679622241 -4.044871320409511
Ni 3.3617577637181046 0.7593982208070568 8.03611230012186 -0.6851162029608975 -1.241211106854359 1.0683828379043019
Ni 2.838918035028011 7.764502939977868 2.426745910366023 0.4028101042929708 0.8012372490268975 1.6113054660818638
Ni 5.8147274018509565 6.5754574983779275 2.5905065879085214 -1.0160436621809534 -0.49581127651205575 0.2586920587934125
Ni 5.425472406427859 4.287605351541077 9.31196703665069 1.1030788466245907 -0.3779979303452974 -1.1634329222326156
Ni 1.3809759371602106 6.091955208599825 2.19976085225523 -1.742266919594806 -0.7047416905013089 -1.241764665364984
Ni 2.7330145190465847 8.564588948034304 5.768868205339586 0.5256625555455334 0.4866964586949812 0.1306233534472331
Ni 0.6026469779652649 4.972117428368175 9.060527003896253 -0.16641130968011986 0.5985525588370402 0.24705190345132294
Ni 6.857035606542044 8.496461934788272 10.173864270038619 -0.4731246335478175 -0.24293222485599453 -1.3029934302684787
Ni 6.032076219056166 0.743734364819537 8.337042322352286 -0.10185605150655361 -0.16852732758185815 -0.45110570607456507
Ni -0.2555778990687297 4.510034138551779 6.67125372170817 1.0727151467310687 -1.207775710014049 0.055594706546168764
P 7.141449261488501 0.3196769580744424 1.1264204974686955 0.7057580475809653 -0.11297992933385703 0.2182010406579016
P 5.1764707591800585 1.2339985562241873 11.871056320389421 0.39680169331536175 -0.2332587063219725 1.5562658607082165
P 8.727822232347906 4.632969407844715 2.8402702306271457 0.10722502912795083 -0.15644237139286604 -1.2766504214985754
P 8.175851185900493 8.012848809305323 4.465153067135684 -0.12263570725606622 0.07653711312579077 -0.05386255434641046
P 4.487543726776551 7.503383255666782 1.1207632583671236 1.9392509598554601 0.532975801377495 -1.2287829083933353
P 4.372523974071448 7.186799537388448 4.2557410100284025 0.10205865443566295 1.03710793905042 -0.09499660538255898
P 3.7607293559328 3.794811335173291 5.053562275182463 -0.2355169062285299 0.31551086755466956 1.2499711124351762
P 3.2003902137694302 2.0054981887388026 1.5433539392847415 0.6952761742130349 0.2050480482157114 -0.05470716173489288
