# total energy = -340858.3073396002 ev
CRYSTAL
PRIMVEC
9.37112665489625 0.00000000000000 0.00000000000000

0.00000000000000 9.37112665489625 0.00000000000000

0.00000000000000 0.00000000000000 13.71559110744132

PRIMCOORD
 96 1
Ni 7.903120947925372 7.014316437443363 9.76403366244708 -3.8225588286863976 1.1710966094254605 0.980556525017937
Ni 0.8067050067034043 8.302077924305262 5.301021458921623 0.7578331710096498 -1.0014763058897398 -0.1836418146257934
Ni 1.3823348973715142 4.059834471686437 0.042560846067332424 -1.4288103634660037 -1.0969717052855883 1.7913829603951663
Ni 8.115433194111048 6.709398717352017 0.8477355477830019 -0.34596789849294607 -0.590306516778164 -1.5461123172139823
Ni 0.6598566402043138 7.641010534533188 10.146204139595312 3.4584620818032246 0.8614488855197874 1.1845648191152245
Ni 3.381889682753857 1.4305212307881254 1.7176853513738755 0.9312612783272348 2.175738457527376 -2.091992742468287
Ni 3.4278082035125887 8.375660011039457 0.2509147283410718 -0.3480299232282974 0.306284206750079 2.8381528480153833
Ni 4.057866535082492 1.724024918576586 10.473279888734417 1.0920200177072679 -3.962959573235369 1.366229455409989
Ni 2.97781607120371 2.250888403086255 13.433392964516633 -0.025473718791072256 -0.24210587229995723 -2.025283671176512
Ni 1.4261823991327596 7.289218438761195 12.78823868496913 0.2726354083473821 -0.7523996586989041 0.5372659441124167
Ni 1.7405649571764148 5.081118600120728 7.5093134056591415 -0.10807323606085903 -0.3787147539066639 -0.3333967466961549
Ni 0.9371117314328634 0.2810279068321139 8.793065924525003 1.6455204214006758 0.6834228744188746 0.0816680065944529
Ni 3.190615615977029 6.0206021637176805 0.5444071707775099 -1.3463342591479588 -2.1477437720866623 -1.3876300325729523
Ni 8.32959155225376 3.4106496705515204 5.903684238739266 0.37939635335472083 0.3234990279664687 0.2048361893152214
Ni 5.095484537329532 3.2566258323493766 4.569787758092202 0.660609733179101 -0.1200250091060965 2.4099754686022172
Ni 3.348434760486782 3.506319502883333 6.662581505544152 0.32991110214039954 -0.6608393326914038 0.12041221724218616
Ni 1.7358512804536308 1.6019191378651034 10.824481603525225 -1.2826830008459007 0.5448874652134165 -0.04664881020679063
Ni 5.419659922759488 8.32837330578465 9.127698550223258 -0.33476611623985575 -1.6750338574787604 0.902964745375387
Ni 6.669815078232654 0.7895970778264371 9.886568640760755 -0.004706661447049959 -2.172222216844001 -2.1541414480828904
Ni -0.11676704983877892 7.546933793737902 2.6286478909036446 0.29304276835914045 0.9284646894187043 1.360372996629212
Ni 1.6978982173775368 5.281660711189473 2.6454222076706095 -1.058907294313699 -0.43340108970595037 -0.3338304917994637
Ni 8.248484450791144 9.364267020721567 6.033721741077318 0.8100972705206887 -0.2824318256125136 -0.24428771044262446
Ni 5.121273877967904 6.624599391975332 1.38135186618221 1.7888751063716484 0.04820458472968472 -0.10460918877165856
Ni 1.1446831246283673 4.048935851351253 9.635367155943108 1.0987660781818496 -1.9184450788537022 -0.059359830015555844
P 4.039227364105121 5.315340540496999 8.526406766239697 -1.2274734455532925 -0.8782906396674746 -0.2662179348568125
P 2.1175560126055966 5.241439835455498 12.30901613430298 1.0212702006872154 0.09288495835619485 -0.6587467118284331
P 1.7776465054707613 7.267814785411614 1.5419617322188914 -0.5985790411996014 1.0959980285184092 0.039806590473976604
P 7.659865241424323 7.340581584124175 4.689593864315074 1.0814268155724538 0.7222439610511303 -0.14545090537836886
P 0.7349971453063002 2.044395626572247 5.402090934449596 0.02077399932255777 -0.8389450479903164 1.072154132021276
P 0.11079483080213824 5.731512276598069 9.741169050447235 -0.11452516233378987 -0.6389641298848673 -0.30039972294484396
P 4.691439039159441 8.814875347660063 2.255433399528701 -0.032447836116060245 0.9335487888098308 -0.25677787248983525
P 8.372736219513595 9.13216295497621 8.366277639001979 -2.3145512887639366 0.4905965650803358 -0.38964888432066447
Ni 9.057774951347065 5.711982848585581 5.833076547615034 0.14889232695975002 2.0070483791154077 -0.2439393259642702
Ni 6.236859654237933 5.620689332415875 8.704202341504836 -1.205770506658562 -0.14589802021811646 -1.5524102344075523
Ni 7.597200517278684 4.612890255281954 10.271989961756173 0.08223724883436159 0.6649176165258356 -1.5021402825084065
Ni 0.8386867878555262 2.9250659990912817 7.545344450652049 -0.7576886750119853 -0.47604026453271564 -0.008698299104946308
Ni 8.80873725968109 5.647256476569141 12.130631115169324 0.36926929222304794 2.6562627259733738 0.5483342861114363
Ni 8.499874295255166 2.1926749641162067 1.0049137072274696 1.0425928734243914 1.2162007008529505 -0.7754629682762709
Ni 7.451938682527441 3.7948002667683896 12.224171827518203 -4.1868967450460985 -0.5321065113986643 3.7979597991907945
Ni 7.2104166344632015 7.319309126548192 7.001397402194795 -0.957538723966525 1.0489344993717034 -0.15845323117530777
Ni 5.52396993389529 6.6993903540519515 4.511099202999201 -0.16552093665536655 -1.4042409016567559 0.3884561495641439
Ni 3.7560131734172906 4.995297821935329 4.752535036697934 -0.7235683362895087 1.3554380212214399 -0.39911774304304815
Ni 2.31005769697822 7.186717055075685 7.629434381738644 0.700515311124787 1.7870586219881996 0.27678259774653624
Ni 5.926656618695991 9.02421694668645 4.695957796447167 -0.09579853245856404 1.0556677043304787 1.5583975623392388
Ni 6.054788033866222 2.6715114243629174 10.568754801631172 0.07102929593368412 3.419040385472492 0.7123966359434054
Ni 1.4118726886840693 4.112593914925551 4.967430902510791 0.730473033829142 -1.0413669714370906 0.20132457661753717
Ni 3.382555032748525 3.7645315275743694 10.44000582921237 -0.675374035972469 2.70983397433161 0.11551246594772366
Ni 4.657187571124101 4.330107136421654 2.563362062624083 -0.3548502885842405 0.4836594716408702 -1.3433252971183058
Ni 6.926836969834638 5.5965399389474575 2.6125867168774426 0.6825674683971148 -1.412856925460541 0.4718995028914647
Ni 4.729954369836661 1.4667687488074665 3.4251674200126274 0.41465749054986006 -1.4628047181335775 0.8188444205856994
Ni 1.174295884954406 2.0982702338869297 2.2266162478582574 0.5760695472431756 0.3811573019098855 0.06374381801586441
Ni 4.992608308576604 2.930744901862668 8.355497094863031 0.841559602795028 0.171184305588731 0.07192095451001806
Ni 2.6696746835325675 9.214891261355408 2.8356026639632455 -1.979292034937746 -2.739783726616165 1.5429544883112911
Ni 8.14037913334773 9.207028886066311 0.1138460696509225 -0.3421762926609978 0.7801583168694113 1.204784231485893
Ni 3.267552566064617 7.844551406141277 5.087428179718046 0.19776642695263358 0.14680613385468264 0.49724518074510493
Ni 7.6234771565047 1.4534992334208618 11.82658397274706 0.7850611534876673 0.29004717606592634 1.7662861653275386
P 5.42815016353651 0.6988873828492352 12.054907725987503 0.22893385369437347 0.5924652149923797 -0.42030234754046325
P 2.9027346041998414 8.370918220936618 9.748630341514197 0.09714913294918753 0.36143488378029365 -0.2592890689474631
P 6.282618865843012 6.110930453838784 13.438262201942395 0.2098783797248192 -0.3055774104910415 -0.7552422703540219
P 2.0704567298844982 6.064871366179771 5.507331498465265 -0.8818680726060876 2.1124034449141553 0.9101689764333099
P 2.8168201147475873 2.296806923844986 8.900019530498772 -1.7398446833065584 0.21321952828291021 -1.6073889046362768
P 8.865123328947474 7.991528157075958 12.318562501057452 -0.2244267098526393 -0.8911489836873814 -0.5030620445371982
P 6.876907606854532 3.084478235137562 3.4550257038578254 -0.8142658000760816 0.7307769382228059 -0.23920438238244612
P 9.008632763008537 4.540985600224455 1.5953424811572507 -0.06300642562920762 0.39271852438492366 0.25496730164365766
Ni 2.3968811857189634 6.235275933828092 10.480878935363654 1.781866793374615 -0.9502866703898023 -0.8608518753657368
Ni 2.6451317027433605 9.15346352593225 12.097631629659164 0.49622959499639696 0.9365322969181872 -2.5494606433154545
Ni 1.3278417956955915 9.429227670905142 0.4349514739787232 -1.1770425425962503 0.414775247074647 0.7362197065049321
Ni 6.72219967640435 0.8554817211011991 2.1700942972549337 0.41876431362938205 0.8517645683524879 0.4456032881990971
Ni 4.454921172745233 7.195507171906642 12.283176189580505 -0.17038700649841623 -0.0839730005785457 -0.2624456122985738
Ni 6.78364615408088 1.7997998489551779 5.847573680597433 -0.9753451560203267 0.9652270937497184 -1.7764219682099598
Ni 0.034175561909187004 3.5518069518145334 11.654618175392942 3.8287513306503547 -2.3824232700155616 -0.09504777033546856
Ni -0.09332705066044954 7.292151601413742 7.925993056826563 1.9343967170869525 -0.9255256613950383 -1.5493578207344736
Ni 6.514919725248764 7.952900372878511 2.7938936533116205 2.09119492915734 -0.5903795361079446 -1.218560716444695
Ni 3.496545417750403 6.888621515211351 2.890341289158327 -0.10932459196945689 -0.16778067922382073 1.1484981552996543
Ni 8.793546663323967 -0.058602340727494845 10.58987638406752 -1.2493260226520098 1.9175549629392654 0.21482004000081067
Ni 8.690492383164013 4.668770283707324 7.902265364058991 -0.9780116471088962 0.8220801539141778 1.1782532750749
Ni 2.175394606508227 1.2306444697140488 7.048332690198897 0.8907422351672659 -0.6207774316735115 1.2326619317327674
Ni 8.800350101297607 4.40544162384603 3.894775194699501 -0.7687058520580955 0.5385597232231757 -2.850441692685065
Ni 8.624407197778183 1.9622202166674894 3.8268148468639107 -0.3553015171890461 -0.2618768842792974 1.1829655929489047
Ni 6.666984997973647 8.206689225774012 11.682200212566242 0.326103041248219 -0.3201069715657842 -0.22425161772735572
Ni 4.841873735841054 4.818848877574891 11.985164052743672 0.6728127030031961 -0.7261677215855687 1.2138147171192775
Ni 2.5878834898219134 0.9244119805487344 4.971874690785033 0.9724002144593898 -0.14395272356628755 -1.8173035369156703
Ni 4.691354699019271 6.656423738199139 6.839060437509983 0.06959744858316401 -0.3320327764690927 0.3051356949679326
Ni 8.561180206031416 2.5355176339035896 9.618977055370248 0.05846405767416383 -1.2069370161628374 -0.13498471573972237
Ni 5.638110256924137 8.775647811354746 0.1261110002568464 1.4523560119964278 0.5712728971854806 0.558292939986045
Ni 6.42252978725686 2.0848039248399304 13.826961543052384 -0.8820331374290421 -0.7826695133270392 -1.039229356268797
Ni 3.9015280285890404 8.949969509957587 7.456933493050788 0.1101450309882232 0.6868912925834494 -0.4379586271696458
Ni 6.3137122641853525 9.638203795990796 7.3361546638779656 -0.8337051397476158 -0.8094632364811156 1.6842317219279448
P 6.649076774877742 5.47928840185904 6.197320996526661 -0.1449271716644149 -1.2973943389141462 -0.34061280482861983
P 2.6610063913485216 3.3865846172232708 3.1783000812870035 1.17470618115359 -0.1014197353000834 0.44034358246205446
P 8.994472990586813 0.557861297359818 2.3755815518755923 0.058523964377821786 -3.0206502646240883 -1.5424091573307823
P 0.8598542888126326 1.8117386643524478 12.931882126141794 -0.5773525277206574 0.6790743676421918 -0.43949357575693343
P 4.735539561341193 3.208008427105234 0.5582886207366748 -0.6345978824963716 1.0308318762337214 0.40387248411921406
P 5.565990065952873 6.368036685580937 10.653530699191144 1.2171358110727104 0.6775623018730396 -1.31888850423218
P 4.650084257096526 1.5371740235952924 6.353830057525787 -0.9539870020595248 -0.04117107492167103 -0.2539344895037691
P 7.382395551394676 2.8740214720356065 7.865287835270853 -1.0029220371973309 -0.07878991371570947 0.17083386422784771
