# total energy = -340862.5106360786 ev
CRYSTAL
PRIMVEC
9.30006854423393 0.00000000000000 0.00000000000000

0.00000000000000 9.30006854423393 0.00000000000000

0.00000000000000 0.00000000000000 13.61159037982450

PRIMCOORD
 96 1
Ni 3.0015040240165556 0.5241034856932768 3.9188311350511693 0.2704983073997213 0.5893120140753786 -0.4110157800322147
Ni 1.0181156705868142 6.973163266702427 10.281174289763184 -0.832963890706217 -0.27813782622285005 -0.6833238869471652
Ni 1.5177897370253142 5.160310264603142 8.142521297054282 -3.487741547493632 1.2673995923242687 0.11966916842857453
Ni 8.216080186804417 0.9607342495414459 2.5164292047023697 -0.5615394719478007 -1.0930134919687886 -0.4775315043662614
Ni 2.856999563691931 9.576001265443164 1.3809094726444489 0.44840681908616326 -3.0728912242066757 0.3657432813476605
Ni 7.956636183092483 5.813481957355062 9.645988928988855 1.005426034566107 1.6231335690650432 0.9260103143409406
Ni 0.6331477158227821 5.666075875739327 0.4938866339722872 -0.9757616747324549 0.7102621060989058 1.2757862737260675
Ni 5.273231693182212 6.989745288375667 1.4096029731876052 0.18133116421474577 0.5072879096930876 -0.6272370712559262
Ni 5.038116667988054 2.4440486335983356 12.033448507355933 -0.13798287913609786 0.6547175360643821 -0.9875013317668865
Ni 9.413994076689466 0.06464384433456243 0.4702086602313622 -0.8116399324174604 0.2044646649084156 0.28480212561690305
Ni 4.964367126838983 3.520289730689777 6.224348742155908 -0.07140647676744477 0.9211817826040458 -0.9111287692434179
Ni 5.348720347092303 6.98954068687437 3.8335681094200615 -2.050903171516829 0.3892997285113618 -0.004229721810631425
Ni 5.161984276886475 0.2374233021315097 1.4317482956824563 -0.282944503582874 1.0009078349807794 -0.4824024593053176
Ni 5.866073843256449 0.2329322991780562 3.7111048108259923 -0.046717201550880834 0.08645720045298014 0.4824081157322724
Ni 8.240567266482287 0.4704597620738622 6.575500718789784 2.7465462421509796 1.4514972635405583 -0.7991356293028624
Ni 3.605190053659496 0.5659389126674235 12.54401946375211 -1.3342140788456571 -1.14414244943412 -1.4986268700385095
Ni 1.5270619050613323 5.485794052892574 5.480339562869379 0.36950223416946043 -0.9841103038074663 0.5959544590925607
Ni 8.73990653046412 7.146786240688809 7.3070552466883125 -1.2330046597841668 -1.2005267417611196 -1.3167084658617259
Ni 6.005658567481722 2.252727629749824 0.47779937592945454 1.7980925112048582 0.6595612373099285 0.268262476090667
Ni 7.476455059686575 6.809854068395025 0.03552161064550794 0.6728049896937123 1.0660030248182157 1.7712177983012012
Ni 0.3108854711719422 1.9908284080223337 8.1272626750917 -0.40883985542681844 -0.8767124965470773 -0.08333151033980488
Ni 7.8801989222218385 7.8874157751766525 11.2149699616385 2.1523141650661644 -3.2520253807701027 1.022626971825426
Ni 2.8628865068883202 4.83935560954695 10.201423414578363 -0.19041152924945917 0.7922756689582355 2.5162296491764664
Ni 6.469983074537168 2.3949256731507447 2.778220545638267 -1.2381666636010804 0.7142316322696151 -0.23134452001839512
P 1.2561509172085645 7.632212602582495 8.169145532413873 1.615552671393992 -0.07133859964398682 0.47911401836203293
P 3.679302297469956 6.669162636049105 11.278195545566351 0.0035555785617422636 -1.1902559559627308 -1.906370921297988
P 7.63390521500231 2.9350550364364656 7.041928901281286 -1.718881193681014 -1.483040071343846 -0.4506092260541207
P 1.571032627703553 3.857175402642357 12.9150438262028 -1.0687939572997913 1.9450626814412306 1.551420102580141
P 8.323207672869506 2.1745791563228822 0.3898170103447541 0.5352861946782265 -0.2652655982458722 1.3428403870620873
P 8.921843765457725 6.398967753450874 5.1550361959038185 -1.043635455756293 1.2880069841619755 1.2100616778347484
P 7.167739294435198 0.39212156725480957 11.119580091700051 -1.0884037611109192 3.321847800879879 -0.672814502775409
P 2.831387175756932 4.919168795188985 3.481667477292806 -0.502220008251877 -0.7162550904575471 -0.1812658581944491
Ni 3.332856155365895 2.515315056527129 2.220499173268362 1.2222209389051015 0.32582176256237433 1.739855996160468
Ni 0.31031630699560886 4.05190023146698 10.882874754836728 0.8991975650234707 1.4922273942700686 2.0235204086285017
Ni 1.5518651870593867 4.019442993306796 1.926420785421086 -0.7001802963828715 -0.2570792057803379 -0.5817164611163078
Ni 2.299293071431211 2.4968079207280556 11.510192257879389 5.108754470671246 2.030245900277794 -0.6200801484961709
Ni 8.234578022535251 4.320449001986599 1.0907371134582837 -0.4951687578320504 -0.9432439046104079 0.21222708246265387
Ni 4.666225539177327 8.737944216065324 7.940212262579335 0.2532022393234349 0.04212598263577261 0.04526761358854785
Ni 6.9983013511571475 3.4934032334057967 4.825349706776395 -0.8222675873346356 -0.7314009449600499 2.079876161710412
Ni 3.607440670173755 7.535910395949628 13.10401377280005 -0.09443687622434704 0.44530966821807827 1.808891401592575
Ni 7.605419105980921 2.8998821783499853 12.172694709097243 -1.7070705741993313 0.4496697449589869 0.11868803546222784
Ni 1.7072972275668812 6.098696450162089 12.304020042717914 1.4905674900691426 -0.15395662885653486 -1.3450129692333739
Ni 4.965073932025279 4.707527142234455 3.7827562565799524 -0.13522074300992842 -0.24430647949570186 0.14524933089052405
Ni 5.325191174443229 0.9731126403698714 10.020226465016721 -1.227126603736835 1.568595071697531 0.7763926791793919
Ni 8.184115852260993 2.0612206245364977 9.997440367820083 0.7219832511905759 0.3383918859179011 2.548496222519656
Ni 6.518706132050406 4.45436068458502 10.812462078172432 -1.1247920699319662 -0.6859836931675153 -0.43172318778289526
Ni 1.6957186426071593 3.0856789416634967 4.182923312869827 0.260072741191023 0.4098847517515651 0.7983007921063929
Ni 1.291565577069304 1.1681257713099567 2.648978427303522 -1.4118164000111686 1.2693860266266783 -1.3854651637111495
Ni 2.7768143753202676 7.5134414310799995 6.594761160116358 0.9614128622099507 -0.28171397360988254 -0.10116545319743223
Ni 2.2661755284259346 2.919951725613503 9.116253321968987 -0.7022670037085711 -0.9776347233854518 -0.19896070437105087
Ni 3.6437853368585684 4.8242987990651915 8.071509695995283 2.4729207019761863 -1.9726760722831254 0.21351443381550972
Ni 7.041388567316498 0.9722384339552417 8.5688085250051 -0.5472469665845285 -0.5582844553456127 -1.8262275788781772
Ni 8.945196236810224 8.71325253488616 9.058867250889497 -0.39407041042712776 1.030599191397625 0.9313245274650025
Ni 5.686303524162938 8.7886388880456 12.590216622731162 1.1219751693084614 0.47314134571836575 -0.7414986955156843
Ni 5.983329103635705 0.9042465650540128 6.151526417810438 -0.7173830334144032 3.2728207202488986 0.247745844194554
Ni 3.6422601256670872 8.7127596312694 10.487349362605807 -0.09979891186720877 0.8998930484285985 0.38920562613565873
P 1.820441857783729 0.8718386172555048 10.42491242446477 -0.5530424902203831 -2.137227960157003 -1.6034227208996772
P 3.5241864592826473 0.28798498313594306 5.847280265355561 1.9666314087509422 -1.4945562995135615 3.2317409194894537
P 4.278952097496416 3.0952394118149775 10.106646419136977 0.5169043497369292 0.33773522617050866 -0.4462638046012315
P 4.685086077569549 5.855425265120802 6.691008496346604 1.9201106394815834 1.8113660883853127 -1.0158611138565021
P 2.4161670290125956 3.7373347232921765 6.718231656100898 -0.17729684624437209 -1.7919555450691849 -0.8637785620942285
P 4.803029542998618 2.6236143511905508 4.088064476827923 -0.06120408231314621 -1.5676481344032294 1.0580246345984294
P 6.944240054473724 8.44382955795191 7.501687074830528 -1.0022630634570933 -1.4901581704458657 0.6013920851683643
P 8.0415365060622 5.648731248470346 12.019782987082989 0.2450364156831909 -0.9209298144942397 -1.2168452764154851
Ni 5.845409091625524 2.9690932861975754 8.490079727319936 0.1701530361107392 1.2213511347056385 0.4442364897585575
Ni 2.5758120004331455 0.3056346526432202 8.339903155375284 -2.371594040610541 -1.0017508997073652 0.9818209935526575
Ni 0.08863988040932079 5.638463973132569 3.267407855128509 0.9929345869673157 -0.11373994742833315 -1.2135889742617163
Ni 1.8528060952615055 1.4842071906080005 6.2385592464277595 -1.3263030515286967 0.7041027713657294 -0.4853332597988674
Ni 2.4609561576600014 6.908499892224558 3.954248584932381 0.9603689943264686 2.0731393572072103 -0.8277340097658453
Ni 6.594650489304293 5.783954240690711 5.408510485812021 0.5252694338721728 0.7198114403502378 0.4492516835849618
Ni 2.78751875386536 6.157379880761161 1.552973755193683 0.7679556041556322 -0.10269243136491993 -0.3227888892733215
Ni 3.2184560159365474 6.966513717910297 9.167364637006447 -1.2535786272807765 -0.11753386725312662 -1.5651366808352851
Ni 7.250881904507416 5.142398333171476 7.578960411836015 -0.29905477888117526 -1.4160453504908515 -0.2605419675179577
Ni 0.22938432314421373 3.4955143488964446 6.3009003938659145 0.18116661361242348 0.6460783723321454 -1.1877457879463673
Ni 5.513936059389055 8.15642024904007 5.798646488497433 -0.5888294180120053 -2.6252639635990147 -0.09696015686683301
Ni 1.335992003055321 8.706658786503475 12.03427900344983 0.08025544251764243 -0.025336421882259593 0.09956931235490595
Ni 1.8522294910305797 1.8712946309240974 0.27513414884088794 -1.6534641017277845 1.669408540872183 -0.3636614591179672
Ni 6.0914051966613485 8.121377591908958 9.718866123736946 1.2050236011902087 0.7119814027828577 0.41417849403091245
Ni 5.768395226523953 6.409802332951336 12.130349638383503 -0.7142879394288473 -0.08967519316964556 -1.460654504559794
Ni 3.8603839261854125 1.9841881592984452 7.6541784337603 0.7088991643131082 0.18682278345693631 -1.0200463555824433
Ni 0.36200608627764397 8.091533672924422 2.909027865457929 0.5466075332283168 0.23180371904300076 -1.5430447340322522
Ni 5.351900970430635 6.2681808937813415 8.948082047985325 1.077416151751164 -2.1202849045447616 -0.9297512694406116
Ni 7.92482064964091 8.50188058391061 4.652659529634558 -0.46965672960387506 0.8702741971209011 1.0062652426379506
Ni 0.8545051500684128 8.264580042679878 5.1434799311078745 0.9638728937146689 0.7285827587849646 1.3549919348229567
Ni 8.59420236133644 3.375952671593486 3.3021175698165997 1.9348746851646355 -1.041370056760884 -0.8132008491466769
Ni 5.8991169857158 4.624319431684551 1.574111880298062 0.10059158297183321 -0.23843510831658934 -0.2782928637434755
Ni 0.3550970655815979 2.0037741030134444 12.07817625555295 -2.456356626969918 -2.235349741432105 0.8149335155670675
Ni 7.332043600044358 7.248473186833064 3.017199749186453 0.9427849626961182 0.009166754100932598 -3.010665385497234
P 8.795734840113285 3.8564964976607827 9.061099267267275 -0.39557450577648007 1.2885811114978905 -2.47763970471841
P 6.9581622566301125 8.938128184947262 0.731297846015084 2.3873510463344823 -1.241168683652198 0.19844057020152275
P 7.261446782028898 5.171154144171846 3.3142318387069887 -0.5181328228273915 -1.219664748142151 -0.7685865528714119
P 4.0936110375267 8.38429052107469 2.84137823906796 -0.31317836276675093 -1.7140593468123384 0.25576022985859825
P 1.683702954440123 7.832415171600913 0.6452154843719667 -1.064663737181502 -0.5357376803933482 -0.6170647587086147
P 3.9334731624893915 1.9428679561048354 0.3059992153182572 1.4972934959390665 1.5308839303000021 0.5795287094363697
P 9.456681389914465 1.4098066446820774 4.313948254286322 -1.0539208968427012 -0.46438699656450344 2.3955994023862033
P 4.646909297441309 5.357378710624431 -0.040311145789489244 -0.4657062295965592 0.15685400500898794 1.168600582476484
