# total energy = -381166.2739810791 ev
CRYSTAL
PRIMVEC
9.29380686367803 0.00000000000000 0.00000000000000
0.00000000000000 9.29380686367803 0.00000000000000
0.00000000000000 0.00000000000000 13.60242577738504
PRIMCOORD
 96 1
Ni 8.334695425765823 1.6155703550142675 8.03937355526365 -0.9263013632187983 1.336509045527421 -1.0281329892453197
Ni 8.433962578503838 8.54970765108124 7.191806236824479 -1.18644326708486 0.7238115626485663 -0.3586236395837437
Ni 2.313702550442994 0.24582398371559994 7.203600077927797 0.6575938291709126 1.9662925373542848 1.5926899078632053
Ni 7.448400813490934 5.896139871869734 12.789830519803026 0.6665330406420715 -1.4678268539385173 0.7801493180083467
Ni 3.3799438541618896 6.201627308486022 5.869677615153046 -0.2963211820000961 0.3899476465080059 0.5938345845360806
Ni 7.819288770078892 -0.0001236076333129484 9.553106090519272 -0.320020582499565 0.19409746274147863 1.7264160686054781
Ni 7.081118854025189 3.5446951711347197 6.297093294154488 3.0896234493596917 0.2502300440689884 -2.5432308603556586
Ni 7.34454252008701 7.595177907694799 0.7784957446961747 0.12114832407726232 -0.5993506292583033 0.31634364786861
Ni 7.874326695227709 0.3397555618457231 4.967007314915947 -1.0487105562863552 -1.712548823705083 -0.6358993749166145
Ni 2.9143520040807793 6.778001338197986 1.0759366031979989 -0.8242416803418708 -1.04686064756181 -0.0773531812691829
Ni 0.5451951659346497 3.1051724497335202 3.085724229171815 -1.0635576486015168 -1.1930085790072034 -1.1766067406104124
Ni 4.19943458160569 3.2863552175106574 5.816872991830175 1.5980971949217058 0.35848814244714394 -0.3994370740556798
Ni 1.1391512197595037 2.4208043824955063 8.451241624508006 1.086752084440109 0.12586115617189936 -0.7929102172184409
Ni 5.922134650093518 2.8000939406259375 7.805371294072415 -0.741630078887226 0.6113322271002116 2.522274055598334
Ni 2.6871741853814024 9.118163357215563 5.031918051257873 -1.3843732161985511 -1.2492249782977711 -0.7034761935253239
Ni 7.729612826181399 1.922507625525052 3.034197504313646 0.1817299423150612 -0.20052007843837077 0.2514420620992186
Ni 4.50982914832643 1.1731386720170565 8.003436262294137 -1.3285167713505637 -0.5244050289893484 0.4622396112041975
Ni 8.047395969479869 2.5654160196646396 0.6043177192670047 0.9645508936183003 -0.3951279051573646 1.028263601285913
Ni 4.2479668418433 1.2699057906677647 0.36134879306672346 1.3515466565868335 -0.6631705519277418 0.24577920738648637
Ni 3.8518647868209044 4.603287671679438 8.393404404685965 -0.5158357992630986 -0.23034667488150007 -1.308816978928791
Ni 4.189573852361702 4.667795986177572 1.0709569813988202 0.12470647374216587 -1.0364834180925442 0.18745964570998683
Ni 5.1595777844298025 6.62244159636399 0.35642586349034233 0.15120657691522346 0.30415147667779235 -0.907696089412785
Ni 1.6429034414483563 7.503875547569504 12.397550078225617 0.38607685069868997 0.32214457082110326 -0.49028237627402665
Ni 2.8736915983857303 1.043731703126117 9.85148934105252 0.4013132080324701 -0.22529548561083781 -0.23171964396962674
P 3.2129713173122334 5.2714287518674965 3.7681982185399656 -0.9208807064238591 -0.11884230165190499 0.17268197318018003
Ni 0.8382502769056184 8.954081194347886 9.126928346612363 1.126496968438215 0.4085881444273286 0.024765122759821866
P 0.6712126834068498 1.235202715269979 1.684184673452075 -0.11137607518184689 0.16481208351380003 -0.2931070459381726
Ni 0.5133174078697315 4.2132823540595465 0.5852115108034889 -1.5417206159041899 0.5375721624989258 -1.0604625546159607
P 9.083395225168665 3.794196714286555 7.209667075147849 -2.04797699900897 -0.6891376654154648 0.5853103491151532
P 7.772197049928764 6.2095735134847105 10.635818808412646 -0.6580062341179829 -1.0080727281603348 0.1446158110715832
P 8.19557642854315 6.8805306171986205 4.274032253000405 1.9328396570124777 4.653300514930315 -0.22620797012277816
Ni 9.057484091208027 9.28926234438033 0.07516645238409503 0.15148477027727458 -0.36377741587054124 0.07847109692371002
Ni 4.188551533589941 8.63941147639978 1.5481465732552115 1.0783543472947172 -1.6728345358345966 0.2633652958993658
Ni 3.5802161015499143 6.309630639819088 11.282191933807802 -0.7942150520727935 0.4679338333754974 0.5474994489149667
Ni 2.2479023967696348 2.752649055809201 4.701134730705408 -0.7438008612862996 -1.292262931224852 1.2117984580201968
Ni 2.2777541049050627 6.596335292456016 9.063962804078887 0.03497060253791396 0.11942825606236204 -0.22085776155445835
Ni 1.4316737955884546 4.902157917700325 6.938706131596044 2.1595772743864807 1.2479437975925023 1.3031641515183878
Ni 7.541376058879109 5.129781839136471 4.628728539005068 -1.577121106890671 -4.850941472048678 -0.15260114326990493
Ni 8.525841154664123 5.619453943196066 2.5512438933459243 0.35455949681669907 -0.19144177028618642 -1.3367566427618527
Ni 1.2075443455903296 6.984370322988513 4.826494246640874 -0.5259880572057521 0.3802463600598419 -1.0469133551766163
Ni 5.930118030320271 7.37436634680139 11.815189907414638 -0.8073011958327903 0.05911943186997561 -1.3736049219384536
Ni 4.214815832217188 1.2555003897929473 4.2403524257550815 0.4273687674689414 1.5315997254201041 -0.05098471857798316
Ni 8.565999694780308 8.627078594489534 2.3469214048603226 -1.1861635310609122 0.6631250434017869 1.3010661313387788
Ni 8.345745762307859 6.201227674784334 6.486398849263619 1.084358644507268 -0.322409908667348 1.2055072256948465
Ni 0.17656653383228477 6.802564870141302 0.6358218662898794 1.528690265082793 -0.42605004865751783 -0.541221586326055
Ni 2.4026628712002527 5.023739501083783 13.00219215135748 0.881618932709759 -0.177228712010598 0.3491763781279148
Ni 9.210404391849474 2.4174307305486944 5.439936625636198 -0.7208720204042681 0.6033607788589608 0.5625105776118183
Ni 2.7552048527386037 3.454879820131988 10.051090575573989 -0.26104873195104716 0.493996077680188 0.8598306331900741
Ni 8.813056966686933 7.070719083974273 9.029005078368863 0.1367556915972161 -0.9517005200181934 -0.3146829723367355
Ni 2.2429859728581647 8.964211443995337 0.4878691054984897 -1.6785272153439996 1.401357923682006 -0.14874423141765994
Ni 5.192654443599786 5.353353660713635 4.545046171252201 -0.3865360497232955 -1.18696725790913 -1.2131670562329495
Ni 4.6703053140718955 8.815854402598752 6.291216819978264 -1.0409316836718847 -1.4034513158759248 2.1101431881250687
Ni 6.411565115170697 6.897640515915096 8.05973628643573 0.5666752505124693 1.31250959728903 -0.77718046518801
Ni 1.780033563969601 4.754367798531716 2.2686666204048067 1.5765968589560846 1.9721291986407197 0.3854147916346588
Ni 0.8481602633267911 0.394805568943662 11.443475731382959 0.23889250756898212 -0.6802509044487962 -0.13688424675528038
Ni 6.151524394862705 1.3324345242714877 5.929542743665981 -0.7634168357450143 0.9023001152081945 0.6444032986225676
P 0.5897069252571335 0.3408977707279909 5.841521097417339 0.631091926225642 -1.09693108185564 2.77072901004477
Ni 3.6509605605557915 3.1494016773227167 3.0196703545669186 0.20018043571076494 0.9629179860005674 -1.1962394272396752
P 7.460296886471429 2.5408339001072906 10.14315223973249 0.28367238288783403 -0.5943184661510345 -0.3996800433044213
Ni 7.660401845333165 1.2426563484968198 12.097099885012007 0.7704009803723313 -0.44073798968699585 -0.7225226686338138
P 2.362820320522613 2.0150832372115395 11.759419630272959 1.1054977404787283 0.35134587497540787 -0.9788220588253335
P 2.894240205698131 2.6631496942450132 7.246297686120756 -0.0602165215888963 -0.47395535697922897 0.8967071945014493
P 4.0936524701494506 7.062066549642366 7.816797100417899 0.5057804719096257 -0.7389129370663791 0.26832906766254433
Ni 0.4919509455399218 4.766867968968251 9.227695519802763 -0.002367471790912052 -0.2679696274405966 0.42664397348777494
Ni 0.9650875081566307 4.6845155449993765 4.7886257005734345 -0.46231982962282964 0.4137426920450745 -1.2274919574960539
Ni 5.185405274127298 8.56914100155172 9.496261449286541 -0.810179802932166 -0.11886775557320173 0.3591440308635879
Ni 5.346699294890171 1.1196528126399121 11.462234351464074 -0.2836880666171179 -0.9898911721553018 0.42987482172024677
Ni 2.598567029290752 0.4714227846029564 2.734318880231522 0.18782319969699265 1.4106326641157123 -0.566586547453405
Ni 6.111328679518457 0.3683191483287318 2.104621632765194 0.6608843269967263 -0.2043559072446932 0.3726515784317195
Ni 5.353177078380331 2.9067496699416817 10.105868274126358 -0.6124771393379324 1.2127636501469437 0.13282987418024866
Ni 2.435693061335156 2.580434811802514 1.0014541750102823 -0.01618483728997858 0.6894374560440707 0.8191215855064861
Ni 5.286187317408922 4.923793900433599 12.20881702162867 -0.150089946812277 0.5631893488463978 -0.3941853387384373
Ni 6.281721337350005 2.932047412639264 12.841778254119022 -1.175478283432924 -0.04132534111134818 -0.06294831869776256
Ni 8.164944040618378 3.7001805625125863 11.88396314995242 0.23320574159684998 0.9849777940140845 0.1824537078549632
Ni 1.303447140188549 7.849066127758191 2.5481564906552054 1.1311866606044003 -1.1237708277563032 0.33745600436719303
Ni 5.781714519888605 3.1606936528471707 3.8718083672965626 1.3182344155879493 -0.346997368198725 0.8605081188730729
Ni 0.43958406052750537 2.647852087896659 10.60672268678762 0.12127713634564274 -0.30538766307773857 0.2099673398941997
Ni 7.283045399062064 4.654840419197253 8.8938378078894 0.24175697360097076 0.05972801198825197 0.13873904057583203
Ni 5.952311641474506 2.794582713065443 1.5772965989609304 -1.0016398280507977 0.471736237840723 0.269589936652839
Ni 5.185349511285201 5.897255128711656 9.732128048165187 0.7609303218777347 -0.4399435188101585 0.6925184089622396
Ni 4.019171900723137 3.0261565024833934 12.667585358598625 -1.3011599766041655 1.056160327696181 -1.035841670743487
Ni 1.1629526595275081 7.644249208739337 6.998842639273846 0.8175791807200307 -1.6449398663068573 0.6309749410318036
Ni 3.8893095352884135 8.634327763962022 12.38743005176588 0.2477869818451345 -0.3632372270963551 0.0892285925505302
Ni 4.049906520525086 7.340964404385846 3.6440357449481615 -2.047377160641442 1.0856745351052142 0.7817734838753311
Ni 5.5654197492049775 5.029074146310974 6.799172630580459 -0.362179475255802 1.3805044772717643 0.923453352247042
Ni 0.4701467448996581 5.611451975355281 11.936238026275378 -1.3113690559266837 -0.31023393542644634 -0.8458664577004981
Ni 0.5225889097489043 0.7283175512360288 3.894633027947185 1.4202462759460768 0.3426570889521583 -2.8277100554155044
Ni 5.85675271773588 6.892649741547499 2.527031667307812 2.1704358143675395 -0.8783734291892679 0.2957797076743293
P 6.157825596019561 8.88596688272754 13.402089797165212 -1.703469230001318 2.2133197582152593 -1.0866417841144898
Ni 6.247445777074957 7.048841462258583 5.573185654347557 0.6539081527892093 1.5983175384626278 -0.4512082930907003
P 6.549596736972495 0.09004397865532571 7.912993579317824 -1.3635603932182583 0.3570385544848109 -1.1392671236196896
Ni 0.8001140691961183 2.189890453375693 13.067252517992364 -1.5548584388377285 -0.2508661349910905 0.11218520134670355
P 5.547110949383436 9.031861065264883 4.442348674344577 2.2620208229653884 -1.421440553364494 -2.06316553382395
P 6.686001942546492 4.875317403038085 1.479658650592822 -0.5574269924413238 0.6179024241185617 -0.49224001422102964
P 2.7774449329279185 8.273579350828534 10.485702449347928 -0.8823398700361836 -0.4712860376771819 0.3269543335049208
Ni 8.124404454414538 8.19602253127992 11.499858470406993 1.2761997071144022 -0.8709532254657968 1.2537503769719505
