# total energy = -381172.4735521619 ev
CRYSTAL
PRIMVEC
9.16490754079203 0.00000000000000 0.00000000000000
0.00000000000000 9.16490754079203 0.00000000000000
0.00000000000000 0.00000000000000 13.41376858899607
PRIMCOORD
 96 1
Ni 6.319551908930709 0.5175368211268586 10.333162712625064 -0.5838625609250332 0.07997622071432678 0.23998548352284474
Ni 6.677908952619527 0.8070754917470853 1.1618902987313238 -1.0548932880582995 -1.2877308476824532 1.392720302611666
Ni 1.375542619707097 7.330991088018146 8.887332585195447 0.8796841775808915 1.7831271481442772 -0.06468766998637246
Ni 5.683818943213247 5.873697494430477 6.916058154546576 0.5834907794079113 -1.5541745253968267 -0.9216427814008643
Ni 5.7628296097854905 6.267385256091223 13.069638173175692 -0.6098543570031045 1.1746568159728932 -1.07491729658871
Ni 2.0956935473543745 9.013283157925104 0.8728392011840173 -0.8852161631427141 -0.13362408794676986 1.0423522181684952
Ni 2.209228420048604 5.67051149768919 12.543053755477654 -1.9619430021363373 -0.13526985108030898 -1.782387955985408
Ni 4.405781773182765 1.2493785046353532 1.4439522379062848 -0.7704112647849765 0.2536187580355632 0.417406771160223
Ni 3.4434023433310568 5.726976492092576 6.1897163319602475 -1.052852860589503 -0.8538044816006521 0.24660607416315591
Ni 0.4028160094169176 6.119078724775593 10.688815192144357 0.3250581449234724 -0.44191709759676145 -0.1611721727683676
Ni 2.8006857181856804 1.530548698321684 12.792188015397223 -0.3747002334306321 -1.211748578618868 1.7536286244645283
Ni 4.989348086060741 7.460894485303261 10.889524830910025 -0.8635445917065515 1.5291772320215407 0.5937029440542226
Ni 3.7902665931581887 3.340709556074127 6.521398912702943 1.0392278136069006 0.48386541700408925 -0.844938803679906
Ni 8.893057902839303 6.969004741004586 4.432405829138265 1.244847932275998 0.10987686492850109 0.7917352230737332
Ni 0.31960689877127835 4.16843816661492 9.267089687629907 0.44072179173707965 -1.118737379097454 0.8373653622080224
Ni 0.8218007484437125 8.219941279895512 12.254362838790607 0.21481335513259134 -1.424825924896959 0.8488782479436284
Ni 5.327432354612358 8.257334102029226 6.6625788120354414 0.5904155315522025 0.3535971329034297 -0.5052467108933427
Ni 7.59288748147232 0.764235048663302 5.490805077179364 -0.3611206949739845 1.6788041231544701 0.2576319929600143
Ni 8.303076154791325 1.573193012387413 9.154400735887378 -0.2369073588181533 2.3126535575205915 0.06696926693169757
Ni 6.9428664251405285 4.965665965376055 11.268276543004271 0.02090769668694464 -0.6783464883372318 0.5963000153574375
Ni 3.1912482464278975 7.9374330097308645 2.662190220226458 0.8052458559656583 -0.4671203363352665 -0.5339980719944223
Ni 8.910049641132415 2.263603815568047 6.751713035305945 0.8070561697015197 -0.2560862457394493 0.2859367534419785
Ni 4.520728041614395 5.246607036377743 10.625823867191603 -0.3452981261194311 -0.41413838482159643 0.14382776795264907
Ni 3.8423599267385886 6.656692192021597 8.599553576793276 -1.5234066480863504 -1.2870376782701705 0.2747113170398043
P 3.1636527102895116 4.416523044638822 3.99794706048143 -0.392107373163486 -0.7602001285799295 0.54976921878575
Ni 4.31199727590475 4.359728113569551 12.803857691971452 1.271734729364513 -0.8423918688883363 -0.3006303508984113
P 4.8259011277439114 4.524320685309594 8.65783597233125 0.509164300780194 -0.49083490634338695 -1.0699378410962477
Ni 1.4332448766075547 2.0219343727141452 9.960259127933641 -0.9636186116120179 -0.37352703905813733 0.7920632958371133
P 2.6073336670692644 6.655629062764855 10.636138970454224 0.6206421916472279 0.8186819268659062 -0.025939088463265005
P 7.559829660532048 8.512109362444699 9.065024559061893 1.2039481087378427 -1.6143257409654264 0.1555517412577966
P 5.842866745984934 2.9972454868870964 0.4255193179928092 -0.16533581722775398 -0.16166273925154093 0.7619711044374232
Ni 0.35344282034859725 4.891017794719412 0.7336957442726246 1.7945675287707354 -1.1689487098445224 0.5667660104540627
Ni 1.4158957069263973 5.421464304389787 7.710583222119663 0.5167326000457552 2.162764413865211 -0.8544912232550316
Ni 2.6395666463448215 1.0888368219597946 3.0505989952330324 -1.2990884387871175 0.7744239854887953 -1.2926233998880643
Ni 6.369564808534553 3.069080030976325 6.316664046613471 0.5249956113854958 0.4057465612134754 -0.19223675538365603
Ni 0.11651438408532525 0.11902465221827241 7.412756725750535 0.7595668658713048 -0.654941222039414 1.12555157380581
Ni 8.528578701016828 4.433963863393837 6.816058933570307 -0.4170085072805399 1.2969845050702373 -1.3929054220392785
Ni 8.55562434271207 5.579119041238846 2.702096059965335 0.1337521288842019 -0.7270771207737156 -0.5341091436509898
Ni 6.0504793929935206 6.903503147918885 8.856104996260102 1.7961305023824807 0.3584722016075439 0.6720765961681199
Ni 8.688808776841272 3.095786571098297 4.459300249861644 -2.356428388613697 2.0783065032304466 1.0056834019925518
Ni 7.191299569645088 8.917381567040987 12.391799789946779 1.0297376147282784 -1.1101113279913397 0.7151011793587619
Ni 1.0149126789866227 3.1230521705707974 2.5732301301962828 1.1058759497537534 2.556599825463397 -1.8817742057952302
Ni 8.410131437963855 6.3054196217419385 12.744435181954696 0.38902359203183967 0.4898835981737112 0.36267312706276894
Ni 7.321202966930204 7.12998633923466 11.04225434653 0.14890132582081453 1.5674933539929197 -2.570729837106876
Ni 5.1600719808418285 4.923406577420526 4.58104321361052 -0.4822227391943437 0.10965369317410147 0.5958498151938965
Ni 3.545206134571572 0.141080001841994 4.763725479548487 1.1513613357800623 0.4862228614926723 1.6971540864165673
Ni 5.375612272739059 6.04103037347885 2.2035599248305395 -0.9581976977067627 0.8744165014240489 -0.7973011471972848
Ni 3.048294021025525 8.046367098917466 6.785864229697333 -1.4431622613123016 0.6949504154424999 0.7913883812572757
Ni 6.775496886462613 2.0923208614364315 3.4431402269798257 0.7188755587995297 -3.924020987188642 0.13410385579666584
Ni 0.6897610112469871 8.437552840861914 2.8306668797165675 0.7370907962559757 -1.8237822026614783 -1.317506536282989
Ni 2.4433459792166774 1.4291389980987546 6.453485115993324 -0.2956699215693424 -1.1643510631715108 2.414886275640273
Ni 7.312707097783647 7.323136762388589 1.2723494285069075 0.30866710515995877 0.8716361104654343 0.05822623063174489
Ni 4.522652672165394 3.9421657681690183 2.0005425623851494 -0.37829437853979364 -0.6395410854342598 -0.22647433641028739
Ni 2.1745300806862895 7.085069128137273 4.580735272722359 -0.28690297400998976 0.2449862791715458 -0.0922522098682024
Ni 1.6893123889644137 2.6226573922181786 4.708621473891879 1.496770276445745 0.6068734199979097 0.12172785072981616
Ni 3.3996857351011993 6.178265696672536 0.7852969223264122 1.4271579154642453 -0.11038157247906151 2.425708820177074
P 1.1619727828977953 1.854775626906101 0.7468327225193075 -0.5195890956579438 0.9641539152901976 0.9618949440526919
Ni 0.3150079482451269 3.77264247625546 12.12777713797912 -0.21362936212681916 0.5184482971852813 -0.34507006926902506
P 1.6269451942046278 3.65326955755653 6.777829355392277 -0.6667850087518775 -1.9893905568243286 -1.5132831864991034
Ni 2.6784533483824076 3.5154385153827716 8.681564834043604 1.138764472951658 0.17819776079208666 -0.43078807756313553
P 5.400614140087288 1.2038014202061955 5.811260646374559 -0.6577421818233188 -0.23032404917368074 -0.45302323481225204
P 0.9685199178001365 7.439760208871804 6.42283399973254 -0.6903383705917854 -1.4007056348099876 0.7559819767335237
P 2.327464890231705 0.6802377559824913 8.6650533368975 0.704528288938922 -1.323659186147946 -1.1283630751126763
Ni 5.814959602995433 2.8868633423335526 10.661062019598935 -1.7630746003687765 0.06107012783844322 -0.28179573469041147
Ni 4.447207154566193 7.158122604908802 4.766072612329968 1.3836314529365201 0.248483750801843 -0.9645580927071518
Ni 1.0354237417158514 -0.031466793018111686 5.067225053589372 -0.3647408082250751 1.1856601090619323 0.1777951260370293
Ni 2.6807354103214505 0.008413384980085783 10.870424247427456 0.23017389674906163 -0.013699608974279631 -1.3608661342155466
Ni 2.361805798205977 3.84751060468936 10.951952514058556 0.797887358718058 1.066509532140989 1.083892503504127
Ni 5.3509953315010295 1.0467424023372085 12.674120179510018 -2.850993708533793 0.15601891070220228 -1.3023498831472087
Ni 1.9217802648030586 5.431463218347601 2.6182334914230943 0.5093471062149615 0.8671760178115516 -1.7035072823281048
Ni 3.3547593590964273 7.9888481401647224 12.751637882669128 1.431773816969702 -0.20526556354315617 -0.5078005876634479
Ni 5.292550717102329 8.916025160747903 3.3033414791903546 0.3293999668319359 0.30675780395238783 -1.2022727779179487
Ni 2.628009698131436 3.607756627479073 0.6548454635796311 -1.683668907445939 0.02070252265467402 0.2662243626147157
Ni 4.944440039870741 2.249343219675876 8.386783836398747 -0.1594662458208544 0.34287846093434493 0.27914338466922894
Ni 6.6480313545420975 0.7030739557154757 7.778483271468206 -0.19479705991166452 0.6510274888073047 -1.0519899983685752
Ni 8.105636554980881 2.543582571294235 1.3244656743557723 0.9087432997303768 1.6005343436082888 0.4259816573134277
Ni 0.37819448572519593 1.3656995091748398 12.141740790871996 0.2963000989541736 0.058992933594440335 -0.3726243247382099
Ni 6.808802159902299 6.881388226397156 3.5983910086216113 -1.616162537063849 -1.59641800744707 1.7056973480008883
Ni 7.222515244200832 4.835606764665383 0.6360876476332895 -1.0266805730695092 -1.671861887508682 0.949134816173546
Ni 8.790539248822702 0.26033927568934073 0.7122581094067002 0.9477129961253549 -0.8747689996674612 0.6008768360948427
Ni 4.5291689213166375 8.883517234250773 8.84210101777473 -0.9580604007979502 1.002196728995532 0.1778750873453453
Ni 8.34006572100007 6.288757820114709 8.210071591131834 0.13043129204108506 1.3001253646920643 0.7751858033554844
Ni 9.224754230943075 1.3597148246519684 3.269766757473528 -1.01339002660819 -2.0126880938996887 0.12194819427073834
Ni 4.65954889378581 2.5905527216460214 4.046759357217745 -1.4377796568441497 -0.7192545394055033 0.8074397782931836
Ni 1.039483795687723 5.080795531955399 4.641297897217898 -0.21026815896407017 -2.0146012517620013 1.8032177482465654
Ni 7.878878416443536 7.791967599704806 6.229876956124448 -1.2249301103061485 -0.9787624092319918 1.2209065909690522
Ni 7.272326515842188 4.213199574286749 8.82954601114704 -2.6680679461384176 -0.5201323697559236 -0.09563063942213208
Ni 7.340770044198703 2.0979114549417175 12.48981480847404 0.528003030753252 0.8270768357978208 -0.07872769301920635
P 5.101269935055085 7.9397425663920655 0.9179232135958233 -0.6098800680347174 0.889804553844345 0.5243867741569034
Ni 6.661861199787141 4.108930422959476 3.1073398533487286 1.3577203894977132 2.422485685254086 -0.7331654930596405
P 7.966192489107238 3.1464868387560685 10.725448243455796 1.1438493436737331 -0.28856673486565787 -1.160512663262027
Ni 0.25137049732168065 9.071736937231188 10.167260475619601 -0.24686241314833615 -1.26377870774223 -0.19649244533621643
P 3.7209707284148017 2.1891572728738895 11.219060990342985 2.0391732846744106 0.9564357207103334 -2.7984529583225997
P 0.5258796363200743 7.03146358483823 0.982688864618451 0.1937753035153695 1.1402834806993458 0.3058466049920281
P 7.198988926941703 5.414315676628931 5.266043971961366 0.9287716791361617 -0.22829647722069069 0.12019213081158012
Ni 7.552928485270606 8.850752690346845 3.61612418792223 1.2428028768215114 1.240364699693664 -1.6804565711562287
