# total energy = -340892.83979173406 ev
CRYSTAL
PRIMVEC
9.06504494577074 0.00000000000000 0.00000000000000

0.00000000000000 9.06504494577074 0.00000000000000

0.00000000000000 0.00000000000000 13.26760958692110

PRIMCOORD
 96 1
Ni 6.245208486597496 2.2180079585028087 11.2730630463637 0.8336125800338094 -0.5090588855505813 -0.11830211287771883
Ni 4.691387293142249 0.2644228233366752 5.814290705535193 -1.0384217727658376 0.35159707175426547 1.1963543555509848
Ni 2.83957994809979 1.724552246600585 4.623668689217877 -0.032811132992749945 -0.014646289158265099 0.644690233735367
Ni 3.5917701677472746 4.370113041548115 4.971200749484668 -0.24387736237808325 0.3463427653338616 -0.15782459645237334
Ni 5.2988268779471746 4.444065676758886 2.713292089934576 -1.855586491656269 0.5289990761179342 0.9883994181011234
Ni 7.109342944075064 6.167158451151953 2.849616765666028 0.42294852691405865 0.7081152349592321 -1.2803967759148853
Ni 4.938065291347142 4.514945261793579 11.55637923600416 0.5362878964698634 0.21670954371403967 -0.191562869245083
Ni 5.638040853135586 7.816298590334248 12.345390760991512 -0.20954670741701334 -0.0189855399635673 -0.02097634514135097
Ni 1.9947359058868122 6.2590236148227 0.690415565576962 -0.6330027700951099 0.4766046216766179 0.36607135411104047
Ni 2.9552227241948885 1.576311569522656 0.11522759704476065 -1.3123861843372882 -1.0380859866929735 -0.07602700625859164
Ni 0.6232508358878657 9.063014197166485 4.795948958513929 0.35846783073216976 0.7326736410248866 0.03289829338991753
Ni 8.582158897490661 2.3669738391621133 1.5306309959318103 0.46251806167656473 0.345523868976992 -0.24776204214447006
Ni 6.957585029627463 0.6371774641637064 5.028848088672686 0.2434503021429936 0.8482812377895778 -1.1999451582260365
Ni 0.7938912385855318 7.378601968795037 2.7742699265700614 0.12558681946459013 -0.42163957829464804 -0.8804010011422579
Ni 7.450560294157025 3.894243516494248 3.7946821298161524 0.7857260407651758 -0.701482817244379 0.39557244889395093
Ni 7.508966377592059 3.8520457331029583 12.782041276364588 0.7401303544132479 -0.03709433374913612 -1.3744695839315944
Ni 8.324068007923872 8.893878591900174 6.975870131427371 -0.6756974807501589 -0.1395671929040822 0.07732412780346039
Ni 6.814837769678453 0.6327691328934197 0.13588955358262672 -0.36231574372335024 -0.1707137937102157 0.8437247287671468
Ni 1.6779216563181374 6.372182568651588 9.271034311961676 1.3659083246251444 0.5161106501910402 0.46847505059094796
Ni -0.11407996237723385 4.88734636587469 1.3721495377803818 0.14579286209881986 -0.1929893172789644 0.2878113447568721
Ni 6.5124550713791525 1.9429563701765982 7.110457038076952 0.3471860871707634 0.3580114599210415 -0.7638549517236973
Ni 3.339236150622775 3.9862537208812703 0.2841601453082874 -0.7997380387735518 1.504864109197473 0.003516754904006847
Ni 6.080007110760146 5.672823429907311 4.951352833966895 0.006633189045801479 0.4367525226766865 0.18688988924944588
Ni 5.1690698271495545 2.9008415206364893 9.15102852982013 0.47041906169119624 -0.007767302650244687 -0.03190301935618377
P -0.015322645169988588 5.772194450645296 12.622246293226393 0.7081196058346062 -0.7732687888384295 -0.6905872533777977
P 3.9230522287643916 6.0197064329687695 12.824975141390972 1.142979025253638 0.11368981091668806 0.407969022786091
P 2.4050742223186314 8.3812593753601 1.4042969060382833 -0.5322582064851801 0.10077824506134257 -0.3010504691549654
P 6.477790340189401 7.873199876337927 5.94177968213206 0.3557229209971809 -0.8512953420255532 -0.265841011133368
P 4.83564841556738 0.8308775277401614 12.120690963824682 -1.1300327495056153 -0.3239785387060485 1.0466937829666427
P 3.964814890006856 6.240947915556915 8.349969560337176 -0.23254419675345112 -0.3360295563333116 0.2502860941179044
P 4.677037327275781 0.981010079661004 3.628333119311276 0.6482766655350448 1.0891812627068922 -0.19749080469374375
P 0.05189466177875742 5.3147994868269715 3.539784855520845 1.1584395827830825 1.736855004550615 0.8385012755846785
Ni 1.34731947365856 0.8756180561886492 2.5746059700412696 0.18880973197997805 0.9833867953778807 -0.5328922405247531
Ni 1.9009126925463509 6.59608010935652 4.7569556684478425 -0.2329190635943666 0.1453999975357754 0.5704308609001596
Ni 6.1906641122332875 5.795274054622572 9.22300498527165 -0.8479169124716236 -0.17635145161196725 1.0866356134669028
Ni 8.695834558871278 2.326870081112046 10.116273590126504 -0.342710567897913 0.05539158939642718 0.53829644225946
Ni 2.4630723787391404 5.309142898892241 7.069194767305636 -0.7011233770224312 -0.720853765571823 -0.23902980447779476
Ni 0.6940397704748862 0.10867538268703258 9.165224389925555 -0.833225886118352 0.297666640284397 -0.908927647827041
Ni 1.4643673316925732 1.1981269668800756 11.269653683026757 -0.09651715579214346 -0.6744345548773353 0.7711144614995881
Ni 4.195094222227894 6.904400411978333 1.761062620904937 0.3433679989762538 0.19288261649777105 -0.13339268866225412
Ni 5.656143747535674 7.702577603729796 7.9209617842073206 -1.425265583537539 1.4330475414758028 0.2998690472523545
Ni 5.301600781645936 2.809955381800599 4.810410424431034 0.33087423738461724 -0.6261883182764377 -0.3468161054258543
Ni 0.9481402273351573 7.25697626315359 6.924856591999985 -0.021638918426014345 0.8464446988014712 0.02195130746011058
Ni 5.40491509685765 4.785165181258874 7.2483599381023724 -2.2833920895523128 -0.01309102885600326 0.37868904287505106
Ni 8.397621781164887 7.226662753452093 9.194665842320449 -0.39788592751847607 -0.02873259204800213 0.12964916245942187
Ni 4.464072230560085 -0.024085823946435353 10.023094901468992 0.388052486367822 1.0682730517993153 0.10830772066916831
Ni 8.27234286248226 7.231866089148462 4.699679089590801 -0.18637206907276288 -0.6608084794534683 0.548209587608114
Ni 7.365367003434932 6.268061464455593 7.079595999671515 0.873436911119599 -0.676149480685913 -0.6207357798022987
Ni 2.3068997874899164 5.175143407143575 2.9303373632999863 0.20454796865084127 -0.7167952792317334 -1.3478195854442336
Ni 2.120023889614205 5.551768822086198 11.65534232972762 -0.8349238426460653 -1.6208882246742924 -0.8475831832812887
Ni 1.0519440549642995 3.1189918229590208 3.7132327025829115 -1.0836899005750174 0.7519705415812856 0.5670213209979783
Ni 3.934202233828041 2.5652716934444895 2.145969860746869 -0.5617325617952132 -0.1908784415835487 1.8193254524417055
Ni 1.0139071271211522 3.3660052278202994 8.126569690589962 -0.3295336641963228 1.3218876960698203 0.22381298752804032
Ni 3.782018262276382 2.8760395581534457 6.914878697224733 0.11451770613462214 -0.2014564742097111 0.4472261685145007
Ni 4.001954378418051 6.775558930702201 5.920697107516996 0.7878181474075142 0.9542006607322276 0.8166870079230645
Ni 0.9021441901864131 7.658439900758326 11.98483041838531 0.5154074534764286 -0.24843901360683662 -0.464240186573994
P 0.14765870120387511 5.558640126019732 7.952393013928613 0.27249811143856945 -1.2055815305762076 0.7181474223842534
P 8.598367197534404 1.7142724858345866 8.022008025218282 -0.6366915318006067 -0.08881438783124704 0.0258293023582781
P 1.6466563169160842 3.3966813393124853 10.707464988690711 0.07933704446843111 0.3045489692265271 -1.1528435767525436
P 4.223549397752117 6.115560216337083 3.8255422617171124 -0.9205845153396791 0.11620049315368375 -0.5188506748300226
P 6.897103050940743 4.081273520131002 10.455327114022538 -0.9465395446425441 0.388568249661976 0.025886123738142513
P 6.4279235289250645 7.787517073198407 10.070155174873404 -0.15098340516082384 -0.15584896078324129 1.2175826688021418
P 2.463561891156569 8.589374673125349 5.856959871254376 -0.14117747481399556 -0.044067422632859586 -0.5374862876533388
P 6.84706400382583 3.9317637367856655 1.4918362303461254 0.28029138223074307 -0.46191179555113354 -0.11456038644709947
Ni 5.160566815157926 2.6232970449993003 0.1795640327664923 1.65971316796129 0.15912634598293238 -0.2507620053130585
Ni 1.4911182788005637 1.3029823397022124 6.984985033940784 1.127695616732006 -0.6538086510968676 -0.2968857962543145
Ni 6.9464712847428824 0.627980069742911 9.172787356774824 -0.17586782710732937 0.16492032695689016 0.03090723110181774
Ni 2.838655313533536 1.8439932764531375 9.191441405896757 -0.4020755401197914 -1.0078590694876322 -1.0646830204552116
Ni 6.351595851985289 1.9285520140415262 2.4003495209859698 0.008852822404939592 -0.2521136342449465 0.8012125664365491
Ni 4.030400488897507 6.785938406960638 10.665141201177157 -0.06667101896498841 -0.5883313953296642 -1.1864103569643956
Ni 8.286022015035957 7.378611033839804 0.6022589117204737 -0.6923661996550915 -0.107077447806493 0.13032793369400134
Ni 7.448892325919862 3.910415556358923 8.353591952226147 1.0962973049263829 -0.36009919568800564 -0.947665430716871
Ni 3.1859462436095183 8.148188009350768 12.592991580753703 0.07047933696748507 0.7121706359755283 0.05550214683236247
Ni -0.12005654639224507 4.767923466111671 10.270284168198753 0.858584933708431 0.7496357228005218 0.3174659343985113
Ni 8.733771771221987 2.2937464075327174 5.8493570182081305 -0.616525341265377 0.7751426088223747 -0.5356569477540839
Ni 3.5650192206392837 2.572813810690795 11.246527847321167 0.9798373874637254 0.015184935270554496 0.5958886388516318
Ni 1.0427974247942005 3.1483444379151964 12.868705823852395 -0.5875783192137235 0.09750343096481272 -0.07870275331854187
Ni 3.074437127928261 8.653546125032317 7.976101732012734 0.15251141176957606 -0.9299546437006693 0.06454703064345012
Ni 5.454954143972563 8.01338172861782 4.000861134019127 0.4486148213319112 -1.1732843611053987 -1.8508574616117157
Ni 3.053252118307328 8.579847311075026 3.5327666978620833 0.19358607032269884 -1.114752683418093 0.33642422066856903
Ni 3.1969693380464266 4.228598627687444 9.234534815711045 0.049509933804669566 1.0560207167945233 0.7826638569000843
Ni 7.171012443626287 6.123211114120595 11.480409628332685 0.30265072376254976 -0.0904696640464829 0.32873353689253065
Ni 0.37261594564209305 0.37677770769471197 0.2607641712686356 0.7765600579951916 0.3936284377937027 0.3970168946499614
Ni 4.591399849360096 0.35099218785442765 1.2868039543062006 0.3445779601239549 -1.1334970539051314 0.5995010387932386
Ni 6.108906473477962 5.791394215462213 0.5757808224599759 -0.4525810050685109 0.2938282403749133 -0.6422636265717455
Ni 8.069739111935467 8.69763850277995 11.346512571589889 -0.8208318833293734 0.6778155555344262 -0.4528468571353878
Ni 0.2353149645892142 4.737700606857845 5.7535122998845845 -0.7788133728057426 0.763158439877305 0.10148838375448974
Ni 8.146492845979301 9.009811449427822 2.5807094646830215 -1.1550927777980367 -0.29022329663247437 -0.10382988740347279
P 8.262806435387173 1.7883520316720989 3.7001636275420475 0.7886892371585579 -0.646471494005506 -0.130115303462563
P 1.8770262995847937 2.9714672844177 1.7233166809988163 -0.476682783212721 0.30586665959668613 -0.9279088169152343
P 4.710985919928923 1.1201313217031355 7.887421118568701 -0.4670948824139697 -0.40877480651683795 1.6483018408005548
P 8.240243538961625 1.6667081959411179 12.254958780898455 1.3140936539466983 0.7806051745988427 -0.2937937875925521
P 6.34050930223501 8.011459939127175 1.609852235161275 0.14405968145779705 -1.0081359772981024 -0.18132267957431353
P 1.8879768736635647 3.3622613643314483 5.96341885049583 -0.15802025740294723 -0.9587373722603166 -0.29696755733484337
P 6.785729910930993 3.9129718989832716 6.025126423235076 1.733581990226298 -0.9333220175110055 -0.6319167361197827
P 2.224978977928781 8.378884333631095 10.282370592386853 1.5961832657284447 -0.5107588989608235 0.8963305278883208
