# total energy = -340854.6820508748 ev
CRYSTAL
PRIMVEC
9.38765537364886 0.00000000000000 0.00000000000000

0.00000000000000 9.38765537364886 0.00000000000000

0.00000000000000 0.00000000000000 13.73978255808244

PRIMCOORD
 96 1
Ni 3.2265935335045812 3.1310929137413472 8.281901426570354 -0.32906006699401397 -0.7438437987090931 0.7085852326171151
Ni 9.397418697315223 2.4048263308884192 7.415250904073135 2.583713136740421 2.5886704807456966 0.4899463330908465
Ni 5.0763559555420485 1.8657965376922006 7.036581981500875 -0.40122013409803153 1.1600354665152923 -0.18768744545007676
Ni 5.268455550766177 2.7969768655752936 12.436303242089656 0.14923634056273008 -1.556276402231178 -0.39817029152811423
Ni 2.9894144163987018 4.381059248300927 10.781717688760873 -1.072491717866353 -0.2561325255963524 -0.1919791308468952
Ni 5.395930525283522 4.188095988767528 0.6656345320454179 -0.26587803501889046 -0.7351416429494049 0.43668618821512534
Ni 4.661177501826449 6.643371580504037 6.8360231698736555 1.5433715212440517 -0.5171074668866708 -0.3226425935034444
Ni 3.3458824723949196 4.706717018829442 6.577715256453896 0.23061252694837703 0.3172201369362924 -0.2814931158483281
Ni 1.8416796506213513 0.1504803631727844 7.008236894376811 -1.2247997553758712 1.9309961760458354 -0.36895227520326135
Ni 7.6712823110255215 2.0305968306189253 8.785752858178176 -1.3084642235750625 -2.0239454119810625 1.54557984174928
Ni 5.7841664076120685 0.46384969260525405 8.504321271643228 0.1954892008826827 -0.8790663414912344 2.4027198154810683
Ni 6.10588136281565 6.7475088433599835 10.177002469782353 -1.028273628588242 1.3359788840555638 0.2036650518252557
Ni 4.693564913424126 7.427822852366354 4.575361187513697 -0.6553420570222586 -1.2138892791109548 -0.7599088225917557
Ni 3.1625884980631453 8.70522930405637 12.764918124111873 1.682682889383586 -1.8102643706807016 0.2285931825255031
Ni 1.99527108283862 1.0661091008956718 13.644263573189827 -1.676100865290694 2.88686933938448 -0.8593215547641395
Ni 8.8745450592957 4.955527441143879 1.212060859038103 -2.0913851907912755 -0.40794382597511036 -0.6762155580371579
Ni 7.97319870070461 9.034097652778048 9.597499677275682 -0.9207827473934141 -0.6629504654971357 -1.4871013858974131
Ni 8.482225546809184 1.6001634366580444 5.692488441182914 -0.25758494177216285 -0.7443119965947633 -1.9609790955611712
Ni 5.597952872408735 8.78626354663931 2.703535897436561 -0.9138780498537808 1.1463697961027417 0.7737958649864932
Ni 0.5064621386122601 4.9132078899895815 11.88634152402228 -0.1301548984512468 -0.21138787439081014 0.9883333407498787
Ni 5.035651081139868 6.471061163148866 2.15981133770701 -0.249737420703286 0.013828678352976184 -0.13715241281500248
Ni 7.380527843778212 6.214627964539557 2.8172598341254207 0.06493732410333332 -0.13319497082915124 0.4927282667113579
Ni -0.007868732869904919 2.6688635304815307 13.76808674970384 0.9671873027998826 0.10091657041141976 -1.3132025095909965
Ni 3.86485084571165 7.579564916443118 8.73017512111101 1.2618249264499688 0.12651035972012403 1.354375127174564
P 4.271186127912753 8.670804771207479 1.074537338035496 -0.7849182001518998 -1.528366048974155 -0.910751074189025
P 3.619260389245911 0.6146407871762655 8.126449361025939 -0.4121663486968901 0.2646156233666991 1.2148673267535077
P 9.013172568589289 0.3205095802328153 7.615742124580499 -0.2908902407925119 -0.0999081837515634 0.15999383618955024
P 7.583573445356801 8.493762975462387 3.3030297024062034 0.6524585648268764 -0.4669737834550732 2.432373376681443
P 5.36076436764732 3.9641065276891077 7.194397858709145 0.005208026563500709 0.6460074098848939 1.2900309565705395
P 4.473415003459749 0.6143056478736459 4.228088340114559 -2.5534990750508864 -0.44518137017033016 -0.8187971122875319
P 8.995110719338873 0.28273834818549665 0.5252055316545556 -0.34286123454316436 2.2837620712972218 -0.592478070508186
P 6.603980977876834 5.546151789163525 5.004757245537899 -0.2194937913273962 1.1515222868379589 -0.882890600333331
Ni 2.3121607830969237 6.455843773525725 11.795919625903784 -3.1686383346020137 0.3836463868803264 0.926488796639256
Ni 4.606578897231643 8.973650538784588 6.194360955003839 -0.33600950172865357 0.7450144219784266 1.2571609453153962
Ni 0.8066662199216629 3.7314240975847612 9.673905805679592 1.340172610421937 -0.11366538543665586 0.5532618053200407
Ni 3.2172809792133075 6.3810710971850035 0.07696657143938135 1.0120527958540055 0.16699032211204143 1.9425471141082287
Ni 4.911762191037106 2.464935489282599 9.855326003966468 1.1620237005899148 -0.6928588230207938 0.33347053735688376
Ni 8.208828854647122 6.315901992457159 9.221180484883973 -1.8236220229345304 0.5262392539846099 -0.6735698928841948
Ni 4.273852222084852 1.1612248267819478 0.007906283492047151 1.2552447021292896 0.6767904567040215 0.7473541258551969
Ni 7.641917724510296 5.866364719481416 6.753240945829996 0.08281163328059286 0.08133479162475026 2.4546977512102566
Ni 2.904221442413511 6.550921948789859 2.8889683796993357 -0.4902934320176201 -0.2138425065788898 -0.2800360716868274
Ni 5.631344763148716 -0.08087840750104848 11.937150332077382 1.2957344347132198 1.703186922874209 0.7393340837641976
Ni 1.602895244418892 0.19791618659396018 11.424931683090717 -1.8114198244413837 -1.3850067360174922 0.2940303290833904
Ni 0.8774651016741825 6.306016791178215 9.726791163139158 1.9240549688413122 -0.06748888688059344 1.2560355734617015
Ni 8.535115598096521 6.720162602784903 4.81296368788423 0.5042151843050349 0.8090906836330454 0.09047583469406999
Ni 2.173880617058151 7.45524419418572 7.294903976403939 1.2459344804719574 -3.578470121628457 -1.4253776836353709
Ni 5.286216995039453 2.147172737059488 2.460808675909167 -0.20414687655768068 -0.7802812156005208 0.029982662405019327
Ni 2.258651146544242 3.136791220651431 3.270535271535422 3.997536025658658 -0.07466612135532302 -0.4447445397432276
Ni 0.3005570571575398 4.833018536404843 3.3583464626494806 -0.737871126065426 1.2036591167425141 -0.28033046299879466
Ni 0.8332013670584718 0.7882870679141469 4.2542076141111425 -2.1456372672666206 -0.6563033924942633 0.042345554845746425
Ni 3.2556577150426693 3.854505649311465 13.074955774594773 -0.8423741282765235 -0.1711519096888988 0.957640282541396
Ni 4.7631649915647545 4.7776689193671915 9.449494838867626 0.3913810365204227 0.9679768885807135 -2.4553623813774488
Ni 0.06569950726560436 8.360523980446208 2.250974860612816 -0.24393341242699926 1.4740797768267646 1.0171314959284934
Ni 7.780573396770491 8.530036876451783 12.82471279604561 -1.54408757347447 1.4576380863309735 -3.181035679825102
Ni 0.4757560561210026 1.4401696233655255 9.523840376881477 1.1509414746338242 -1.0931294487213628 0.14832205627857684
Ni 1.7026296968286627 8.535866610539365 9.38194971852373 -0.36546740197845445 0.4764110176085731 -0.17047365267495157
P 6.52898299780326 8.121317129744648 7.714709605533014 -0.8712931253037188 -3.8824156529430294 2.2025614912574905
P -0.19526417390516498 8.095369649844367 11.055674823958409 1.2490619703573456 -0.4005609032474779 0.2447836762424365
P 0.9148505010789896 7.011348902186849 3.522453946597681 -0.429319463437409 -1.0879522753957973 0.08350480269287554
P 9.289901878466473 4.599988763045681 8.074059671778647 -1.7530670955341034 1.3260130310921034 -2.2213326012174064
P 3.898242736451631 6.819361958829147 10.782514700715842 3.608008754517522 0.35161044149070414 -1.3698907063116599
P 1.1061380640992922 5.833629964628925 0.15217765129361333 0.7412953212556266 0.15672904939534943 -1.4649019669822383
P 7.406756953344562 5.917067447028966 11.705168221075986 0.15304080191048483 -0.28193483137143704 -0.03081004340232113
P 0.6276746081218345 3.0220365193847667 4.273539613155518 -3.6248955029705314 -2.613690656939118 3.2146865351103284
Ni 0.6038355956548379 1.5729016849827835 1.9365541137603637 0.670081163004646 -0.07863307642287104 0.9230334911008039
Ni 3.9788357592243986 9.113104161765305 10.60476319821226 -0.9615110783507118 -0.2191649472330677 -2.1220980464941
Ni 5.831498966822353 7.255165091756367 13.053728407897768 -1.0024001032555898 -0.533131610229069 -0.5912603960510011
Ni 0.0917305373001538 7.672455767967467 0.016381458909549132 2.5839993005222723 -1.7122181798385414 -0.7231459040401094
Ni 5.366087168335982 4.87223077357687 11.712162024449977 0.09936490965358372 1.5876772851399625 0.34906582069197944
Ni 6.155626549498573 1.2426627385529154 5.023223702741896 1.9502552813857637 1.3872649359240496 -0.33624398633696284
Ni 2.059623461534872 8.760823000137947 1.1993208717107968 0.6189020690276696 -2.6354797277897513 0.18962168635831214
Ni 1.9172878283047374 5.519697375864322 4.962424551665853 -0.029371511183581674 -0.05922690398211736 0.29723880871835906
Ni 7.3616304931851335 8.028820559752793 1.2267403359990554 -0.9930096631796254 -0.30932659312082855 -0.4076617759583173
Ni 8.687890304282195 0.9385759229140058 11.481209739260835 -0.5121174698712471 1.3060242466750025 1.2369477035923149
Ni 7.287834133020111 4.119425288524919 8.631400087096974 -2.1743796295066358 1.5205295836488717 -1.2520619335259338
Ni 9.366458209358951 7.638087561051788 7.098122757364227 -1.5611360443163242 0.22785193348410437 0.0818883501353751
Ni 7.248011698238272 9.029995247309008 6.133823719517239 1.7421036545440642 -0.49646767914913204 -1.5295436142220238
Ni 4.622462810397807 3.0387840968602027 5.144174256662028 -0.5715225513024415 1.2485896587066174 -0.951886153666438
Ni 7.65040416511444 3.969344839477949 13.043999980466268 -1.76660883877428 1.0700774519979055 0.6027128608623168
Ni 7.100259387764121 1.657465686047092 0.18709221976146154 -0.17093670835429917 -0.2989359939151239 0.29351379445828807
Ni 2.645882549730484 0.5045902400984696 3.0338818631395346 1.9421347091611585 0.8822192852979194 0.3215593877415946
Ni 7.946875714582905 1.2887279642659 3.2474388226212882 -0.4968322615774024 -0.013290546461319048 -0.06738192898908395
Ni 7.998235578017944 3.9106062787919615 10.81216467195935 -0.06650955368645965 -0.1300109166742148 -0.9310723022448804
Ni 8.162237920224147 3.9269407994238326 5.316966260746174 0.34992045538279093 -0.09374010726763855 -0.16166299636185708
Ni 2.5049738401417545 1.7095953372360468 5.356330577937877 1.5630150065065922 0.9736983644455232 0.48064382474299805
Ni 5.961452282401086 4.258897686816708 3.4934911517393767 -0.06146993438002317 0.04130065852099984 -0.5824091163079582
Ni 1.7683902238552485 4.346935120429173 1.4086984469481199 1.0036517162745038 -0.6599816126767988 -0.31068105026619397
Ni 2.917692728107037 1.80112497870774 10.861820675914684 0.30232419366106644 2.2314141538231245 -0.08924196228696889
P 2.310039172945888 5.4684220013291025 8.418296551377587 1.5457150817755638 -0.910232996902026 -0.37112022938885764
P 6.760247891921737 2.1637137861131412 11.0999995783351 0.4267753568593166 -1.0731468349518487 -0.43452003380174203
P 2.1556497900080966 7.739953011268131 5.106637716003099 1.198459831929762 1.1383325276205623 0.9891396387012577
P 3.436689264390375 2.774277514490314 1.4093311749312167 0.05106262300377012 0.25921887783116004 -1.4985955025799416
P 7.297221788555668 3.1367255070626823 2.1491901442340793 0.42486451298984895 -0.12393205746998656 -1.1504177409198704
P 1.0808289447754271 2.7281653504996517 11.660362818735875 -0.19893910710449608 -0.5434666736064898 0.7980297978331934
P 3.8663810335639464 4.894226050496683 4.048921179156215 -0.5949339882478464 0.18636872663865325 0.15175525032984186
P 6.54024818444593 5.977345583222785 0.8141951196611805 1.7598756338155048 -1.1005897616541496 -0.3146464626718452
