# total energy = -381169.6540206766 ev
CRYSTAL
PRIMVEC
9.22803328601037 0.00000000000000 0.00000000000000
0.00000000000000 9.22803328601037 0.00000000000000
0.00000000000000 0.00000000000000 13.50615949797258
PRIMCOORD
 96 1
Ni 3.4817739381297548 0.22841689831954276 1.5064367824665217 0.3160286877313525 -1.2256898712903086 1.0366178867878793
Ni 5.140992811037559 1.42409780827661 0.27897360245582986 1.9481881144440898 -0.8774424327345662 -0.4376668069608398
Ni 3.216587940472601 5.058780260906106 11.311948584280962 0.291860060904949 0.3916003516200804 -0.41765154018117756
Ni 4.133180820358884 5.309533614225445 13.438413243985368 0.4423770679523155 1.4099006710456945 0.9984210640031838
Ni 1.536541396036377 8.91829452085435 10.822985543530002 0.4048585021815672 -0.647733134326749 0.4082235619990582
Ni 7.935075239357437 2.37692917557632 5.851273623964148 0.6028599279631424 -0.8670119814298617 1.2122712838915575
Ni 6.711318037585919 0.6251808111242251 12.168873922591875 -0.036406820763808266 -0.9598110649404696 -0.548117799225256
Ni 7.501403806713182 1.5420320759475024 3.6756881421304635 1.0526944806347678 -0.5892482507169787 1.4762467025710961
Ni 8.70279225536778 5.486573436233743 1.0260262831300684 -1.4471374439099658 0.10406514334273045 0.5532211818900923
Ni 3.2281968065704088 6.675624004146872 7.031739352345647 1.2292485351758442 -0.19141425948236065 0.18959571821638316
Ni 6.112769331039018 5.119934438672537 11.228940577664904 -2.579627910927454 2.1251391473132686 1.260761775292777
Ni 8.042175795741505 8.200344289315769 2.837886980370501 -0.15039539386783776 0.7356327236532105 0.5654128388602779
Ni 9.202637915982926 0.6537397290888477 8.72208899614451 1.331150866539301 -0.8688588048306133 -0.5681600625881118
Ni 2.963269193850249 4.004680454371625 6.577675811352476 0.3201758771305066 0.8558873322716098 0.33799465047948246
Ni 4.83146611258552 0.9639603756573855 8.447954574437242 0.9187220082096437 0.47594461949511585 0.9484832986324763
Ni 4.832979510073628 7.272539348770633 2.4038805701115007 -0.18891129055484884 -0.08231541037046468 0.7842772241337913
Ni 2.953229093441334 8.974280999880898 8.886837077578662 -1.4305916237361427 -0.35074397972535076 -0.23275708409520557
Ni 5.152343292198373 8.022150963124458 13.39785419130406 -1.0871727169172956 -0.23576476057327786 1.5634631497876041
Ni 2.7827319471590646 7.337800001428579 12.459459159555552 1.103187347177997 -0.3728914623566674 -0.6717932605997462
Ni 0.18328258664674674 3.1815490974095044 1.91152714986584 -0.39995746533552406 2.503064315439102 -1.7495958491560513
Ni 7.703008653802853 2.4565486483043686 0.19578011236714493 -1.9593999239995092 -0.2010186153413441 0.6459367045479585
Ni 4.598652056320344 8.804116062803336 6.521111657431076 -0.6809016506589177 -0.24695882951688436 0.11960411951859402
Ni 8.728095523126278 7.965933783261308 7.149877559556094 3.200190398376682 0.17582977478054235 3.256891964833785
Ni 0.40325675715000625 1.635899632344084 13.425230998181936 1.9368498066131352 -1.526282426972249 -0.20926311473832346
P 3.1054639614981974 1.829042372747196 6.082147947595174 0.8993261201815349 0.05038925108582935 0.04864938557658718
Ni 7.178219618734311 3.894340858241667 2.2021114640261703 -0.640435058003439 0.8677583726775829 0.4920093862674623
P 1.281017149416111 2.9187716164864743 9.663116785840321 -0.29051048885559 0.7209985186798035 0.8159552719633625
Ni 7.181744727517588 1.1749962729473409 9.661590469105363 -0.9439995518295096 -0.011186869854754927 0.08424656595490652
P 5.15695730893041 1.503292791465311 10.61058758850075 -0.8583684468222508 -0.2491069862081387 0.1711969039942213
P 8.318915291295681 0.03338056544960234 5.132218796819915 0.4592612453021639 2.653411629677824 -0.1582079479337211
P 4.632961884739779 5.924037590631733 9.536281157089983 -1.7112686714410785 -2.033184671191144 1.6235773414706816
Ni 2.9939985452856224 1.53471424541049 13.381051787972671 -2.874328012384359 0.7766875847119914 -2.178983446827235
Ni 6.976716280012746 6.1083767871101164 3.2583475603075844 -1.5385432466174729 0.8903825378350021 -0.7362042798859643
Ni 8.183410847909188 5.551861772992082 6.980833828544417 0.5094998297427419 -0.8119577207681951 -0.24354748984249025
Ni 7.164709777742903 0.3261971409048927 6.988816077490842 -1.3789301908061091 2.201272854353054 0.4065821697408933
Ni 6.506677167486568 7.326670993070903 6.890680555617125 -0.7714798152588068 -0.7023821891301968 -0.803893455702822
Ni 6.295096816222231 8.362074803807165 4.676913162522482 0.020948834337525212 -0.3272032162909333 0.05283642707474126
Ni 0.343603057624833 0.9844281538807061 2.2139704098308544 -0.027556312351713835 -2.656435246995496 -0.18552231947795791
Ni 2.422312644152646 1.231776362851801 4.117623278741799 1.2854960448146635 -0.0969634993009427 -0.3394907754090347
Ni 2.0896881779400247 4.110581366405362 0.3551002645177253 1.303630035411213 -0.5848948588442895 1.5584371573279223
Ni 0.8996234491491936 4.8145972674131885 10.47716037544702 -0.2829488744582482 0.680168372037319 -0.1714552998619305
Ni 5.272759900871101 0.31837730534743464 2.974218255555375 1.3178335806051047 1.4081672332943556 -0.9683931501825257
Ni 1.2356429088732488 6.399844224072959 5.944546895005643 -0.872760968098497 -0.9299764980775403 -0.3837340614981262
Ni 2.8482048445866845 6.116488228525039 4.138868057382794 -0.39989524463902093 0.9586070173300394 0.13405886149134333
Ni 3.787046513154855 8.506631948021917 4.315353274579902 -0.9914490035607247 -0.8599908129170221 0.1288580340166942
Ni 6.722188661006601 6.106706513053119 9.06590153012898 -0.7041333674933486 -0.8180854309324879 -0.9860730839607922
Ni 5.776795088678936 3.5223311452043693 9.557417967739449 -1.8236474768558268 -0.5350522242905495 -1.8610639698310723
Ni 2.770873924157727 1.6236724880041833 10.615720220713468 1.165119051685787 0.8219791095599394 0.2907331463893573
Ni 4.509204727953056 4.825034173261058 3.262358986454418 1.3388654615747395 0.6378331016042177 -0.06563203617751277
Ni 7.300408009832142 7.547645482401668 13.058079844763473 1.6884447315680275 -1.381727293935272 -0.14961403561712297
Ni 1.236999429792468 5.145154654129857 7.90171128436807 -0.3818443006745811 0.057951379703803416 0.6133469435373953
Ni 0.06757042943400415 1.6922367766422683 10.882952996192953 -1.3114485030143672 -0.6389726145252995 0.6923461450504335
Ni 6.375472987694334 4.3588892908567205 13.326149602878152 -0.15637860803446615 1.4607948867924003 2.300964294108121
Ni 0.8877192859805354 1.2505461829177318 6.207471101660752 -0.4200717195868959 0.27335685989443886 1.1641541166693565
Ni 4.882450997474541 7.739265597283207 8.572400142520387 -0.8766016820008258 0.033135863322020356 0.5268817726646151
Ni 8.951155548019925 3.084617833902849 8.19615937613981 -0.2360959186604515 -0.1634601974715959 -0.6211996068125947
P 6.985399859502442 3.9161467013172793 7.710518427435918 -0.6739532443655425 -0.4789024165718591 -0.03795539619785076
Ni 8.544494569325021 8.571634215742868 10.980021757398225 -1.6555520946050646 -0.38382636410161636 0.0075716416996708304
P 6.883891491397605 8.30145585198165 8.884675872141374 1.9817284122933805 1.0197326809967666 0.5594903027282558
Ni 3.1594940974303625 4.269248173786686 8.931083652432212 1.0120754215618246 0.3873194648565394 0.815292441568383
P 6.047527134447999 6.2240132744484535 1.0805427364257905 0.8925330085191016 -0.7968627741082858 -0.6948601697215387
P 4.942322478589465 6.669773430930648 4.918633193883836 -0.4835448004398769 -0.8051715510842973 -0.17607505802212903
P 1.3642816953624692 5.350478398705549 2.045102934258341 0.5722524874899305 -0.5087827490710594 -0.15390546390362528
Ni 6.426743941620741 2.903323888467611 11.6716047289199 1.558108313233594 -1.6702824588367038 -0.14659684605735396
Ni 8.662844098501795 4.136576736673664 12.264822400534605 -1.8220127694658816 0.5507650070401159 2.4726749045139673
Ni 0.34691684444178267 6.537692587959327 3.5292807772061647 1.9367320500883483 -0.23754987749815862 -1.6983499064968814
Ni 2.41983030315081 2.458938708971564 1.9558134052632874 -0.20352209848948816 -0.38065516546248634 1.120698873699199
Ni 8.87570714641764 6.7090110292199 9.446599436672704 0.9218926926281413 0.36956702596912483 -0.169628788176153
Ni 5.363388417521792 1.3443768271804573 5.302950335152172 0.3531579884834821 0.08211846386831019 0.4463756475887474
Ni 0.7051749420109149 3.5027031180262793 5.919952340217187 0.36392474008168285 2.378269138637872 0.901449594282441
Ni 8.33231439588552 4.720157572941835 4.246485383640849 1.4207797798520434 -1.6323980250861048 1.229678166514095
Ni 4.461551163144567 2.5707547904557737 3.685236388355743 0.006763029755446417 -0.3229267004027664 -1.1516680683872038
Ni 1.3074370092237606 3.2280860701688394 12.023602528587004 3.6376463748782966 -1.034481814281483 -0.7024055861689644
Ni 5.4858997897908655 5.226398260747583 6.550960654473976 -0.5018754804282646 -0.26591557312504527 -0.11920045632227215
Ni 1.2526594025810052 8.603369422825827 5.088270287447253 0.32727649273102993 -1.5637511133416682 -1.3923739750158408
Ni 2.584006246510187 3.7781968290628063 4.383018752758587 -0.5437394676519023 -0.08845211939582186 -1.22407727538755
Ni 4.978800894872958 2.8545629596434328 7.126956970038023 0.4766465306581468 0.5652835123712652 0.02222718682931656
Ni 0.6224539272355906 2.4698739286264946 3.904873735637564 -1.4847105170677333 0.6731734287767245 1.4410503571756212
Ni 1.1566786265211502 5.930774055060509 12.971261583130099 -1.157612716006413 0.01458201157923295 -1.1425715054025742
Ni 2.6755852506076776 7.142322568559056 1.3969959967959653 -0.5215642171064437 -0.8468023392512061 0.05960151371271671
Ni 2.0587742658353694 6.645392966518559 9.961293003131548 1.610237944049298 1.0125518469776111 0.4390323198497987
Ni 4.023145749333241 9.087241357514655 11.738014271744126 0.47103535511895656 1.616471326553519 -1.0829095707655674
Ni 6.383732077644682 3.5553582769722976 4.96576906601499 -1.7102625987740674 1.43812032801302 -0.9665090457859354
Ni 5.774100502907425 7.4400097000766845 11.097215013981952 -0.06592437060695099 0.9374414389960178 -0.6313166406419386
Ni 2.372564315747812 2.053837267932089 8.201858609607223 0.9642300199437716 -0.98431727761195 -1.9196321571832682
Ni 0.31476914426298086 7.8153507331945145 0.9090738782197538 -0.07364462206934415 0.758935402934893 0.2580605958570007
Ni 7.811502643239995 4.27734115913468 10.260521216237677 2.3331421643922465 -0.7499465691727214 -3.043966056531893
Ni 8.397178243104511 7.263643524511264 5.198723388388819 -2.0573612684373472 -2.9202803107447575 -1.73161406786665
P 6.426568608984923 1.9728243621509651 2.050964581114722 -2.486464502098892 0.4140239707309193 -2.0998384637649514
Ni 4.468601380711121 3.2777328902055687 1.371118745356003 0.6737789235712074 1.0990275593733523 -0.07613756369452694
P 1.5450957830575756 8.94480666099664 12.992088331855172 -0.09709102601774247 1.0190569950859805 0.13355441105109903
Ni 4.2349475734007145 3.2232874927675206 12.31425420739162 -0.3599001923033221 -0.3356132947314994 -0.24488832014110082
P 8.323556992128111 6.178334508801277 11.601737441956688 0.08430235889350643 0.5753100433693317 -0.19544574923925695
P 1.5022684797507986 7.490662375760999 8.160314002951953 -0.8639276860775831 0.3595168408219744 -1.4900213877576856
P 1.96104016341734 8.689060941573237 2.814670170978232 -1.0021735890670804 -0.484588668323359 0.8076683493642219
Ni 7.103066514202876 0.152352986885203 1.0901371228183903 0.5329747729362305 -0.005952875149325232 -0.19671510286998378
