# total energy = -340870.2318632572 ev
CRYSTAL
PRIMVEC
9.22555439501030 0.00000000000000 0.00000000000000
0.00000000000000 9.22555439501030 0.00000000000000
0.00000000000000 0.00000000000000 13.50253139042713
PRIMCOORD
 96 1
Ni 5.071813038182879 3.487656212460723 11.728312448902942 0.11635630200525766 0.2505678870243814 0.2981587494294672
Ni 7.858852982803951 8.92251326223158 4.652999628484244 2.150645262004174 -0.9615457882433893 0.6850568104778718
Ni 6.222470294365809 5.543414146852473 1.991488110577772 1.3215704219397175 0.03456102580432112 -0.07427402812322692
Ni 2.2859816411710248 7.7532019353170245 1.8910965515795195 -2.1160430985492718 -3.0831051886252 -3.2661962729538456
Ni 2.762601451362877 5.245687059487986 4.568473255162141 -0.4622789490825651 -0.007440258328129121 -0.9853873707476772
Ni 2.033155326433055 8.121744377249241 4.253486078316055 0.7473191588522032 -0.9649337308790156 1.4622671004625527
Ni 0.08005935994512305 7.51596680729342 3.0954151667226717 0.20747336982775239 1.2749419234479011 0.31417003725605896
Ni 2.717691453182091 6.124725546887291 6.7075988332598255 0.708648995975515 0.4969587598529377 1.1078562134085759
Ni 7.595509536199487 6.157651550072834 8.356554107055564 -0.63778579330605 -0.29672587363768255 0.9124670284388672
Ni 5.027493475475299 6.793559780270734 7.906866457440779 0.7505700616893333 -0.3913401559801583 -0.19416482564430432
Ni 4.055830423216691 5.931099613892563 1.4626350572265172 -0.17897089151268533 0.3463198825157261 -0.7671243665035885
Ni 1.872344689972645 1.9072265106631856 7.704369231461121 -0.25894556956511533 1.0836256229959855 -0.232646012438638
Ni 0.5709677085885777 3.6782377125467285 12.898144097078262 -0.7882464931941844 0.3481733907846971 1.5269671117440993
Ni 2.3664838277210527 7.922038803991338 12.019589028722645 0.3257765111467357 0.7646113702737476 0.5066546469844629
Ni 5.224117713607404 8.825091409152472 1.510380068234122 -0.7249731870568352 0.8891126699836428 -0.4596047446845117
Ni 1.0748785534185563 7.612908931550548 10.099123847683654 -1.334664279009198 0.9107639297048316 0.08647828349890267
Ni 1.3577894006272615 8.933565476245668 6.6669021457136255 0.7389615309161274 -0.6001620694160051 -0.8833055763835627
Ni 4.636772801080754 7.389576713810108 5.128909070997394 -2.942591058426816 -0.3153337185468569 0.6720925370077199
Ni 7.81600028322512 7.243932888567695 10.718903041353316 -0.2014515891137047 0.3386068301421846 -0.7124413731384117
Ni 6.686506448534943 7.094386653869557 6.056520101622219 1.464223709968291 -0.8662825594630048 0.6856381369026385
Ni 1.1416900174336038 3.761193896532272 9.07719813065747 0.7643953976081996 -0.9955352578149566 -0.841885361565563
Ni 1.8955746356216219 2.5672411141656046 5.25139121969242 -0.9321544795654656 -0.33599047556526007 -0.5204218759718844
Ni 9.187738721906891 6.987277968808151 5.747676221363763 -0.3521344323149742 1.1931052524860677 0.07887321745813514
Ni 1.4004668146749844 3.652932017187259 2.948804503392883 2.1533310363664526 0.08656364412385738 -0.9489718082331204
P 6.157153370142316 0.6375771329651371 4.220378331711415 -2.2331984994170573 1.3267712494143666 -1.1444563811301127
P 4.07775956571376 8.343056198604803 10.502849785931001 -0.4472153698812233 1.355256758448569 1.479999484745309
P 9.052676607410854 1.5266908481814574 0.7927454204347156 0.9478058129494773 0.9555726013790898 0.6429279996286218
P 8.730261936822911 4.861165957562113 9.960398265587456 -0.7230289188462709 0.5734909878827219 -0.8867840218504663
P 8.66041526545341 7.907729969320345 7.741568511383998 0.29266790151822497 0.6596357993016059 -0.3970184373118582
P 9.1308631798394 2.8780223608205207 7.070020119934657 0.5019729252380773 -0.05870111338563439 -0.49722898279518885
P 3.427570177507671 4.101995096778041 10.346651926605018 -0.5361655119593862 0.34712309514331186 1.3535531454939012
P 6.551951739523694 3.9310548017304288 4.033921576939015 1.8270955833054274 0.48198979724793123 -0.05237208584381303
Ni 7.443601559608521 0.47261038430660773 1.9164815867057008 -0.9745128899270185 -0.6166988907287637 0.9838171980470798
Ni 5.439921879064459 2.040544995402408 2.2194248024537977 0.40922680645259196 -1.1659055521428243 0.6173761193014464
Ni 0.769474882346956 4.99146768605542 6.368023709176386 0.004221494280515311 -2.7464367131563088 -0.20607726081117414
Ni 0.6904884543633008 6.0638184376043105 8.491201994164928 0.7924070523297773 0.4381162357934326 -0.671352830628218
Ni 3.0189427022772795 6.856865533663617 9.26206163220764 0.8476667441340304 -1.3784506800665293 -0.5128384071976716
Ni 2.1214254296774593 2.440122201895053 0.866292461621454 -0.21477684546770107 -0.017913647055627212 -0.05197690728792338
Ni 3.2929601151708088 5.313042831204896 12.485331910431517 0.7574009685682375 0.1928972717857904 -0.20316728625323074
Ni 7.7025444168267425 0.9381373880455887 7.226324995690158 0.33615271217473724 0.1099120890418107 0.32788944372468043
Ni 7.552721415500538 6.239168547592436 3.9166795430686987 0.15789967266468288 -1.6008683299089397 0.7644455341198447
Ni 4.551842348481676 7.940167018129638 13.091500643888338 -0.7737642404176093 -0.10618913166426874 -1.2345720042712867
Ni 3.9453082830758093 4.5077995524021635 8.392187810419015 -0.48571969660400865 -0.17968900062563248 -1.6766317980934995
Ni 6.0705161900035 9.017056742378806 11.343786734199934 -0.23446738191809297 -0.2249969805338125 0.22513967675926388
Ni 1.2045344931130433 6.356397665686776 13.365075230176961 -0.2688147490497112 -0.3608011068510367 -0.1511960353922622
Ni 4.598459074202201 4.086200947869762 3.1641566166907635 -0.6016692500891508 2.0223780674939427 -1.5239249824836658
Ni 7.586671455209925 4.8484623693339 5.967524869812284 -0.9656688092728274 -0.6018744241214216 1.073809922457144
Ni 0.3437672159432067 0.4345060775099562 8.670434217389388 -0.16053608184626547 -0.1671463880739315 0.4075136804162272
Ni 5.972605382548142 4.361122465081638 9.784339633031482 0.20264843763528323 0.011015634384213286 -1.1941339508608984
Ni 7.52652084137699 3.423114234795814 2.069627632679546 -0.6244276268315891 -0.12885134914847488 -0.3115446838180699
Ni 5.373174993929293 6.749433954202802 10.325911958053208 1.1160804010905812 -1.0156464267425347 0.9175778673028714
Ni 7.652311273832828 2.0768475514503524 5.12826143708772 -0.36078799422491414 0.7633109062947693 0.5339116829282031
Ni 7.636812342661151 6.69675603932764 13.344957063982871 -0.6062455566059237 0.061565836527939136 0.17601772242163233
Ni 5.032087801501189 2.4748933159343665 4.795531674271771 -0.6140596533337037 -0.13128361273905131 -0.5787892601671839
Ni 7.329850475473541 5.149123182955882 11.548364322667219 -0.8682252850116724 -1.2631714131755343 0.38560788148207137
Ni 8.913509121265179 3.8922890226927 4.302419340713488 -0.9595225871657732 0.38704384259764957 -0.1281892900844437
P 5.381782436062134 6.044094202577499 12.613618777872507 0.6744409826352384 -0.8656981477144445 0.1317672372436892
P 2.509609076648068 0.03927779729964985 0.45537704893238673 1.2930543167778956 0.49540812753636615 -3.305576060303049
P 3.721708524261573 7.306343763196499 3.071218382986319 3.561418051242176 -0.8219271732760811 2.889787284362223
P 1.6393348658041762 1.6888115133480452 10.079220636904026 0.10122947366614825 0.027696180363687786 0.03242829573203447
P 0.7279940226879036 0.533073744429256 4.610358194098169 -0.037323933261438944 0.7149314865501171 0.0371311005243425
P 3.6442323195117288 8.056215265277565 6.934589905823293 -1.5645782372286539 2.06767164922442 0.3421485247468559
P 5.517564143791141 1.1396880721572622 8.012496286152889 0.47782203902348674 0.09046477895047646 1.728244637173785
P 7.716862477052006 4.4435989202452015 0.04137476578496057 0.30297622542276853 -0.09930037496423542 1.312168154789211
Ni 8.835387127716514 2.8136741197952575 10.856102716773446 1.7787009940521237 2.085002941414016 -0.1599542412008665
Ni 1.325269321829548 5.053002133028683 11.079515196836025 0.763826155368291 0.7421332437758896 -0.14541002483810442
Ni 9.21964068856859 8.128672768505151 0.9242630769806577 1.375992962554656 -0.03145461896485551 -0.08554985814736235
Ni 5.892748984796934 2.896750235986296 6.79848438113945 0.4137100390349262 0.3834018749696881 1.5390644092282657
Ni 4.066827283905166 1.2743442622654688 11.932902030590776 1.2265874434039132 -2.2981520214703064 0.3305690474393726
Ni 8.31020399985341 0.72717756113511 10.557561935522447 -0.87382669035885 -2.2369330267588254 0.7022603188403519
Ni 2.845926657519174 9.223174075853562 9.026482491175294 -1.2206430528950203 -0.7360749533969516 -0.8496356949349433
Ni 8.878636526128906 1.811732798426268 3.085449723001455 1.7381567540811744 -0.5068780758491787 0.31594255577544944
Ni 6.246401382139219 1.9519058699872498 10.256063441572852 -0.9210437143642847 -0.6629777191906453 0.15626316550252445
Ni 3.949542812485214 1.9185001379797262 9.251826802301773 0.13183897102188907 2.13944502241298 0.5355281354857034
Ni 5.7356285700440655 9.117227810630032 6.346851062129365 -0.3190530763799731 0.09923943981931295 -0.7254712097391763
Ni 7.8029276728261525 2.8299018697541736 8.863547209566766 0.10112662953969681 0.6783662858315737 -1.8543029969581548
Ni 2.6833723913019503 2.938080719110766 12.112782810280338 -0.9997534096613621 1.087339581512463 -1.2214858605112897
Ni 0.9048967934594775 1.1668665550333088 12.236169063293712 0.4932951949584214 -0.3647338662465396 0.20252065380816733
Ni 6.6989701723521655 8.483616743445076 8.960158136425642 -0.04193289278836004 0.8113702236958413 -1.0074201821780007
Ni 5.886466382339843 7.824524695369542 3.4098072953184175 0.16542683427966348 0.33027311346550864 0.2907670849510863
Ni 3.8986454295839414 0.5827515090561861 3.781140467416963 0.14159862151181418 -0.2961872275253931 -0.26657403264465057
Ni 1.7509825235658585 0.5135109566021492 2.3145771691827672 -1.6611612132617264 3.2958904575841688 2.342262895746592
Ni 9.204842899521347 5.115735902056896 1.708246065970815 -0.11545024525122052 1.075864490993328 -0.2212771084800641
Ni 7.88810721539049 0.10504492857146286 13.132062638342214 -1.44450257739028 0.6115176036381405 -2.1232427016215047
Ni 3.687251079067399 1.2240465403916716 6.3693872460973235 0.18574292012919624 -0.5577679207205104 0.5933465891560684
Ni 7.474433361975035 2.4016516405939274 12.533103675546503 -0.8821436948649777 0.6813225402464201 0.7592344222325506
Ni 5.064635556961709 5.114352068916568 5.183648897251645 1.0846301530010996 -0.24461115522031424 1.6711193529157027
Ni 5.307479821980777 3.8071648334539754 0.6018723928338148 0.3189018955140895 -0.020631817317738662 -0.5917908146331743
P 0.6862262482910897 5.768914369846094 4.019973461439933 0.6755974648371849 -0.9965019926036 0.09143125662880383
P 0.04335825995276438 8.137058797335541 11.920682783961679 0.8983822682110271 0.06310361332870423 1.2707983335931727
P 7.37706686222154 7.392399733416378 2.0131331060033597 1.0058528376908809 0.23823584782158974 -1.5665158205709988
P 3.3381192033168534 2.5402840445920107 2.6362879299799955 -0.9084941598340482 -1.8991859735137744 0.6531527626804234
P 2.367839984198574 4.801661132527999 0.9147441500860531 -1.9457363104694878 -1.0746321612481233 -0.14783868888425508
P 6.069990333410175 4.88197880799265 7.656515358913144 -0.42994629838813053 -0.09069412135246316 -0.567538884064345
P 3.4590200920101974 3.79053115910723 6.149457412771238 0.01902693472446401 -0.3368312262990006 0.2631354392767468
P 5.959717283234552 1.3622361177848497 0.16393164146956382 -1.6232176441384174 -0.6984789974210488 -0.2690752017999495
