# total energy = -381173.6764460798 ev
CRYSTAL
PRIMVEC
9.22721653685956 0.00000000000000 0.00000000000000
0.00000000000000 9.22721653685956 0.00000000000000
0.00000000000000 0.00000000000000 13.50496410303087
PRIMCOORD
 96 1
Ni 3.990909507502919 0.3906009889273414 5.988344421896924 0.8947469854512847 -0.13108615201626456 0.4096831772637202
Ni 4.058434277223984 5.6178984417837015 1.5153783699746792 0.0699147227132667 -0.7503566601269465 0.337935772217089
Ni 1.690924316816619 0.8098423348835451 5.790347734796946 0.49470750192491575 1.264716646175467 -1.5554919586566696
Ni 3.644003079184642 4.400155009917332 4.323695526542139 0.26874970013973076 -0.07463963899276177 -0.1165319083511735
Ni 2.6311407605850836 4.110660322129863 8.587954861272134 -1.2359632281918584 -1.1665596407870555 1.2637067168537137
Ni 2.0379691533811135 8.940037757998928 3.7535292153027164 -0.60954119663806 -0.5571297729158793 0.03445406791281163
Ni 6.2648831751168395 0.8052407220576506 13.286426700590804 0.6727509965273253 -0.07856134264467116 -0.04638167258833303
Ni 1.8055355719007056 7.7475584446753665 5.904897167531056 -0.3511113903670985 -1.009208384426675 -0.1085064669435357
Ni 8.898506056917414 5.570110687973179 4.2677038546175154 0.10868155906881927 0.25220336574527535 0.7690146415477659
Ni 6.728799934786965 7.764896384318148 4.082604970621679 0.38562845030736165 -0.14651302809429606 -0.8467907692869803
Ni 9.122487508162171 8.452074872352702 7.552245954830356 0.17943317586108454 0.2095737040002068 0.31150534593970225
Ni 4.083476942572846 4.279952061686078 6.754318724502812 0.8019754127445027 0.681454180728278 -1.038929051419559
Ni 2.6490600148619774 1.627967019220715 9.481389317819255 0.4002464573308526 0.9069926355878573 0.7576552506708887
Ni 7.674691116650325 7.177787058298483 6.141287379409987 -0.05072426582774489 -1.5609884629948665 0.29675081333834696
Ni 6.092537226927436 3.085922576004887 5.623778024082999 -0.12220376192497018 0.535311134378891 0.5939330577871578
Ni 3.073788786419864 2.3301212794959474 7.147543011056786 -0.16068983381531035 -1.200849672318177 -0.17034484040657116
Ni 0.9429846086928044 3.3337194728153814 11.98249553108347 -2.013326498814636 1.2636241844422367 0.8210123747712956
Ni 3.3829558996029743 5.9292062691749665 10.15774520372128 -1.1792215525254401 -0.5437116997377603 1.2577512706012275
Ni 8.194681670471162 1.9781306549332989 4.076811201435035 -0.9090567172057377 1.3710158210550387 -0.5050363946547496
Ni 1.6756348192178483 5.056108597605331 1.5522337177773409 -0.004936775179985046 1.269437191579588 0.705455685849198
Ni 4.758051052985238 3.083818770662389 8.977371075611858 -1.3547155412331184 0.07696443047119647 0.482647228326272
Ni 1.8023614094541294 8.073712863277509 11.597684620456207 -0.08435558072894504 -0.33613162912881467 -0.0048462723487077836
Ni 4.159093981089398 8.109800506674487 11.370612051712603 -0.8311355792482267 0.36611711974731137 -0.19609598122874614
Ni 1.5913903333537704 1.208239398959469 11.952487700581983 0.3016783325469514 -0.8918796912058188 0.2778961425256891
P 6.4582025862163235 8.981209597640275 6.769457818474027 0.7058580634939392 0.5268434632275121 -0.8860587136486675
Ni 0.5185677170497267 -0.04360413388820225 9.822997478472345 0.6715122390242177 0.3213493286133175 -0.3468986378373316
P 9.115982320589971 7.765403881220944 3.997212619035641 1.3049179009847012 -2.433710864545944 -1.4686948583657675
Ni 2.5756759627177264 9.112116116912311 8.069661192549917 -0.09674572686318178 -1.470789793221583 -1.2142368922583604
P 7.0021469938491165 7.6769056485897975 12.405146333504819 0.8327137223686238 0.25284228488085486 1.0879314494601908
P 5.5181891412089765 6.954959009105535 2.364935567027729 0.5865683898919705 0.5038860831003902 -0.13230459780439793
P 4.645017651908025 0.5016486930321613 10.061224829139395 1.0040108993861352 1.2439148789387675 -0.9813173144433616
Ni 7.680882578864433 0.9306847292123208 8.937491046268535 0.5962547639417989 1.1662050856611141 -0.9858938780704504
Ni 6.37873779845494 5.396555974433483 0.5980657227902031 0.1636859403291568 0.4152953812441751 -0.5356824016753806
Ni 8.517541972813342 7.281980786050638 10.599708570098107 1.121720372985178 0.3249367888542597 -0.3940416140717214
Ni 8.484905308355374 0.4952062505315808 11.906543544611074 -0.07584702903730163 0.04669200473990023 0.44899097372440744
Ni 8.192845454404685 5.465778551974809 11.918913550936308 -0.38340418896253325 -0.7708516947565046 1.5820910493014366
Ni 3.9815992461407226 1.6314825886746267 4.021656438039204 0.044917943558612956 -0.22436346071487168 -0.2164915141659626
Ni 0.40153062677027684 6.157478376052451 7.767488309408972 -1.3057342262384093 0.4678901246217555 -1.8863304577073448
Ni 7.224725908198874 5.639960716230689 2.7981607594600564 -0.8040842315573894 -0.042426030374694675 -0.12188803045676426
Ni 2.9294013039662943 3.605211861378225 11.104767642317054 1.848944817970035 0.6722604300441518 -0.08077814779033185
Ni 0.6265538307482266 3.443348031035656 3.3008696596582396 0.13771317041447895 0.7438080603751512 -1.1888233372812622
Ni 4.296450324635144 8.04716616165309 4.187160405257281 0.026255848372735428 -0.7509860661808292 1.7111411447242788
Ni 9.027770131667673 0.3033262851927528 2.6633815774588707 -1.0936177012116906 -0.5230783397581249 0.5557845717418944
Ni 0.8091189211166508 1.387136670803143 7.624673144632428 -1.3630011782806783 1.7663728115040742 2.2826120168531787
Ni 5.609344812167491 3.4761046493070116 3.3815081493475443 1.3989297738564874 0.058928141794775936 -0.47494985968201436
Ni 1.0098081099663698 8.78065604887185 0.9183645498557254 1.2989382863624985 1.0317914119335134 -0.5837854278301946
Ni 7.08611466322076 8.144540976474953 1.2607773237801576 0.8448979231396417 -0.4242757303659145 -0.31452022150662606
Ni 8.92657524925022 1.478744475365965 0.5502235284028365 -0.0370357125970588 0.11751586953099762 0.7240406479402369
Ni 6.905436538609093 8.773237366874618 10.46664380490673 -2.448952621196363 0.8645969442304658 0.7517386280761376
Ni 1.7510580861896963 3.0501302035331723 0.8698118598044448 -1.4779595714971452 -1.093058486274111 -3.624257612276216
Ni 2.344155875662351 6.96680675498171 0.38639337824234476 0.4861511277144724 0.5250696591565408 -0.432098568844443
Ni 3.4750896555014203 3.23812551076151 2.3014218682820324 0.8045166911091177 1.2180889190145991 0.19260390891508763
Ni 4.314794030867103 7.784891762288297 9.07355281135133 0.8620512949904767 0.3776390043439819 -1.3420932244834176
Ni 0.09243548587519969 3.807555490131058 8.181752494831212 0.2225109808871652 -0.6318558009748603 -0.4579592386612887
Ni 1.4753304052926124 5.070023239958346 5.703200366648876 0.941354658007495 0.40269723286419035 0.6072104916223542
Ni 7.85929080823814 1.8242945028713158 6.62947910002329 -1.3119274995333148 -0.7441091365553378 0.6834107902340165
P 3.028769197533683 9.14920029968205 13.295853224879824 -0.5417463484812735 -0.7630815638927826 -0.5620007278549354
Ni 7.557394741589629 5.553723151621087 9.279315123785723 0.8178509463241785 0.39436711573194017 -0.2331628041740565
P 9.068102294615306 4.459476784245936 0.44782080335673025 0.31678742027424794 0.49361375464010476 -1.0296563678683817
Ni 4.122508068006038 5.892011359808253 12.562276601826767 -0.3365039248665689 -1.1136141989382757 -0.4526843634155946
P 7.028287697951299 1.4998471193058496 2.294844708421801 -0.18753986412861898 -0.6365969152042713 -0.6996059119366402
P 3.390854396853757 6.17780593381352 5.446633000636432 0.503177744179456 0.9367804083732513 0.15828199570476612
P 8.19628720612728 4.727573557168256 6.3195129098986875 -0.6172239099942983 0.9713764011805658 0.46101139522405116
Ni 6.981514937946369 3.4033480478789446 8.565185782047797 -0.49778022731296856 -0.719790100193999 -1.6185909439996835
Ni 8.186820082086038 3.7379730511495675 10.4002263011554 1.1562554306475699 -1.9807776183443373 0.7683456405051993
Ni 6.2933768194047115 0.7753676089158157 4.625841650755482 -0.9993160650136272 0.16506148052044475 1.0520213658271431
Ni 6.803946385266378 7.576153672560239 8.446234044362345 0.235733136004394 0.9493477035153005 -0.41781609078349985
Ni 6.433150693651047 1.9027073879614511 11.101998554671074 -0.3442288043146523 -0.15233657675460863 -1.2485240955760046
Ni 3.572381425375554 8.00522846304934 2.112554589102528 -1.622566897928296 -0.11696925299890823 -1.7235186924530252
Ni 5.290498348965606 0.16433487889836304 2.421385831608151 1.8172346313509475 0.6683541530112104 0.096736213781485
Ni 5.723125617774276 2.83351207098716 0.9197043416791059 0.045398996960089553 1.1428679535970705 -0.013139365595435435
Ni 0.07731392361517221 7.31030834044305 12.96041714928637 -1.755695534295886 -0.15193702732334477 0.2931504975815984
Ni 1.6727743821293637 5.682682728229669 12.058298959371594 -0.4629636338544156 -0.6793849569040751 -0.0010562091786562454
Ni 0.7724813356213708 5.518078414612004 9.842012926059278 0.8297029605667583 -0.4795871013437096 1.3087257047665655
Ni 5.893423123919667 5.557294084373486 4.971717399000262 -0.252788548824784 -0.2315214119158916 0.4702640241705707
Ni 5.294299962128366 1.1998795408879628 7.961973117941604 0.38438635037014446 -1.292051072324362 -0.25803025683969755
Ni 5.897972141611999 6.620758457789977 10.805659117747355 0.4560375961585436 -0.9650571438307571 -0.017596630035840662
Ni 4.953704949837583 7.933708308620811 -0.08879627172133416 0.7201163731851663 -0.11796452703264201 2.164518163331524
Ni 3.976339732784477 1.4040132496252018 0.9699317715096121 -0.865553137496148 -0.6423330463571002 -0.7321193111833133
Ni 1.921521682230548 1.4477133465641148 2.2804751642995527 -0.10321693640982223 -1.1044662138904204 1.3202535029005071
Ni 5.647213308332461 3.9481044505562095 12.271393217968923 -0.7327852269020864 0.11630462283171585 -1.0865803347489351
Ni 0.18616647293499047 3.1605892112307488 5.628585403834936 1.2315149626125177 -0.9025374280299812 0.508448248549776
Ni 2.7541211009570916 6.095942069784375 7.6678352948543775 0.7290427291405186 1.9155569586726302 -0.3023077386008342
Ni 5.565238717706341 5.588389803690237 8.10111492786355 -0.6625851117379169 -0.39984099436231785 0.24781809219338613
Ni 2.111325523876121 6.474119534531278 3.4922347463211407 -0.10368770539865368 -0.14738874583103004 0.586173468446397
Ni 7.84043037788697 3.0378856873511753 12.680364672055823 -0.4893817188366282 0.27319385195401336 0.6531789879326686
Ni 4.044362772191922 1.501258883417263 11.853455677692084 0.17182785271000084 0.12153681776493262 0.6874322526885839
Ni 9.369500091577436 6.74643314535501 1.8478432818826753 -0.797945208539187 0.4347457766593029 0.7815256295305831
P 2.2141905324645923 2.7814705704095695 4.437906320433838 -0.07682199135606124 -0.8750842169150348 0.8529254214298084
Ni 4.827439720422026 7.411097225338264 6.637135844204014 0.1783671964904154 -0.12116812157160424 -0.08564396052306542
P 3.5677401355190774 3.8692763407274238 -0.07098774404141407 0.7924453617668804 -0.08921753680693667 -0.046061313134436795
Ni 8.628573067928615 0.03942328213080754 5.209472316186893 0.09366914482038707 0.6986006106005775 1.5485756911528104
P 2.084372824729465 7.436887295216699 9.476716655426968 -1.5371491944834237 1.0306066475967928 -0.8451599185517769
P 0.5733174056449629 2.1887141879442504 10.048301189829294 -0.3438228271254853 0.15248518651733095 -0.1330353053228354
P 5.064394637945521 4.755218297545997 10.129681547718322 1.6867573165632754 -0.9307748256091196 0.892043984697825
Ni 7.826128192444548 3.484685960572466 1.894935303575546 -0.012649827553526602 0.45976775262493724 -0.0340383205316317
