# total energy = -340873.9798996779 ev
CRYSTAL
PRIMVEC
9.19267093879650 0.00000000000000 0.00000000000000

0.00000000000000 9.19267093879650 0.00000000000000

0.00000000000000 0.00000000000000 13.45440312834623

PRIMCOORD
 96 1
Ni 1.6607386902012926 4.697050233813382 6.388567823945107 1.1896733439863836 -0.7783009519456984 -1.1116398488207242
Ni 8.155737416605799 5.247636050799617 2.1390351835888977 0.8781073200120748 -0.012795351992455385 -1.5810132428562256
Ni 4.769966497551566 1.6591667435170734 0.7366234088959527 0.41899956956863965 1.2578566858308402 1.821859788827785
Ni 4.427190193685023 9.129443479096464 10.319177302283972 -0.6088122888918354 -0.46016498806335593 0.6811880715510849
Ni 4.301627505031486 4.1297705268941485 9.31787392318105 -0.3743513347316456 -0.6339797892963984 1.2143009127270765
Ni 7.58534139433013 7.221890774131366 7.910300463908051 -1.6664479155819625 0.15992158819071814 0.0019018450084031763
Ni 7.365140161150041 0.8958772355475294 8.505591157619596 0.1785248051142022 -0.4364761290868483 -3.6499275062384946
Ni 4.773836611902774 2.571759931407204 5.075835147953354 0.43128790001768946 -1.6223486112699026 -0.6086775630861839
Ni 4.136453598469749 3.559926064858557 2.4422296860933788 1.363682263508103 -0.8135888286137151 -1.4543987534580693
Ni 2.2476171709845967 0.25184884048864303 11.067335674334068 -2.662516163082253 -0.8673135718306805 -0.5897814975126294
Ni 2.717905009686283 1.8088234219913095 9.439501229521639 0.32322571970042396 0.6408744595337027 -1.2504519087263366
Ni 1.5563375294253776 5.802864166473166 0.8127856046469905 0.33078656276681745 -1.9246260108534337 -0.7773360169292677
Ni 3.182520970585844 5.80921630190472 2.6019063755956813 0.14820198576094476 -0.38680910087902415 1.394577667535379
Ni 8.109185732343297 2.6565531256483808 6.624261465001894 -0.20697637558667578 0.04017811488078242 0.26154032687548506
Ni 0.5072736298671188 3.6832641272104505 8.360283531638368 0.34738920432050496 -0.3235687048621395 0.5361943083147928
Ni 1.7376629583507037 7.8785692032964185 12.993750820242736 0.36764101259100557 0.1468138471641665 0.00652931647808553
Ni 7.979725351326548 2.0983649700197504 12.728551464143028 -0.5124483708481045 -0.32498615403495645 0.2621116259979228
Ni 8.863619021391337 6.88114605048244 0.12431708177803034 -2.2720280706897453 0.025506886021852842 -0.8090672865942776
Ni 4.232783594399203 5.915060711975504 0.2741741604728279 -1.8041616002170735 2.903489207329348 -0.5669693847141204
Ni 7.3233594729642055 6.174689309650434 4.012977646057836 -0.14499582011882126 -1.0189765195570324 -0.2726048122197628
Ni 2.1652600344704274 8.103679322613194 6.047336808017847 -0.8452985010121699 -1.5780281920859727 0.45030377899855994
Ni 6.859846632544798 -0.005966962530566754 13.390561642295491 -0.8199065433016267 -0.3629739461326394 -0.5876557094188782
Ni 1.354824995713232 1.3882587389325682 12.952929846874634 -1.0670186105669237 0.15280888840533685 0.029857449681064713
Ni 2.277759938104807 1.375085641865395 4.755700391941973 -0.3942786697831919 0.24403317122965712 0.4144739137841443
P 5.439551436334423 1.3066094380598308 12.185074339384318 1.1555041543038422 -1.2552575576450962 -1.158845045751617
P 2.148915466022811 2.445241205004199 7.294048642539444 0.38553100549754893 0.6849048582810398 -0.5350468249739108
P 8.895820946741168 0.39314478499037814 0.8197407792743618 0.713119630152359 -0.3633215592800452 -2.397764785468638
P 4.79462124028301 3.974837255456509 0.17918721372796084 0.37235718711975224 -1.9819287012296447 0.5393793909109937
P 5.579941902775364 1.9090694956253111 3.1036883040057663 -0.07757095370694382 0.2940200446707453 0.128683713222359
P 2.3549507937035883 2.251588404713152 2.7905914566577685 0.19106304679052902 1.6519494648554711 0.16751277027441472
P 5.900425980272128 2.3775923415587505 6.934344954904937 0.18208578299258318 1.2181076880676762 1.4799719739414836
P 2.133076494461932 3.772341105982892 10.231279743158229 0.518857359698242 0.20762892156901014 0.2189140075645262
Ni 7.318753944959562 1.331337722156618 4.624224058247743 0.3263403540700057 -0.5261495224842809 -0.6642043925088947
Ni 2.417791890389699 3.494428286349409 0.5459756926462578 1.143072870519025 -0.2382060230249188 0.006334426858460058
Ni 5.581385152070233 3.420381324119066 11.593927701609886 0.7113651093550974 -1.8908823387440854 1.2668030963908503
Ni 0.3901397009490251 2.5619789298165045 1.6534516601628084 -0.783183219738664 -0.8112704648931836 -0.22186537688336627
Ni 0.5341768998439431 1.2558383179607395 8.316072301327926 0.4141869786713448 -0.39358730014312215 -0.2899129644809072
Ni 3.3257427795925145 2.1360273417463445 11.811646913709628 0.7769259259750426 1.629883229084051 -0.09274200502042737
Ni 5.506299418054412 7.71789051269131 3.7980566829094173 -0.9040757190513784 -0.17913544211500762 0.10694863553811258
Ni 2.4027618738475995 5.89359582596584 9.478331070423062 0.6622583245261175 0.2797784471500665 -0.45167597675573823
Ni 4.732901649418389 6.570976149475118 10.298592154857229 -0.699697443209182 -0.59014273750679 -1.5487839505088745
Ni 5.151563449648864 1.630586730410415 9.058163510737176 0.3299550680044575 1.6849256626711755 -1.49155787900687
Ni 5.960031256883119 0.4227598928142479 6.296619974123065 -0.43974657230800396 -1.7807830733921328 -0.4072840809039244
Ni 9.109486191076344 0.41001517420020117 2.8519837884466104 2.0499122683584696 -0.21529080898964215 2.0961885257171904
Ni 6.116996108538376 6.753450662233938 5.969180721998931 0.6526089743618115 0.1988167225940189 -0.08926973020111077
Ni 3.4010123670216945 0.6429335479823334 6.910854004280056 0.31916029138179874 2.5211623105913934 1.0380865009136058
Ni 7.346672085778128 3.44391456102902 3.649210797988094 -0.4636496041778467 -0.031583431233235926 -1.3262210333378515
Ni 0.13677223126603666 3.1878435269025873 11.223084335659955 1.683348547992043 1.428149075732921 -0.5291302023791596
Ni 1.1377216925482416 4.3557999132777185 2.943312052265633 -0.20152152311969163 0.538614487720511 0.783800798718005
Ni 3.0616741219849652 3.8932890739611183 4.38322900401675 -1.2161364232739185 0.16335169691818963 1.122870170318905
Ni 4.028632764205356 0.1860467845803856 2.9441329577562807 1.524037339691814 2.381101465880344 1.3290487325946336
Ni 7.518979504778194 2.8122493887514604 9.678545599036894 -0.8823159587767837 1.115440453513737 0.28621648946592637
Ni 7.957286042226081 5.207510043334013 9.336117697388666 2.1687198601176974 -0.3209492649614214 0.1377396527770402
Ni 1.4623332791749144 5.429807205426395 11.630429958298185 -0.28625479890302963 -0.2237512810521695 1.5173619845541673
Ni 5.568782000584473 5.557217620884191 1.9907941763975259 2.416957299236689 0.20869695782220835 -0.11945833796934908
Ni 8.725076281754653 4.517214017536264 5.098316743338895 1.3045180944431212 0.9694676141936273 0.2560242821532623
P 7.408051547828035 8.172376150514788 4.7118798501349195 0.6867611947634882 1.2028931851107671 0.2064197317522574
P 8.148705023544816 4.9825194287359205 7.1705910754688675 -0.9637402247915468 -0.5107118477729721 -0.5160682269888789
P 1.5893024464406482 6.202451175067645 4.268301316058964 -1.1831268011171172 -0.5773368439913734 0.5677422583244028
P 0.21845370648611198 2.5542754717967617 4.476669743555267 -0.7405972667473375 -1.0732221682744743 -0.06807715528389567
P 5.121852738050048 5.218495284782213 3.9521901919989455 0.8081090364460662 -0.9816847250851094 1.3382357984105404
P 4.044186762975528 8.84925087713733 5.099380335335176 0.20817348121857052 0.12646793651796281 -0.106495607161094
P 0.20041309030025883 8.406770867206195 7.497707664852556 1.0551773949576213 0.6101436061087493 -1.901635206385215
P 2.817360513642841 7.516028657493782 1.4773338791708763 0.34145741221710224 2.0909707289616764 -0.7271390843599026
Ni 6.888086516836743 0.22185867170152088 10.489698585373256 -0.9321755626113882 0.7186996953432977 3.972260538921321
Ni 7.128686286229015 3.2510707157567516 1.244859511382006 -1.2588175070822127 1.310980305128697 -0.7309692567392702
Ni 5.177036340069756 7.7137630035614 12.204461681823028 1.7860404651363304 -0.9677712003278107 0.4830357220139423
Ni 6.259123989735561 4.336219524754984 5.710626747525084 0.4614209719576441 0.06502474161081705 0.42889060343010643
Ni 2.4680390282607174 0.6684478054212304 1.451286446833238 -1.3705818188414136 -0.7721349323443024 -1.1930124356619454
Ni 8.906705068812022 8.286824900330775 9.495673043638151 0.88581548728961 0.7770318554252875 2.2392735019665433
Ni 0.11206784811298613 9.163814874723933 5.175787975393049 0.3639399095903345 0.5050081125199755 0.735429863613785
Ni 0.610208559671496 7.324260354689664 2.2504236933395223 0.0634442844975746 -0.28762262578483366 0.7044079613109739
Ni 3.6581681362869456 4.683776017368861 11.8286129066944 -0.42573148897583457 -0.23088454966284108 -0.8649712968507491
Ni 4.040151180552298 3.945420709319067 6.972972557051666 -0.41989611324098003 -0.013978316556963024 -0.28721279194092475
Ni 5.864740032739142 5.417369522012657 8.03926168290753 -0.21329743270869717 0.21003521701765765 -0.1050367632273804
Ni 7.718929284476788 4.944700781607972 12.466566784975903 0.09948292328868673 -0.003112834597368833 -0.13149290053638
Ni 2.2912823566573626 8.225013382759474 3.640909816374935 -0.8737464719402177 -0.7732253371950039 0.43615371275042303
Ni 4.612817792482951 7.8573341340534535 7.2140218480396 -0.8315531264016195 -0.7270370115643995 1.224641375421136
Ni 3.778334727258396 0.028405352363967445 12.879294716290216 -1.5210656586579998 0.3133413707071765 0.6689992427943768
Ni 8.935524091356047 6.912796415592195 6.014239516544957 -0.20606106286125803 -0.6175478689926204 -2.967474966152689
Ni 3.6590782106830724 6.060663422685175 5.22042942269075 -0.2545093881706327 1.088021438070836 0.06580815674406086
Ni 7.066038235626931 7.0269418072761365 10.510472182548689 -0.1869305126793942 -0.39071563502228196 0.8996925023820181
Ni 0.6766173318438382 6.051489137358559 7.864730556872886 0.786160300089117 1.9071355673781545 2.427880631017412
Ni 7.420305377828412 7.784353521620593 2.0690716056692593 0.7210980203721452 -0.24990479951908573 0.6594684204858062
Ni 8.810843899086633 8.837695690107717 12.072985348128798 0.8299359025131706 0.1766998360903215 -1.0070106054444077
Ni 5.21357720597486 8.252554624080654 1.4399711885080575 -1.4894179498457316 -0.534047437175119 -1.1454477985091047
Ni 7.212698103463415 1.1110537549405168 2.0278075455749622 -1.6805802412182862 0.0012760384989461894 -0.008159910102973043
Ni 2.0843461472511255 8.440848097372287 8.693642863672663 0.7101322653892608 -0.5359433686462511 -0.04484980932483889
P 3.1953355534969674 6.22683013767905 7.299174475703894 -0.9642981541775458 -1.0601753623928452 2.188469274830483
P 5.867277209843498 8.26401788440359 8.983773661890918 0.391655373227732 -0.3657381391413379 -1.0688284100821528
P 6.226968027739069 4.883863687127475 10.367074793532261 -0.7576889321223016 1.0699540390461637 -0.7490235431378197
P 9.17939645150611 6.7188218718277675 10.970786892842716 -1.2035570439470111 0.5894601096174688 0.5333393553645008
P 0.3678382819085769 3.84313386279678 13.341964588809372 -0.7511159068904741 0.4891019828126803 -0.2650671090818209
P 6.482046253433364 6.845956507165525 0.3100016751340987 0.7454813343125161 -0.7539037540482565 -0.9827190798868947
P 2.9217249037360844 7.440805033417942 11.207369465153093 0.7573886272730634 -0.9978163405396493 -0.4748524148722016
P 8.907192280357423 1.2908899712176352 10.378550923594132 -0.11919891366037534 -1.2280370313662463 0.5919571650077096
