# total energy = -340866.35620272503 ev
CRYSTAL
PRIMVEC
9.29117235247449 0.00000000000000 0.00000000000000
0.00000000000000 9.29117235247449 0.00000000000000
0.00000000000000 0.00000000000000 13.59856990394202
PRIMCOORD
 96 1
Ni 4.45331460295514 1.726810817165292 1.4463028942206637 -0.4562695096636916 -0.19661303007448075 0.8141277318363206
Ni 0.660991646572282 3.64849468094878 9.238569341921547 -2.2215426603456834 -0.10119502088378701 0.7368028327019117
Ni 7.821429579136241 2.702829878915472 9.891218444937117 -0.9719150472928552 0.2477525290627733 -0.16810360978087824
Ni 8.075794001624386 6.10670657705869 2.6849564508722072 -0.22421382251088484 0.16060035942529763 0.36986013172951143
Ni 1.2226625201046484 4.470605474498788 11.329498411926217 0.27895363725592603 -0.23071022886850592 1.1910064609755102
Ni 0.26253507935836734 0.8511178332916876 10.96470376174757 -1.1470717072657728 0.9654798331904727 -0.367174100256916
Ni -0.10261821006884668 0.6995630190205885 8.54502886074867 1.436866658111577 0.06980133706385398 0.2794791707420929
Ni 2.4258228696718893 8.982603121338762 9.133941451296606 -0.7322722918214098 -0.047415256059169957 -0.30875889354281666
Ni 6.537714766224871 7.978636213482568 11.496026879383637 0.4587187425351326 1.2819407233632374 -0.8518514716393394
Ni 7.467974804679799 8.372944272290122 4.314989488840408 -0.756184065442001 -0.607358072943812 -1.1513345963071848
Ni 1.182868429389204 5.403281217736814 7.69091555352594 -0.5293286915432109 0.7454743923339806 -0.9587072903533295
Ni 5.629456223640636 9.380088761053317 -0.27759699868099336 1.3447951967956129 -0.8893145015818039 3.1229032944587445
Ni 4.914008087436718 7.525422122656355 5.352247595959387 -1.3790867709886314 -0.202907861944257 0.774735346081627
Ni 1.4289637085813542 1.593194469143156 -0.29625460166154066 -1.5235508869736987 0.4704576282386156 1.5156282896925122
Ni 8.6868186529927 1.347675242630053 4.481721432969943 2.1668807500264298 0.5983653825268984 1.0390218682436814
Ni 3.1874295495774936 7.34764483296471 7.301330197569345 -1.2802862184789499 0.4315275268323213 -2.7314422966300054
Ni 7.952128499074171 1.8782940894101223 0.37069733190442755 1.1453704083039502 -0.6167896506703572 0.22555336725791475
Ni 2.9215905293696256 8.751568832352012 4.127302234834709 1.797910219990723 0.3589311435218335 -1.5791335093350094
Ni 8.275201140297016 5.138315567719759 10.640622099219172 -0.06339337665498114 -0.4340400088415299 -0.8083792593883175
Ni 1.91153790369447 1.7413886664140739 4.766162309124901 0.851408984785282 -1.7604366485252971 -0.9539175822741701
Ni 3.352728794947205 2.5386548653871257 12.448796640830931 0.08480886621627974 1.6673321179591285 0.5840065427020652
Ni 4.3688857207858085 4.333365569302002 2.877361762142745 -0.6871789990271971 -0.8817096926513525 0.7497617068554249
Ni 2.3208326233294834 0.9768088113908082 2.3628333674525672 -0.8031151827759007 0.004241805995489469 -0.3646130243979591
Ni 1.4899788366991045 3.5455484924997664 5.899617497175804 -1.2259521238127595 0.6269341953035268 1.8533280346393952
P 5.519783226487913 3.0966362144219195 9.860213803163258 0.2752715604186485 -0.11620049315368375 0.4434412475507718
P 4.589040047076367 5.069022005133771 7.686278329459612 -0.2047503144696345 0.00273231132949852 -0.20978196335627097
P 2.461538135772792 4.57606957062557 4.12825365087236 -0.5122197997770662 -0.4382257647881034 -2.453612745676194
P 3.433162473052179 0.2900090756800039 13.395175934009703 0.09878101212565568 1.7669181424845828 -0.5983455850325566
P 8.869464516939516 6.610734088880178 4.637044746702677 0.12071483608426953 1.6415316119562569 -1.8723002048665238
P 2.178742726222014 3.872337602619686 -0.008130704829578688 1.5422998854464276 0.5280927622535807 0.049217085154599105
P 4.816933919845085 6.157036857097346 1.631760266888117 0.6032054842280191 0.4440871086648868 -0.3913905496021195
P 4.864764874550458 5.859449901336203 10.997435632441347 0.3247850937677439 -0.2334307131234625 0.8875406975108329
Ni 9.40034351654238 -0.3855009566387068 1.5604226464087374 -1.407536284578576 1.6023873376566273 -0.06726597223650997
Ni 4.511365847127472 0.5774835195722018 6.1663391787467265 -4.336844766963872 2.050258081733663 0.06326867815165878
Ni 9.584773285559793 3.992379547995251 3.799630463351734 -1.381225414598189 -0.744755511890085 0.7428001879359272
Ni 0.5763825156614429 6.596760165827171 0.8923111745468812 -2.7565120951144397 -0.6571348872566232 -0.01460438017673614
Ni 3.854136196196255 8.439561977270214 1.5037297716182867 2.1086231519361167 -0.20211133418489066 0.7225440087900524
Ni 1.6356458351200103 8.328783330620613 13.501462298879964 0.9113725098231078 0.47894432555338806 -1.6765454090272802
Ni 7.3482023032992725 7.6186218714227865 0.7348230176816 -0.07908944723399927 0.15383990077301246 -0.7725709914404566
Ni 7.193299879669132 1.8114162316072342 3.096013705881659 -2.0829995378307418 -1.0932034964924076 -2.5461796585713374
Ni 2.3959238773949103 1.5012118639405176 7.313378989733668 -0.6351738096044997 -0.06993246332507957 0.3680742434736822
Ni 4.5904801787739835 4.276810203860744 0.3962731417368825 -1.6578511750518867 1.1330067445322747 0.1974668934343438
Ni 3.3435862814603974 6.39299546737272 9.189261090829588 2.1874855707609746 -2.380363045052423 0.9332433417542702
Ni 2.5480017846632728 3.764875904460725 8.274403028601368 3.3593067170572857 -0.7398585888091 -1.029589262075872
Ni 9.461386518176859 4.390190378738299 13.536070986366763 -0.8423928973296009 -0.8335231056437967 -0.7114067612263103
Ni 3.4636189356637197 3.9741781415718194 10.489379468335427 1.1758567498182653 0.30827784014134 -0.16621642006049436
Ni 7.162127996794904 8.345433111279515 8.29911197206358 0.47979047560376725 1.0242475381479843 -0.6431455149560665
Ni 3.6151022079085497 6.675772294579013 3.4401252775308517 -1.4562347782255436 -0.842067138559066 0.39562515650875735
Ni 8.383276055823993 5.883960013712421 6.403770439822568 0.30989146448536303 -0.19117668955025782 1.9237184114374997
Ni 6.175015275386952 6.368178746312493 6.954118161742768 -0.40718637898379545 0.3456902193515273 0.42322543472452917
Ni 2.399984119664966 0.5506394647286197 11.436642351994477 1.3972323315494066 -1.1296051750498932 -0.698733536634016
Ni 4.798983375072207 8.440695500283823 8.405384400175477 0.08234549227745172 0.03865062249266247 -0.9641490301941912
Ni 5.811776896558956 6.492215895752414 3.6141461462847766 2.038723855841818 -0.43739272736384666 -1.8805920125616709
Ni 4.460533843787711 7.034235010874266 13.125162390113195 0.005453566915403511 -0.7185102050403109 -0.7585435668131129
Ni 7.21352676164147 1.1301503180841765 11.653539193296748 -0.7069795786928922 -0.7435072413052807 -0.09362055097063876
Ni 7.454781340095178 1.8767517548178356 7.593196578580664 -1.2051902086750599 -0.12026540725167673 -0.13377398326107284
P 1.9971839294275935 7.922406039069804 2.1586775106466987 -1.796230775405771 -0.2609451164936474 1.1913095940382257
P 4.044400821382077 2.2620380853777364 3.9106218778456934 0.09145105412314573 -0.9605428009001714 -0.33800519200244367
P 8.711988438598151 2.767171246696105 11.848937191146657 0.3700506504737627 0.9849345994809747 0.8490268577063507
P 7.754235821477101 5.4036993204877355 0.6528674455632733 -0.2980301942714028 0.9235960484724933 -0.4035176718829567
P 2.3020272907102775 9.01785382882753 5.975537523805278 -0.850005419569536 -0.20024111374537126 2.8114552841195386
P 9.496692972699083 1.8986045919326444 2.2726885561195327 -0.46663722605126084 -0.25983825658271376 0.22354559279926664
P 6.639109328909355 9.177197432789677 2.0588782422362844 -0.3548384615096986 -0.06757913260155457 0.31647425990920336
P 8.335157074779099 6.457634152665119 8.713378397965657 0.9006497240889649 -1.4219822848005768 -0.3883851871168924
Ni 1.851173157633708 3.3778892893804118 2.16497413807557 0.7239709710445661 0.5007195124469506 -0.6758759153095522
Ni 7.462948280496503 4.349866691205021 8.076775149413214 -0.38463549026647303 0.561122181904724 1.876235021144556
Ni 1.534251272435526 6.8796020312391635 5.566506673461958 -0.05689028542914073 0.7043709374254514 0.08697270663681797
Ni 8.742519230587632 8.923836456903743 6.128603082683039 -0.545042759844358 0.5662163085981797 0.8686950255592395
Ni 8.930479645057266 7.943506291232955 10.109054623753122 -1.0847365966719769 1.5292607928742825 0.5463843614739171
Ni 4.361703644642208 3.157437645578088 6.560807045716855 -0.9176148911883938 -0.30307726977700705 0.1797954442965097
Ni 0.1713264288035449 6.646941787109944 12.009890026141237 0.20169841501718813 0.5467983090828841 1.6799523778263004
Ni 5.331702026779125 4.894766069722106 5.265012779772763 1.3083510950359662 -0.37578703873690766 -0.4528468571353878
Ni 6.729085040907573 5.935275158008802 12.378111260642987 -0.4110733727430275 -1.2534762973749574 0.5074923123944098
Ni 8.083236230590781 3.6237244157497663 6.112733760492523 1.1248892576314626 -0.9141932671013545 -1.6027593762840655
Ni 5.381456254138733 0.18339659066402447 3.9684975188626384 -0.39017698890999253 0.3937657347025154 -2.0078299944764386
Ni 0.45198393962128053 7.675102907486104 7.66428984123006 1.3116804165195153 0.15648350904344663 1.1901274008046665
Ni 6.142496172537534 2.169358642256896 5.151804491581697 -0.35166983397372986 0.6932213485665352 0.8049414373513621
Ni 3.073408283815193 5.184920087689096 5.9201779322316535 1.3036102379168708 1.3707826219983101 2.6014072115860745
Ni 2.6501675146439005 5.908720987739192 1.2578677008494281 1.363880238451522 -1.710716912702667 -0.8816258746882946
Ni 1.280723055449223 6.445044614276274 9.818303183410928 -0.3713724546089798 -0.5948213739293821 0.9151234922251078
Ni 4.205416836347907 8.00216146160106 10.618103085054562 -0.08827934126338344 0.4020896811871785 1.5512581230809799
Ni 6.370687362818019 6.1344035615141514 9.32455263720708 -2.067356431976846 0.3468806401152026 1.1282232071007021
Ni 4.733973042890099 1.0860729969648515 11.663805938624924 1.0429672260446745 0.06285318788079497 -2.8424751295398205
Ni 1.1720999607599252 6.120615461905998 3.215123746681282 0.25608418885692025 0.3557473464772132 -0.07491937501670969
Ni 7.7157424948756335 3.7234837321195373 2.078296792223508 0.2597585523847139 0.5207309225718709 -1.0081380341806314
Ni 5.860221068632346 3.601184031888999 12.157461714871896 0.17853920329190542 -0.9725827627838411 -2.104838488082704
Ni 5.187707439361903 1.6854186448241049 8.216201267438704 -0.3499109423010942 -0.06765960813050283 0.5663353506745472
Ni 0.5909436408001879 8.56702756926769 3.906393465358045 -0.32864046295809207 -0.030850409721953315 0.21039774256339894
P 0.006723092234811038 1.7705072002226667 6.574188191980778 1.48558803457668 0.19109698535225797 -0.5125699840276333
P 7.214883272788902 3.988718826131631 4.237966600065726 -0.8053062768899485 0.21168817924004835 -0.7694895243016554
P 6.016015444797785 2.749815336946759 0.5347747881242252 1.361490655173423 0.10113074330475487 0.3202280705246807
P 8.823501087854925 8.969400365581897 12.616997519292035 -0.46034933616002005 -1.0770690528243902 0.7963516387998221
P 2.456604523311924 7.086312031294547 11.82528929955456 -0.6833801941063972 0.1474512236378493 -0.6147754484538057
P 6.199543970107656 8.98995243858273 6.233380561181086 4.703491791072725 -1.5988942369017045 0.6780166158016387
P 5.750390121551499 0.32448861587262934 9.84460277556109 1.1665578410148427 -0.2048385033080666 1.2337106847122559
P 1.8085173858675145 1.8999796854245627 9.723711617042543 0.9941633171680944 -0.4835944227308897 -0.9360039352185429
