# total energy = -340888.62815156503 ev
CRYSTAL
PRIMVEC
9.06426761199566 0.00000000000000 0.00000000000000

0.00000000000000 9.06426761199566 0.00000000000000

0.00000000000000 0.00000000000000 13.26647188037152

PRIMCOORD
 96 1
Ni 6.434632788756795 2.2748138695154867 11.238014693815245 -0.5652223201160266 -0.5754522253741509 1.0947394735209597
Ni 5.122262832397143 0.5001236733993897 6.082505035000092 -0.6745330281284125 -0.5652202632334976 -1.4749572943357114
Ni 2.6765784580135024 1.8986920935086924 4.502362116643036 1.617838639214691 -1.1725351416442 -0.6276497333133126
Ni 4.075430589692608 4.597922155769477 4.71889749427525 -0.7703079064378927 -1.4615914145517668 0.5496064679556405
Ni 3.88131930319579 2.779131579443575 2.5898406703532006 -0.2872025075282796 -0.12839549255797886 -0.40557635418419824
Ni 5.477029194395696 4.470270077892535 2.65178224809799 0.0625341139784794 1.3119771218243277 0.22029571840340123
Ni 5.529828552034919 3.4120621795936272 0.4684522166565209 0.1014053371223802 -1.2284679482560779 -0.6153886565577724
Ni 5.949830446553555 8.124556675373368 12.319723518217367 -1.326252657906735 1.0650666290468753 0.4026779495904807
Ni 2.026054114828646 6.909808878974994 0.11075265772542756 0.014622377898865141 0.5197387338619307 0.5960094807002123
Ni 0.5641563776347144 0.18269846740608134 13.337446772574674 0.9389025969225766 0.8600052110947254 -0.16046409095774944
Ni 8.609993516295019 0.07665832230496832 6.545159746223816 -0.27542068440200307 -0.8183340566081843 -0.4252987723137901
Ni -0.23818266105092503 2.6088593162242084 1.1842293144695326 -0.3984222596379203 1.3355101719492612 0.046198867153565595
Ni 6.9873536866322565 0.7080108334996579 4.755857951049448 1.4090087553590442 -0.4703136464615835 -1.5081708049732026
Ni 0.6785247716283456 7.672621366783833 2.204423488121681 0.16836200564858747 0.09754174040191588 0.09445410261552764
Ni 7.6810511354712965 4.141971376719139 3.759359585249738 1.5047532946512214 -1.1929581853852422 -0.41904533520491055
Ni 7.675893567317353 4.107246168287231 12.538818644965 0.8683589823760592 -0.36438213933407565 -0.1466022453739927
Ni 8.401932322260556 7.255320623952147 9.071361101547106 -0.7478346650360411 0.23593136805812917 -0.6126283202038159
Ni 7.211567405183987 1.1369219964515291 0.43443492750901164 -1.4347089883386257 -0.4718318828783229 -1.272314513127383
Ni 1.9615890450380609 6.741757361270066 9.039442190304056 2.234824979276887 -0.023549505185165895 -0.31947036642304977
Ni 0.43509027404245637 5.3968920062603525 1.2262195332272499 -0.7488885602218522 -0.8863317648043961 -0.3993386008046026
Ni 6.917087485701912 2.0370490711919724 6.717717111256204 -0.5315547526602522 0.44794324918618333 1.9012063463779127
Ni 3.5493405094556083 4.815020424407596 0.4597876834432448 0.31185655863153383 -0.575956418704079 -0.1989123676316187
Ni 6.608267895183741 5.919728014498644 4.8371018862350486 -1.1424756032546581 0.5664819035547405 -0.5817066909242948
Ni 5.588256819733192 3.1405873707876633 8.832047219923929 0.008987033989958716 0.2555293447947148 0.21807839903710832
P 0.36493737645468477 6.094042940981031 12.19621199769143 -0.6572978951970486 -0.7372383775774335 0.8097404014019022
P 4.187745927118809 6.54823525215463 12.630065905659725 0.23495846262189857 0.15059671124536644 -0.9567838480783716
P 2.4465182869849817 8.900856793082148 1.3390243410933678 -0.8604867787168342 -0.5108735701618169 -2.747214471862598
P 7.032647830859416 7.795741310957837 6.0510502142482245 -1.6123087105353973 0.06806121444429568 -1.3559653544798196
P 4.838098049222954 1.3234918124666597 12.807730078948582 1.5136302854258772 0.7570325294852253 -1.764256793602336
P 4.055480137132277 6.52882865563865 8.104235494276136 1.2030340815640055 1.0180354958000015 -0.044026284982279014
P 4.756211457478277 0.9986194043726843 3.8385477445876863 0.11318767446928893 -0.31750038718087253 -0.4819229485657378
P 0.5420486294317846 5.767792764241364 3.647682372248912 -1.1418099446462013 0.8067692345887204 -1.3231189973737603
Ni 0.8523311927092633 0.4500327188610418 4.4852478733540035 -1.1781185492692483 -0.5316640245446069 -1.094868028679024
Ni 2.3056505072302746 6.234484700167663 4.721788995577725 0.4439112452086549 1.1933981011361383 0.02924964089373672
Ni 6.001306421151521 5.711875298614518 8.9287067546867 0.6228155451494628 0.19776976938674326 0.5722283191202145
Ni 8.610247315782383 2.5768715165488745 10.073085923933043 0.44149389401641387 0.3340595770911343 -1.524767018768987
Ni 2.7703120472576583 5.388824808269123 6.893524016153598 -1.1415795738029502 -1.2401178737901801 -0.41487449165667256
Ni 0.9895642012342148 -0.2881358387247036 8.541378824886023 0.11584670935869082 1.5913159103338141 0.3233555604100689
Ni 1.6293201947408913 1.3772429181835 11.064423095871849 -0.2504660713391944 1.1612613685025936 0.8697165248452182
Ni 4.271862328645332 7.3650163880980495 1.4381384794696512 -0.5985633574703176 -2.6765379312826423 -0.23234467914813534
Ni 5.933686986303692 8.048036129932969 7.851097698432257 -0.3016703621271514 -0.7828338068190454 1.0124723998899272
Ni 5.575684680841242 2.756878802962151 4.723102407924837 -0.5069670360185591 0.8163399089962908 0.8373476215962096
Ni 1.0993143509845527 7.211748690532104 6.5771448266189285 -0.7142192909744409 0.5148194421834423 0.4226698193313753
Ni 5.285800344933945 4.860568368122118 6.7614957099731 0.22198467607004996 -0.47670592314117255 0.7277867452462304
Ni 1.006478124213578 7.838298046428421 11.026533551688548 -0.9991366020129696 -0.0747226856248713 0.7857959747711628
Ni 4.736578254277151 0.4859009314128308 10.519077792384547 0.48027255744650826 0.5880336615835873 -0.7316680825785077
Ni 8.539346616133626 7.480875854079947 4.524039312144188 0.1851741921099198 0.09245584123857625 -0.19221695788931412
Ni 7.720888590720119 5.944536914388524 6.949044466868066 -0.6210574248077755 0.40306901438131226 0.049661886001501565
Ni 2.4978673618392655 5.836200790353503 2.4096022451210737 -0.2762364954350791 -0.6451921130724501 -0.4031608027641702
Ni 2.5992965141110096 5.604046773554225 11.355542891426566 -0.36326165257638726 -0.5936386664751906 -0.4885430249854167
Ni 1.1653384747689481 3.710276577246924 3.480525497736944 0.36093454710510736 -0.6892016858841807 -0.19660043166899044
Ni 1.5514943947940463 1.5493824204884774 2.2092393333944225 0.0909427470281595 -0.8688094396499166 1.2407817326264243
Ni 1.426516275801838 3.287220024612507 7.861073831139163 -0.6738527142319364 0.609487460581989 1.2638542981751717
Ni 3.9772645736869796 2.785902587195764 7.044231058177383 -0.4345699132030709 0.06654580624103378 -0.8315420706580259
Ni 4.469916571463707 6.9181842620580225 5.785216099048936 -0.13216678667495305 1.1054920840517735 0.2578939883721494
Ni 7.9849941501251065 7.589592677346015 0.17008916501776825 1.7687179146974827 -0.16149278933257993 -0.11219934241409063
P 0.5029190934673616 5.494650130232717 7.90619394143213 1.4163243151838512 0.3788116844958444 -0.9872221099635708
P 8.855843641144572 1.5507964462037938 7.995476975380001 0.4806265983518174 1.7255840596224863 0.553564167051808
P 1.993857837002977 3.6879240938240354 10.27918017194043 0.522422451341681 -1.0209930357664285 -0.01456067142299428
P 4.326157290406525 6.208769373537194 3.462309945958097 0.28269484946591317 0.7279366405605334 0.14933455670349122
P 6.878990369795018 4.113346420251385 10.270013478312867 1.1351921822193676 1.2673021475144561 -0.19947466789299195
P 6.708011093717992 8.068693595350958 10.079227871527264 -1.4555187259951254 -0.9663388387566584 0.48778352111157286
P 2.4940059839243625 8.477374219879657 5.408421754400625 0.6977588314255725 -0.209524081709194 1.7240869062516693
P 7.420471576087195 4.365740946167982 1.5529464904324675 -0.7528868827479679 -0.6181718757298644 -1.117187775222147
Ni 2.831903744280581 1.9773518060568782 0.006623260193473059 -0.4706918557366087 -1.0641050364645546 1.1845735608659729
Ni 1.7131918610474552 1.126615924411049 6.740017928354878 0.9779653672519933 0.2616819946596719 -0.24195649120628654
Ni 6.970476020722517 0.8742667198314814 9.054671972399408 1.1154713067516726 0.6452610186371727 0.5464332124339815
Ni 3.10912529862187 1.8083485402743338 9.170143487736336 0.23187313882835547 1.439817770320101e-05 -0.415445019448162
Ni 6.408437055953814 2.209986229028667 2.616493242233436 0.8849364271187662 -0.7694033923457523 -0.8605050335492793
Ni 4.597251399981442 7.061209337455328 10.474224171553313 -0.25337424612492493 0.33183145909156403 -0.7057999565624942
Ni 7.225671405267529 6.354549986225886 11.39555438060958 1.2411501717094366 -0.698397493450836 -1.1293598918083068
Ni 8.053157441017289 4.040043689740072 8.330826770168429 -1.0308796987525213 -0.9797900791655578 -0.8151872834490864
Ni 3.3051491455413284 8.681401814918503 12.257463784686632 -0.0736353660979635 0.05263099593215452 0.6157005313712364
Ni 0.33582113669353225 5.390030355834105 10.010123709678352 -0.4210754782610619 -1.978754417266721 2.348375179291917
Ni 8.969346397600942 2.444922975921548 5.6652740870274325 0.29446793084144124 0.4745695935244601 -0.9524479397071791
Ni 3.914177272542088 2.96771366282281 11.46440746225135 -0.40925483147705005 -0.008608567604617432 -0.9556253089938962
Ni 1.1955134209631069 3.798535348977931 12.706785864983052 0.386088934883548 0.5030499603523402 -1.3688054436672812
Ni 3.5216944938676886 8.750027383448385 7.584680750838771 -1.1592872754953583 -0.9136209395376523 0.8977358928762798
Ni 5.650202023184943 7.886918776793536 3.7577416135177897 -0.1029755098229775 1.009760400275403 -0.6461912437609258
Ni 2.820863466580225 8.271642542568506 3.277296464656555 1.315489248742644 0.026295700471735357 1.2885011501895747
Ni 3.6058562167312407 4.641620988933202 9.012776022022713 0.12725855074005826 -1.0761863931091207 1.216203786176744
Ni 5.299124818020583 4.8342004142384285 11.499497054232974 -0.6596543112443672 0.21328406297225846 0.5772085459436253
Ni 7.7157944724380165 -0.16171196908125834 2.4695406197691647 1.547063368273342 1.1957791997738052 1.4426117881254703
Ni 4.601448155790362 0.4745125858440892 1.536973438409834 0.35358350605667493 2.7335295181763377 0.5818812688289462
Ni 6.336774957842965 5.902542163497104 0.40421103427086114 -1.757372921998309 -0.045081465719670755 -0.0029683385997045656
Ni 7.94593622187319 0.30042426604684874 11.320293768338598 0.6419684639288299 -0.4948589399011155 0.4966445710466285
Ni 9.640029671496466 4.783911858670632 5.651211782573958 -0.729877309226672 0.3336098911482254 0.6892963024805162
Ni 7.5427394791250455 6.330094592764835 2.4951843386871264 0.13441727327202657 0.487160028594961 0.5200511228960271
P 8.537180256223621 1.8611207051113396 3.357624908834162 -0.09384295139409 0.04823389530572338 0.3777089383499689
P 2.1032363517896737 3.4712609100213987 1.4284805025486913 -0.36491590035035865 1.1949140235600324 0.40971325917070733
P 5.141615043308687 1.1735869581082945 8.09444517905105 -1.4329884061030935 0.25642614557737126 0.18110979223255905
P 8.882256916365293 2.1559541310222445 12.040397240984435 -0.6548607465104658 -0.9695018098656722 3.539365956538143
P 6.280948134890179 8.075228932150594 1.3460826861223227 -0.22259145641611344 -0.7651590152471016 -0.4679885978728327
P 2.186373812436362 3.3034994488734597 5.8517741081835375 -0.07070019472903953 1.131898084849128 0.20035424228446785
P 7.049860874663173 4.022386496833427 5.821022674582365 1.0191274433125996 -0.14913838153228506 1.322840804011709
P 2.5972026683402527 8.82976574381787 10.060695070389214 1.6387378512612036 -0.2003503856297259 -0.7325777388769705
