# total energy = -381174.24663056014 ev
CRYSTAL
PRIMVEC
9.17552689405050 0.00000000000000 0.00000000000000

0.00000000000000 9.17552689405050 0.00000000000000

0.00000000000000 0.00000000000000 13.42931108591664

PRIMCOORD
 96 1
Ni 0.21989517270313635 4.196647446732551 4.009790593788408 -0.709448866168991 0.14350303762337868 -0.5579460981695874
Ni 5.695699156296126 2.939196536339709 7.530821972583581 0.49522506499128255 -0.9869775980529325 -1.7385768723377282
Ni 2.4658494539038056 4.3190122736567425 10.025477993233677 -2.4086562355701617 -0.5197683015482855 -1.256066940920269
Ni 8.415894216254115 6.603966214452386 4.531130269747631 0.36119885651008765 0.031789119486138794 0.25552548813997283
Ni 5.847425669344899 7.515729148362856 2.486436583640594 -1.1063222932625527 0.061582291588171356 0.4569467382363744
Ni 9.189198449033356 6.999624110508032 10.6071146443078 -1.114306339909294 0.2998574772881287 0.007820781595999434
Ni 0.7247932219852848 6.177102351362461 2.3826687146655585 -0.1439324118513134 -0.8564079806617703 0.4032831872746474
Ni 2.780771888643766 7.728326106958651 2.5432028159990145 1.206515869465019 -0.3898203769015222 -1.6506472011042799
Ni 6.229788226902256 0.5933923361562532 13.374681114617037 0.6968486609064773 -0.397647843365741 -1.039144766974791
Ni 2.5352990171153538 6.487675586345218 4.42787256006901 -0.6627375781553813 -1.1496726352237296 1.2375588548137526
Ni 4.004585317370134 0.6100211435823715 3.1686058128999006 -0.41282583665775996 -0.3465805923762805 0.27376823640024467
Ni 0.8337113142171099 7.446940223089111 6.40494903568921 0.3570061585849787 0.3141738939108008 -0.6365172110062716
Ni 7.528024354427524 5.717142362693984 2.596758531490251 0.4502670122233535 -0.0695622244698544 -1.0443923885269755
Ni 2.151110529702124 4.309956028592692 5.300253214912193 1.6470114041239055 -0.8732219668953155 -0.2957221149635165
Ni 5.488552460687206 5.773902172183566 4.028323323049167 0.2835489699360923 -0.9960237674156008 1.0513865604566215
Ni 3.6552087790683614 4.056739012348922 7.802309298018373 -0.4456894201550001 1.1847861910974111 -0.15834087396715957
Ni 7.259273171118467 1.5876689484983262 6.1101347681811315 0.08295870038141842 0.9747766851113665 -0.6894996767405739
Ni 6.526515591771891 0.8503291110109313 9.032688733804351 -1.3927269874798853 -0.012089841284998532 0.008137798615785985
Ni 0.7008414265291577 4.8134905945754305 11.710668111984033 1.2699275009524453 1.2618282688840785 0.29654615352670866
Ni 8.066453449263944 8.398974544624826 2.7673508454267584 1.2759901622067573 -0.547362152006154 0.7807530130306167
Ni 5.398045063208184 0.33758506866468 6.711432738326428 -0.872954829276858 -0.17433982049857719 0.399737378904918
Ni 5.07324058598192 3.399440966342518 13.259376855653114 -0.14199662828118123 0.5329138377913081 -1.4249994743603458
Ni 0.2458830175814648 4.704522036945579 6.388000919926487 -1.5670593517792948 0.45565013091213785 -0.06603621359446692
Ni 2.7136987869029263 8.50185972791074 -0.042824019212701556 -0.1338727136224662 1.392286557508357 1.2890968747920444
P 0.9337016187616795 7.789591100162972 3.748724831822461 -0.17756835473820387 2.01904103270091 0.8997866047577213
Ni 4.4618568766528295 8.606286399718197 11.632106332994258 -2.0891485881512732 -0.41209127248458055 -0.01879296433678699
P 2.7040002549549 5.787197510681851 6.7327043623709955 1.8048010335732854 1.2305058046217132 -1.7584576704220554
Ni 3.5197229486572477 3.0432378360167793 3.458786439316445 -0.21358693892465797 0.8149260593678997 -0.002132472961970521
P 7.555780323342167 3.445346127492918 3.0632120405557166 1.9176729765743683 0.15174805124099028 1.6296212336719158
P 1.8107443588298313 1.5175036941874913 -0.12270799163077284 -1.1683748396189233 -0.5761885893195431 1.3573357524647849
P 4.612161183029943 8.690269997561412 1.1898070908779554 -0.4431244876413014 0.33747914429564463 -0.49504277377714745
Ni 6.307715976982277 0.12777838780341144 4.446256645793763 0.4516188982655577 -0.9688510636555506 0.09777133991421871
Ni 7.131127762238499 3.7636910337717744 5.587023297974828 0.5669912390909913 2.128098487051909 -0.4177302159379128
Ni 7.066651334614302 3.887982721347892 12.066182160238535 0.4866733187665296 0.14624409070362557 -1.1049647507933937
Ni 1.4020113369218343 5.9064426584553065 8.24779948074358 -0.5916316633474907 0.5755818089734798 1.686823393914521
Ni 0.8633868033621475 0.8080657164926711 7.444632578070257 1.5871602362942279 -1.3791520770089278 0.32496378543745325
Ni 3.6099826069095924 6.229623067417805 9.316571278547173 0.9746293609002246 0.7782521009856339 -0.21581454270359604
Ni 4.066685283523624 1.3593634878258802 13.155755795108702 -1.4045736024058262 -1.4099569782049266 0.9135697745847428
Ni 4.559897381728189 4.206979090037638 5.567282151819505 0.050935867617918726 -1.1427041743256965 -0.5206563605801936
Ni 4.989789168699713 6.380945857282366 11.618488933501293 0.28208961178174646 -1.0147388273266007 -0.4689126523489988
Ni 4.7081280190227535 2.2598405236322137 1.6894741722664715 -0.21214095050675078 0.41583402735646446 0.13326079107008018
Ni 5.075672100614112 6.10437712504264 6.890700512960058 -0.24128260506771346 0.5186092482431779 -0.10921120632004415
Ni 2.1797657002543325 7.161397825527559 11.625593543990751 0.4575967131155474 -1.5535867712141567 -0.5843947792794194
Ni 1.6638258218839586 2.1078570958298504 4.583840001657403 -1.2090445494241435 1.6635824211087094 -1.1220253058201062
Ni 2.233084687151189 1.6587150533928985 9.484678859795387 -1.1907552641966526 -0.7122958486994829 -1.130904096366975
Ni 6.899620042673091 5.642022323849626 10.108444025142136 0.758355619172023 0.5677522856267319 0.9684278600752032
Ni 7.790591232596591 8.969407877337039 7.221988417503707 0.09289395721725938 -1.2811868759163485 0.9163128845475187
Ni 0.7094196266409925 7.3995027489440846 0.46506892205415423 -0.7818477887566921 1.725399968636138 -0.7700819064700157
Ni 5.790124503767396 2.5204805411493543 4.1373423460770455 0.9253760231910515 -0.6027185172892717 -0.24861384862180408
Ni 0.5368958642891022 2.883299226380038 1.7584475256311867 1.687727650896345 1.4112484433228405 -0.05841854914820906
Ni 7.396052750824446 7.6552522106161005 0.7533061718703273 0.39842843028550734 -0.56846036743735 -1.8922959312621603
Ni 0.021703791362213804 2.882592710807665 12.769865247452937 0.21980438058927954 -1.0401937770645957 1.432761634804268
Ni 8.710135013330074 0.2427284714284551 9.761457711601443 0.6167832229124539 0.31021516637336893 0.24132245716671347
Ni 1.7432858849586061 0.4200693854101595 11.385759033750949 -0.7217621363187053 -0.6884331831492725 0.39253109096446587
Ni 8.436805242090966 2.263483207817044 8.34829076905765 -0.4821679746970083 0.6796981172691197 0.1947348392151614
Ni 2.2097421466821467 0.22976712210983533 5.3604978895236854 1.468532364645974 -2.3522089512157103 0.3298792204611996
P 5.4578144455255355 4.846137119335199 8.735457632507142 -0.5278366803787168 1.5578686864189621 -0.5059743330879867
Ni 3.9380719227710443 6.528369048208504 0.3042916692574792 1.705049430004244 1.0293105544931886 0.558736969501999
P 3.050477326751871 4.889794276391686 11.985230156487683 0.2325349407820705 1.1980273723780335 1.30531179398901
Ni 2.7612096652632636 3.451695592117358 0.8207701510577008 0.8786205122030675 -2.4668192170641388 -0.5138820179708375
P 0.12021500096825763 2.269016050546145 6.221450425595567 -0.032210009073641306 2.0753157960332387 -0.9633812987902313
P 9.016570085674648 7.544751339991622 8.384456108388912 -1.2097693434053098 -0.37932359113525643 0.15851262365833346
P 7.391263125775374 6.56658511780503 12.139559766521936 -0.006270663500060169 -0.151825441446145 0.5194690251403118
Ni 7.6530776107374985 6.607260228614488 6.725050137819394 -0.0771462074646994 -0.2788309956351327 1.331600809592526
Ni 4.13692394204977 8.040761973904935 4.797285696492736 1.6733978645372343 -0.262537914902064 0.6328577598768134
Ni 9.139430391052192 4.747197412622274 9.5415524458187 -0.671296780579302 -0.6578532534798863 -0.037676174394535106
Ni 5.292765067397734 1.4527887028635318 11.24602768703676 1.7749842073221687 1.7141894446322994 -0.46270472376607413
Ni 6.558987781520294 8.27951835973235 10.894703184371158 0.7831960752544704 -0.4877282423936052 -0.16304316453883533
Ni 8.322964479669816 9.044170070631754 12.215543222448895 0.660271890223708 0.03847115949200471 -0.15576257171702207
Ni 6.004088615873367 7.41928518497052 8.799851480389115 -0.44651114472534714 0.7521577178914273 -0.9049257257564995
Ni 0.5037446855490674 2.748776826294886 10.650786482207348 -0.6814246130419233 -1.1386336038007487 -2.2282810075107817
Ni 7.543888840461712 4.4681604636427 7.86206950480881 -0.39965253250059557 0.4826809097776848 -0.09068023739539222
Ni 6.539287925236083 3.2784891705630717 9.69949446079897 1.9530978930408818 -1.6850616740284077 1.0462973188591722
Ni 1.5923301161706036 0.5226508587552233 2.308767185795371 -0.4343336288225488 0.6387137044369581 0.5249405897778443
Ni 4.6011413752063115 4.053968003220914 10.7041274903688 1.4779562290630355 1.061248797962682 1.7920362777084493
Ni 3.2596609893356843 1.7579850790747245 7.0598697026722155 0.006324913776763301 -0.2012268746974083 0.22342012296499586
Ni 2.7766796036401526 2.62976106669428 11.75258100137418 0.13890359117815435 1.0114357310952968 -0.7291823400421764
Ni 6.055150423149396 5.341477939783797 0.343081209286125 1.120651051180399 1.7792188142288068 0.010964212320987569
Ni 9.098984668415582 0.4659286689259896 4.779236517500341 -0.673134605118989 -1.2930982826419537 0.6465028614640738
Ni 5.825450282386032 4.1515130298429215 2.388134576048188 -1.811052670909952 -0.3355338476438157 -1.3419536135817598
Ni 4.331986468713042 2.3291524539400528 9.322587671544637 0.2671093363228303 -0.11914337783209156 -0.9588296748638067
Ni 7.5723329738949 3.305777187605104 0.9146422142560607 -1.3721193385318629 -0.6670930269105995 0.13498882950478042
Ni 6.279170912753036 0.861040621130255 2.2002445587735364 0.9643032963838682 -1.1124605449498066 0.15703578200249083
Ni 3.3410112109546013 8.211610285042342 7.168095960174729 -0.1593628874737707 -0.7031540342992147 0.7546123500795068
Ni 1.6385839473437327 8.343031357030585 9.053745650519133 1.84249983367564 0.022897216313147662 0.9696061966540204
Ni 1.470341485849883 3.4242057134832193 7.8828447328473334 -0.9987226544040025 -1.1068092602013002 0.37983729754688134
Ni 3.9413384103524045 5.31714444240805 2.542812856105172 -2.2036925195381403 1.1846406666584826 -1.320053213964243
Ni 8.955580358277745 0.8248661062720799 0.8097136411264131 -0.1913803209206317 -0.8530310937697373 -1.0334646858708783
P 7.58628895033099 1.8217091134919796 11.152975915944506 0.45223544880363403 -0.5366100556959725 0.2071617521246045
Ni 2.0533636414880108 5.474633186358772 0.496593279872349 -1.1707549098153256 0.7470929017740101 -0.5904939501986218
P 4.105415182627329 0.2622319714367081 9.572426258778696 0.06312341082304612 -1.4389628785189734 -0.26338380784212706
Ni 8.387073886217456 1.5244770946420791 2.87956662203145 -0.5301095355732935 0.05295161249636688 1.5609141581135053
P 2.003430424022395 4.355127147589978 2.654840534408129 -0.8580102921518835 0.2879262730681815 0.5577501801086975
P 6.2875114667178 7.195457381432074 5.197721289412464 0.13146924638729615 2.083157917785477 0.8134404759613088
P 4.11615054911663 1.7575997069443394 5.112444859827076 -0.8219179173047007 -1.0187188950202715 1.0673914205253099
Ni 8.822920590156121 5.320741248958311 0.22005299176605594 -1.6840496878241256 0.07202868373247595 0.4069601219056023
