# total energy = -340858.4210898515 ev
CRYSTAL
PRIMVEC
9.31096959360070 0.00000000000000 0.00000000000000

0.00000000000000 9.31096959360070 0.00000000000000

0.00000000000000 0.00000000000000 13.62754516746026

PRIMCOORD
 96 1
Ni 6.314056916432773 5.925668454387592 12.264081935389301 -1.7354388409293788 0.055537885166304354 0.26673909746760516
Ni 0.7486131041782409 6.712221896233748 10.523912054092124 0.8801287213174779 -0.21807917036805669 -1.5377104663035324
Ni 5.952418869161304 1.8827431674722461 9.604134470336225 1.11930944955084 -0.9592117407935739 -1.8254878724986754
Ni 6.819726347670318 6.108908330039047 2.916540087877788 -1.0747026094747427 -0.7420643382111671 1.4097150373974496
Ni 4.080690578360586 2.711549787962014 2.637188662814515 -0.7885344567482484 -0.25018376421208527 -0.5583304780921998
Ni 1.502175919631701 5.917381691718395 1.9744953210619092 0.5747300024961456 0.48774649722605024 0.5965157309126694
Ni 0.6280891243817402 5.18030674068585 3.926967406459266 -0.21789379383012797 0.6938720947766567 1.6361181542501693
Ni 1.0209757156915151 7.848262570426313 4.765947191996635 -1.2785864621790237 0.3738854508388206 0.14273222089562515
Ni 2.73901714737115 1.3740290492764684 0.8388978490076058 -0.6535813655774099 -0.1763437383024834 -0.4770031426666172
Ni 8.253429399134294 6.935852756670569 11.847228909123894 0.6805188133982022 4.938669825904598 2.6860715818046903
Ni 4.844273858965269 1.217018174118415 7.636848632796518 -0.5847575619354768 1.7509937579448422 -0.061949445119602986
Ni 6.50086289332277 3.5390714946895923 11.148666920370673 0.9215592205481226 -0.2958555552175873 -1.1156219733969237
Ni 7.224427627913737 7.222574745024782 6.665505038911918 -1.5867707141652931 -0.7552908642037701 1.4123941268915094
Ni 7.114418525737826 2.8758604630443934 1.904476831991841 1.4306348182692523 -0.6520582440646641 0.85333242706024
Ni 2.293301047399851 4.392952555480649 0.5029236263935604 0.702362648746171 -1.0462962904179076 -0.8050303975207425
Ni 1.554205616031108 3.0451245737897086 9.368037153115374 1.3162703498830428 0.10965754982884339 0.5448069896844682
Ni 3.101828376773315 2.4030680643741906 12.235463740175769 1.0992337618468875 -0.6376531243829276 0.08453632928118343
Ni 4.451825814309112 3.6505331080749364 10.042615016071307 -1.495782972831811 0.49392048724724613 -0.10784389365887233
Ni 2.9820986226573565 6.523805121656367 6.215850398930428 -0.8852267046656755 -0.8657043183620315 -0.881732832579804
Ni 0.9123995716895241 6.166673583521853 7.863310958994803 0.9170435920659561 0.860226583076912 1.2315856679494532
Ni 8.511697065334502 0.580001692380241 2.695310526421175 -1.1256852711701966 -0.16294469128775807 -0.3124589681022232
Ni 4.9468807405546515 6.116692300366518 0.8553345030974184 -1.1605504584784982 1.088447469864661 -0.967471666809521
Ni 3.7656259994838606 8.696501183826884 2.3305421312739933 -0.062027349545389944 -0.25621814333162324 -0.7564170073884133
Ni 6.283489004249657 8.866258775944635 8.244964796951635 -0.3217069690630524 0.1630634762538095 1.0093654788298292
P 4.911107996537736 7.649240601826219 7.134810479582554 -0.6248981387101044 -0.9719533567299582 0.2520177320970305
P 0.9384805277711953 8.662162329080818 2.331700415853823 1.56365469697312 -0.15916979762635816 -0.15771763856086385
P 7.908700072095704 4.306360541072187 3.7389351749136135 -3.7248867333542046 2.2736188122156324 0.614649978619535
P 1.3552488242160523 8.323634107590188 9.100283471401259 1.2109607926102501 -1.3366712821368978 0.859996469343977
P 6.782082098825865 8.176651146358791 4.188235066965108 0.3986888830357456 -0.021462540749150133 -0.4496594605463417
P 1.408619300193397 3.458606098074761 2.203151311625209 0.8678380768755827 1.7395693181579845 0.13916815769345064
P 3.6845647008343905 1.6414493982899565 10.30773834896065 -0.10514166423636086 -1.4603860813897558 -1.0283335352918999
P 7.216904364726422 1.6483488265347597 13.536253636104332 0.17923365825576876 -0.7082877559813544 1.0691937638413715
Ni 4.282729301011039 7.743970403395219 4.627192334327901 1.7956638471587074 2.5723252066184537 -1.792287988707939
Ni 1.2258542839757947 8.790811991777778 7.130190376620244 -1.456103394854002 -0.6809692706720595 -1.561803502696994
Ni 3.3469023994878446 8.978316291364617 6.331288727300057 0.45652224910444605 0.1548151202020882 0.8425787880881618
Ni 5.279543051391806 4.4118538231418505 7.573099219350237 2.244467130352341 0.06038467173564439 -0.9406964555982057
Ni 8.57559824758023 2.3731332981028785 5.771469491955491 -0.3265252163873022 0.3605195710548759 2.2300486409341658
Ni 0.7328505642651133 0.7790599737605711 9.977052756904024 0.35587718718685807 -0.4398211342996813 0.1598241433809054
Ni 3.3794535481299937 3.320840996441685 7.870765321009364 -0.9574631335335833 -0.40424786518076183 -0.9157081610839843
Ni 8.453084513646193 4.857383703727326 11.647217184488142 2.1894048992708743 -2.569520390179807 -0.9955967071805112
Ni 3.158634600419124 6.843823136196027 8.433242838086576 -0.48051012737861115 0.34520608062625713 -0.05554534136547208
Ni 7.6465590426703445 6.303423789502185 9.80610894729857 0.4886885494243454 -1.1546886003810821 -2.0613613907356756
Ni 6.079513599986627 7.918606943421575 1.5935509789650693 1.517367640981122 1.4339343149561306 0.49453240979963226
Ni 8.97085820496234 2.756782476778821 10.550213680145996 -1.0664424263484795 1.0584864047261964 0.7569890778417995
Ni 3.1408320271342878 1.9967373645048054 5.908303496659444 -0.20276413727754114 1.1716445115091307 -0.3964234840403366
Ni 8.406836929176642 8.308401361829732 8.552674641185215 1.7840152071761854 0.04319221911675787 0.9015308411423376
Ni 5.796907060059138 9.289572683801227 6.00075304184902 0.2441990073835601 0.3429635644489835 -2.4623259571794756
Ni 8.9189681731023 0.11049606586984322 0.029681507906590902 -0.26854221211461493 -0.8243172707748126 1.350469621472571
Ni 2.5051814645911374 1.1418507190302951 8.144270388454672 0.05501183745950526 -0.11010672155112004 1.2964247759120253
Ni 5.669346780769254 1.2284054895615923 11.746616437156694 0.10666941373479695 0.5028172755162438 -2.016493840799024
Ni 8.221716237728357 8.995886090417173 6.025514633582124 1.3956320769418222 2.176485620106045 -1.25211001315505
Ni 4.530885254560967 6.097483770718705 10.135459346358832 0.9169096375912531 -0.4368527956999767 0.1902058409965563
Ni 0.07537602080024343 2.6712891567467247 0.7104856160275729 0.14626928751460616 -0.8576475094958261 -1.0646313412816697
Ni 0.9344395670988005 6.07319145183788 12.946263135868454 -0.6244186279705246 -1.087715733904959 -0.00519671370959105
Ni 7.071187695318633 1.5682372467529953 4.311728314868582 -1.0843555591834744 -0.8747412317533193 -0.8052324862292197
Ni 7.263002973687313 3.73419216715666 13.212640656321327 0.008552517555701399 0.346081541252675 2.227279562829461
P 7.7143056552333515 6.498339620644845 0.28676854320066913 -0.37821930232748413 -0.1496734281001487 0.7157925489988318
P 0.2690199735377218 4.844050395702281 9.425109670482913 -1.7207038487120496 -1.2497949918686282 0.9789562704103528
P 4.424851936272411 8.352572600147338 0.24573603263113675 -0.5401712906846697 0.5619742454923741 0.23674023711266973
P 7.934333170554467 0.9066090798873065 10.36658274378431 -1.7708606720720985 -1.096909484589085 -0.6415303479501469
P 3.9941544297678706 4.4246936497944604 5.777192944778812 -1.7044920148388774 -0.7977554611258841 -0.28666463274693854
P 2.6783282495308964 4.875819422923966 9.19276001840178 0.8777738479320559 0.6694412154278019 0.4627029239938612
P 4.8703073291035555 1.2824556662971969 4.1388077864826 -0.27968203078151826 -0.06583618176851888 0.5787972305869838
P 0.849317754741424 8.366641474746391 11.952937274584185 0.3942563011856887 -0.8880865427119737 1.2069735258277277
Ni 6.692631616844995 8.201669720844334 10.569033011277435 1.296066621241658 2.0902014548958197 -1.4355836776340953
Ni 3.74597985427936 8.697888518251277 9.551232336114229 0.6955445973830732 1.5328955614133921 0.9951835309024927
Ni 8.666817813726436 7.323077347554345 2.1006719903151168 -0.19798959870703323 -0.269290146024233 -0.5000620813686097
Ni 1.900201234893307 7.670842050581879 0.5736879241038563 0.945609576629107 2.12138610802874 -0.18513562556250052
Ni 3.0135976317695956 9.185727443296113 12.348122744211965 1.1742035304855585 -0.31413327048085254 -0.19739387410456327
Ni 1.0765342694522992 1.1457520151633216 12.306790420431254 0.07250536625857835 1.6997966662457369 -0.09709693955501342
Ni 1.4446434403811752 1.3994573064108242 2.6999296982865557 -0.43249914671697126 0.1419999707152909 -0.01823117829604602
Ni 2.7031047388148663 3.654611312624496 4.006852729687254 -1.5388949735299366 0.3838003959596874 1.5610565972286408
Ni 2.719426867982397 4.610829236895489 11.728914422340202 0.9847268543455427 0.19085478743446488 -1.0968891728741108
Ni 5.311703139323723 4.067953172370179 1.318969563469694 -0.3816069878527944 -0.937739686962727 -0.745033191031504
Ni 8.111958531723308 4.253083174787755 7.770739440107511 0.29990427136566417 0.4816018177808932 0.9194164631735068
Ni 0.017656391066964153 1.917584814560038 7.999914051660333 -0.9714090541907141 -0.3797370245235912 -0.6814567518314392
Ni 8.447376889470668 4.690950127646544 1.641697070073103 1.0612469981904689 2.133821248468299 -0.49660394761668025
Ni 7.317872515720547 5.168537675501732 5.746680898411443 1.943041537246144 -1.8151139854635192 -1.1946581987954845
Ni 5.381656451608753 6.075211932174078 5.4337382894361905 -0.28693048481381556 -0.3148107561638514 0.8026801521210112
Ni 9.19069950089763 2.877601614301854 3.699142885453673 2.126160389488932 -2.5898858412100365 -1.2689749072311887
Ni 6.702938859850389 8.919163703457418 12.822116257920737 -0.14771784703567462 -1.786549800672581 1.4553230650445517
Ni 4.839562508503906 1.5164868794323252 0.05629039594707508 0.018093881387233356 -0.022679186765070622 1.312835870280197
Ni 5.681050669168332 1.2579212622147993 2.11398667640158 0.7711712828794525 -2.851907221486998 0.46492410001489604
Ni 5.9394114450614515 3.605849766446311 4.894128512938245 -1.044874984590349 -0.7451203514286716 -0.695812249222163
Ni 2.878681686739637 6.7651640676236955 11.670192932311185 0.15709337471330365 2.65377981165052 0.7495184804963673
Ni 4.192114947868765 5.457624650055918 3.3245756262243984 0.3805906307731381 -0.11875642680631805 -0.799024814756611
Ni 1.5192149934346564 4.415810985090625 6.2043215567540235 0.16262921692986831 -0.2245616927686068 0.15937600009989328
Ni 2.787527297378471 0.48198791194222407 4.146276114951098 0.031765722447371095 -0.8534195874574076 1.226974651540003
P 6.218647414105514 4.845363242372344 9.425859203510855 0.5141172739100952 -0.2665326378837538 0.24995467892041465
P 9.06590457948724 6.2314313749423755 6.2384723299204055 0.7009351722710252 0.16934519549746319 -2.4272589382730136
P 6.802696584836654 2.541429068041906 7.496225994687963 0.057740806354894106 -0.8349140724540525 -0.5164988867683943
P 2.6315685617503273 6.791123050007651 4.007465391466617 -1.2444416979765147 -1.5985250264877437 -2.0745668336823564
P 4.910856600366873 7.814435818991266 11.364745653615376 -2.157168664944988 0.18425193740596654 1.390701215299108
P 0.8191865270180666 0.8654285249060435 5.424539982873381 0.429051554488003 0.4352042043529602 -0.2884350943838
P 5.054468990714843 4.165439020849384 12.550682881142727 -1.8382832244911307 0.02206520733015555 1.460448044975943
P 1.13274459106347 3.373298997428489 12.300590245980223 -2.1324040564057984 0.21771098839536054 0.8279152725387161
