# total energy = -381171.082275194 ev
CRYSTAL
PRIMVEC
9.20273653175999 0.00000000000000 0.00000000000000
0.00000000000000 9.20273653175999 0.00000000000000
0.00000000000000 0.00000000000000 13.46913514109029
PRIMCOORD
 96 1
Ni 0.6363922480429605 2.8164239380436524 1.7951391920508806 0.6510686264578852 -0.9617082819631824 1.337260836091781
Ni 4.34721635960056 0.9264210957809007 10.844337410142947 0.2642088748465837 -1.2554563039194637 -0.7240663589718498
Ni 0.00801834446650275 0.7798647533817314 6.220504271237226 1.2998852236568 1.618136115850452 -0.18123757605967497
Ni 7.350529474076829 7.348532480217961 8.086613127992313 1.8758164455498985 -0.908529641057674 -0.946121483268519
Ni 7.051486545763955 8.154867065103195 3.6413001967853194 -1.0400731923263313 0.2494612842237639 0.8229520149961698
Ni 5.390843509697286 8.421553171260411 7.608579732136529 -2.1015575033385874 -0.38394180663355815 0.020837248460325405
Ni 6.9664716643436035 2.7771558606437132 7.1751299143852085 0.6619911869076599 1.6162409557102682 -0.6587623955577171
Ni 1.7555784676246184 4.127335372181589 8.068618096694484 0.7242118834107786 0.3391691304035578 0.21712760508806475
Ni 1.554305413766152 7.262496095026483 11.562215290090704 -0.9512091822040714 0.04349689484137025 0.594429537807602
Ni 6.9524282881747945 1.247854282428448 4.98611267229328 0.5235169699574402 1.8954529888339036 -0.6445796762994319
Ni 6.838746882006187 5.719684899369665 3.4887887634825874 0.05989719057626459 0.20343133854789477 -1.3005136012694183
Ni 6.867643475171363 3.068772180458403 10.689442468040923 -0.6875242981817579 1.3938374469352446 1.750605264257172
Ni 3.3378970118349742 8.781969150470918 3.5628017732058153 -0.3849579066028983 0.9507857215134077 -0.5606179885747957
Ni 3.756483489579583 6.674993385579066 11.235050639040841 -0.7332691085170404 0.4613641505777796 -2.327148922923289
Ni 5.062950001902621 7.320372105986929 2.563189472086926 1.0255677996213046 0.3225657175189218 0.30892267281419056
Ni 3.247875841662439 2.87662824138333 9.770416691453503 0.5938119588282612 0.7974615840345493 -0.2050627035037307
Ni 7.323160535200002 1.614684569102689 2.6207433872636825 0.7263304724156782 -0.06427989302499251 -0.4961581183285132
Ni 7.3176757041406235 0.766315564172467 11.781223858072714 0.1268569444262654 -0.624401401579344 0.2408383184414433
Ni 6.448541644172853 6.496248631105425 5.567736673551554 2.6661722717776017 1.0154836759124253 -0.3786116526698963
Ni -0.05436148582357213 6.811617214282956 4.036901919405932 0.22775294601239485 -1.1221862568780028 -0.8487070124730868
Ni 2.367450023792224 6.077616139677432 6.629764695633558 -0.04431964785298174 -0.8008179021012918 0.6926263952950135
Ni 5.3791008176976804 8.25682418474555 12.0734098272877 -0.013603963936679795 -1.1375838223799957 -0.26859311995720836
Ni 3.517046686722394 8.323700472175913 1.0270401375104479 -0.2392612037623105 1.8513657687067018 -1.6426047904157774
Ni 2.1013620955189993 9.130071868007855 10.115953686004948 -0.6600433191526698 -0.8166844368199032 1.0796828362981534
P 3.1729747678498987 4.187254390684285 11.830884586001773 -0.5999697508995409 0.8820274810020874 -0.06470901014261114
Ni 5.707850180003289 6.396997116046053 9.236998465455686 -0.07496848308709024 0.9106515724966833 -0.693550963991812
P 7.821948863082992 1.0851038842990999 9.735908269462811 0.8120826763818336 0.3028227305640398 -1.416179819186187
Ni 5.80927354091839 2.0066567323779694 9.086696609229056 -1.0972352433596197 -1.945108961298134 -0.7366701637787894
P 8.496150554762618 5.949090719249133 1.9407007186152867 -0.4969698155965312 1.565888471399645 0.6750235946115859
P 4.059980542444031 7.954017337131862 9.39633832937261 -0.28668777267539014 -0.19278928545301638 -0.09429880798458598
P 8.742829911384455 2.3507102457771105 4.231598697635151 0.6221295748260318 0.7330693338014085 -0.12175381887174518
Ni 5.314801296536824 4.192877262793815 8.437672684823509 -0.08218068456481331 -0.5786833307169389 -0.8587199166243985
Ni 6.764747676387973 6.2756038165422785 11.249772256902729 0.427949836783392 -0.45424322326228217 1.2547127408852197
Ni 5.2202983936026826 0.5894067556658499 2.219053134057693 -0.04476547714114871 0.20340562751628194 -0.12512942021219742
Ni 0.3868471592199658 0.12195006507272028 11.755968787810549 -0.17487923794181495 -0.2407475584998499 0.9862661738082047
Ni 2.0915427754848457 5.553308622989654 13.241749704007523 0.7162121530347537 1.6159342231031268 -3.5739570642494516
Ni 7.120948802200501 0.6511377930202098 7.265305690533913 0.9260576226391084 -2.0518899609101307 1.41469063623517
Ni 2.2016351143494988 1.6848922472100567 11.790544389778985 0.4468896111106884 0.3995671718756409 -0.4708366088445891
Ni 1.7648088125114567 1.8176877374563951 4.120841921182433 -0.20242809409436105 -0.36462305170028814 -0.3649382689478618
Ni 7.885300502366138 3.956863877980399 2.2652932047639824 -0.4977066937625558 -0.3495162779658368 -0.4423809246070575
Ni 0.9224087025898124 7.646977230646842 0.5308377786336411 0.33251562964278214 -0.18479958237932043 -0.7795785331065412
Ni 3.0073439131407103 3.82340579069333 0.6811368740392683 0.9844820853245884 -1.5876780564709108 -0.45348397649875444
Ni 3.529553205866176 5.68784343046791 8.984452364202385 -0.8062480719779276 -0.36048768937567593 -0.5401031564508957
Ni 0.07990000037538181 8.829354041619803 8.511052546263373 -0.7564020949900779 1.1336263803941444 0.0401608884896018
Ni 4.55413069104191 5.572026989390282 4.287306543834541 0.5378285014841061 -0.46873113246581205 0.08741750748372042
Ni 5.098398943581684 4.798481755284514 10.67104343660298 -1.108486390793407 -1.7815857717990868 1.2689926478430016
Ni 9.058106467195218 0.055813677671172415 3.888256555781128 0.9129917905940858 0.7471913750250874 -0.13433165553675575
Ni 1.6518084088569323 7.01840270741083 9.0434198197327 0.9651856989888214 0.6394927486948278 0.5149978767428356
Ni 9.034731516036125 2.4050616085903385 11.14523837099087 0.904510492595952 -0.3839137816091001 0.29669733439259227
Ni 0.41990338936305993 3.1888034749340086 6.47754959045182 -0.7892821335475503 -0.7488170835539685 -0.8188763022648994
Ni 7.75100496604148 2.88357630757432 13.165002561217614 -0.8734855049693472 -1.2835702885468603 0.8938249878576476
Ni 2.8156417054261236 3.7289396987058963 5.577986681662182 0.25775694857365283 1.3792721475265601 0.04629399797053317
Ni 4.615172443419176 2.765008248230327 12.092629742837211 0.13439233357136207 0.5905793108235765 0.13854055141178076
Ni 2.731823179773757 3.7593547434227466 2.9268429740603326 1.1639610268219438 0.43760330071275605 0.6506245969419312
Ni 1.5766220502074115 4.884785019839619 10.531166440483839 0.18310985338172336 -0.6104228279120648 0.4762441530134056
Ni 9.050495803963496 4.941593513345554 13.22584277366166 -2.090939618613425 2.7463282126029025 0.6656917756876988
P 3.995441750129577 2.0311820256216624 3.367526142839625 -0.11724718925064324 -0.12997877788469875 -0.0018401385325323145
Ni 3.6465936109218196 7.901083195766864 5.77672346129252 1.919324396134862 0.04408310636214343 -0.4135825123181264
P 6.137627185546896 8.67310077558428 5.566551361067581 -1.037061402083201 -1.328423697416125 0.4124903076952122
Ni 8.644066141368953 7.850412927624359 5.997900194035587 -0.1260951265595764 -0.4854129639968673 0.8746389018475
P 3.2727968525832347 6.480373910337931 1.7689012695116333 -1.1265663882235695 -2.318805178944284 0.7859564116084271
P 5.992610460993758 8.27282774382652 0.6631933780668281 -0.018609901791703434 -0.13267200844614568 0.27615190614107277
P 9.091466387648646 1.0772171389670755 0.3494619617441013 0.12881046860821044 -0.1582493426946178 0.20356889256702362
Ni 4.933412280439873 5.116224644524662 1.6276503048066437 -0.9548398369781234 -1.6622395339275697 2.266869409306941
Ni 5.299119833239542 2.9118195064354437 1.1834848204688475 0.21087339664823682 -1.0110978881399038 -0.12355744773938722
Ni 8.681926200057339 3.4615081708778583 9.158594830063953 -1.2255196642610313 0.7773388451427451 -1.8581036016511678
Ni 9.131608725032882 5.528820140692668 6.722970932969936 0.2826879074873777 0.6135572597759884 -0.5435854585725413
Ni 2.4195191079096037 1.6376730053213553 6.372638392336209 -1.184827585858308 -1.6079776872602116 0.8481701661330103
Ni 1.2978987644769295 0.1845866517160781 1.9330366795108411 -0.3758520876468882 0.8698587068500374 0.37783029441918153
Ni 1.289064137267194 5.6552841481053635 1.7486708934750064 0.5000883066208548 -1.3104043780205687 3.065903994255565
Ni 4.722356717493959 1.2345471251937838 6.06096286738708 0.3635763556033287 -0.12717576121826485 -0.08695985112101152
Ni 5.807939144100253 3.5017517383655394 3.4827416452122573 -0.26602973010540637 -0.9668276054676188 -0.9401413544256841
Ni 6.071606752627478 4.416163262783206 12.90683910949679 0.23229788507059992 0.30120113580021673 -0.2740680270288506
Ni 3.281907561893275 0.6165934803564758 8.474349271575258 2.2433864956936524 1.7846289295007847 -1.344653014790794
Ni 8.494678116894328 7.442878936628596 10.250725924089464 0.011834787851398973 1.2782599320775405 1.0716442822643932
Ni 6.709632486430571 6.127909095616188 0.8527982820927696 1.2550960923665675 1.5516198772957728 -0.6029242055421744
Ni 2.0344489971419293 8.36695333455691 7.2900343642581635 -1.4218488445465063 0.6056300345091118 -1.5454363741928805
Ni 0.8510065092617951 3.078545486809173 13.068576286318022 2.4582972956360565 -1.1204615608774124 -0.2468287316969233
Ni 1.0702138563560246 1.9544588099471147 9.178474581833195 1.1285965312797208 -1.466356440040578 -0.7375949895859039
Ni 0.8182889398284076 4.363348756995005 4.1260948432775555 -1.2921014659463232 -0.6011064356071453 0.32209263453724524
Ni 6.235544303788134 8.74978718031212 9.888621242698765 0.1925684276914619 -0.07103315258842606 -0.4043134283113746
Ni 7.69221788415003 4.3247248711624415 5.225324008101887 0.18117792646633313 -0.8986257516804008 -0.3716172236299342
Ni 8.148784056159824 7.559017473489912 12.741115307147165 -0.3305289382300566 0.178770345466105 -0.46727871629000167
Ni 7.949029453853032 8.471339976681943 1.5445597156254125 0.8393949910435414 0.2316324835724591 -0.253772252894292
Ni 4.4810977727747625 6.264726181790291 13.177609390191174 0.5767542320150261 -0.18274758494629817 1.532175395417916
Ni 9.183797444727059 5.698178103755965 9.048254937582694 -1.946568576562796 -0.8732808451577089 -0.41550749725498115
Ni 2.426927310934434 6.18513171227258 4.27364876233249 -1.040564273030137 0.4678726411202588 -1.0018802261963777
Ni 2.86512482053732 1.3864014830977915 0.6612184707759852 0.6060887193130852 0.6977395481518629 -0.14935975351447178
P 8.536440135933683 4.7880090409463065 11.128442456282027 -0.6839700051715962 -0.06980493660827979 -0.7261993461544526
Ni 4.846363594213946 5.988644081486054 6.77842294308971 -2.268480462547803 -0.7592876440679891 1.8387920458067493
P 3.1385565326786375 8.90131944243244 12.28347425549352 -0.6250665459671687 -0.1482246114687641 0.33123881981288755
Ni 5.349670465805248 3.7040554987318077 5.626098589008534 -0.9207647496712852 0.16155963801477338 1.8684216957477242
P 1.6713642242951492 8.254348648579489 4.861710998169858 -1.181508548787404 0.06748785843932893 0.345729814340211
P 3.8091323461076008 2.7600847841082348 7.507561291635208 0.24240052072224058 0.7229895809679033 0.40820119340155514
P 7.138958557877014 4.893352767685727 7.420577944839688 0.1942357880915558 1.2718224039823127 -0.17050784834699667
Ni 5.543507708428854 1.0393938912253948 13.100391067283415 -0.3401299516549304 0.4216264656685254 2.246657196025124
