# total energy = -340865.07977902197 ev
CRYSTAL
PRIMVEC
9.26960123269767 0.00000000000000 0.00000000000000
0.00000000000000 9.26960123269767 0.00000000000000
0.00000000000000 0.00000000000000 13.56699838970443
PRIMCOORD
 96 1
Ni 4.0742400910860415 1.3572550358381126 9.4987172027962 1.3313418995041846 0.8085458668731688 -1.2060839241339227
Ni 3.469018546591394 1.7776685373775318 5.608800354512578 0.07865544502037422 -2.021182761634261 -2.254310341695008
Ni 8.269068426682518 1.630652659298086 8.551537282064846 2.66598046748177 0.407037512110757 0.6658871795279564
Ni 7.588104969212641 6.939362646181865 5.110647340897922 0.895527058150419 -1.2319708192030139 0.2221037181464175
Ni 5.692313901294984 0.5258756104981501 5.212264419199189 0.7600528043687877 0.6407734151794642 -0.029668216488394065
Ni 8.462070797268403 3.793278472890076 8.459105451783055 0.12836052555498537 2.1408840688523516 -0.5894721938023268
Ni 2.9838661489292226 4.9133429483059405 2.004144365550598 1.630808569111798 -1.0856593655965625 0.46162280355580504
Ni 8.112634633588652 1.4228745440931188 0.5211110353825867 -1.0229409035214188 -0.852248707077758 0.8823923205406738
Ni 7.953744396125865 8.689352153802448 9.243643727368223 -1.5618220146397555 -0.9985457625065061 1.0986377801341014
Ni 2.6389257419246612 0.5887207270564867 2.5003841334379158 0.5470497629720579 1.1027944826149525 0.5706630315156236
Ni 5.809741211730698 4.5103192189781875 11.25949652643724 -0.16719729591652494 0.7751145837979168 1.1237093783907488
Ni 6.140749407842862 2.989418640163118 8.152748833613165 -1.094915594087508 0.8222444474061839 -0.5775402182514311
Ni 0.2883671027481509 7.034301903640231 8.751934940641386 1.8790395804728866 -0.10612613963681722 0.14644926473589617
Ni 3.0757649771309645 6.236541468629306 3.816519217500466 -1.717230031230836 1.8810779510591542 0.5447177724047716
Ni 5.174931099592319 8.382166833268098 3.3393674127998563 -0.7652294634737208 -0.5023184815029542 -0.5171177512993159
Ni 3.1646419152788665 7.9770389044243295 9.56301115805213 -2.40001270096255 1.2636354972961463 -0.7437052162486999
Ni 7.3093587857493985 4.108500537831415 4.286248852366384 -1.2406626905500568 -0.18784736806670874 -0.022184506516839213
Ni 6.983458140004307 1.1201664410311778 2.813524245906579 -1.567437303944004 0.1994150182996501 -0.30293174533807826
Ni 6.219633715690031 3.9277433106845554 2.003085777071615 0.05092326921242842 0.2589190872025541 -0.591774102462626
Ni 5.085785343004044 6.481564842227918 4.946107281386622 1.83635001202416 -0.6315141013647253 1.3952101589130552
Ni 2.6744375848579756 6.262867136583003 13.19853213876954 1.7366614004825704 0.2279370369987429 -0.12104727972302376
Ni 1.2922195124708118 8.163255926791164 2.8700576908770032 -0.7131162877182493 -2.804125840337661 2.112441497240942
Ni 6.644135111443386 0.569549337457249 12.170289553863864 -0.3332455658302712 0.6010915232088099 0.22835047038707768
Ni 1.319796576612448 4.987156784191605 7.408381302621005 0.29468287506572477 0.5405384442161013 -0.285513806971947
P 2.6963972705559707 5.966119387216212 8.92496873590831 -1.0857879207546266 0.05435414927084833 0.5554367014841725
P 2.861711341783514 2.8267742141365138 3.3461370026965414 0.022761719176547894 -0.34183767837465645 -0.2787001264842232
P 8.210948025953758 9.12722958436467 4.901959877796384 0.09028197351570902 0.6956530979364794 1.0425476220087528
P 8.559967057570864 7.972626574161668 1.0349324562303892 1.4104125776851064 1.0649930954964628 0.004868898056527098
P 8.69005664350825 6.332092519779554 6.985240684352016 -0.6555413175172581 -0.807380642920474 0.091525616114823
P 8.219142353584417 4.333427415611854 12.072918879960337 -0.12465813700273369 -0.08826391464441573 0.04796727190789804
P 3.186842610613058 7.461732493433505 1.9059737250469297 -0.09321508800210397 0.5405024487718434 0.01271204825002972
P 8.181776590372673 2.9384636413104883 2.7081900574470597 0.5254722939115982 -0.6753213283576628 -0.2045880778601573
Ni 0.8358557158522301 2.133278255584454 4.294931687990408 1.2562721149525398 2.8351539132880594 1.1629942920333003
Ni 1.6648760276378913 6.603089316478961 10.972879524431928 0.9008394715022678 -0.2446579492978496 -1.194685452488994
Ni 4.638313875000949 2.348833566357432 12.065131487830795 -0.4161351035366511 -0.6547669012450789 -0.7052957632325659
Ni 7.317034015702096 2.7609415050494874 10.459694925199766 -0.8571890818021688 0.2614084292833111 0.003367888030968393
Ni 6.654535604205375 3.047909824947564 12.889937838823586 0.6004330636892047 -0.01174968433676041 1.6788470605772632
Ni 1.085034651754942 6.414443658547385 1.3138482733991077 -0.8696023678648572 -1.52191437981154 1.374747005962697
Ni 4.533576648871084 4.314396923953776 4.019738542740776 0.700852896969864 -1.3384078052120305 -0.08297515544165064
Ni 8.903832190813937 9.12986215116004 11.739876933302735 -0.13296151466210648 -0.07805406399094944 -1.3459385663714367
Ni 8.700725954710611 3.8637274434703905 0.7899971438450022 -0.47185039482108415 0.14698611107597265 -1.3329431825530333
Ni 1.8898585230266827 2.225390284618215 8.622437682232958 -1.2530736626199 -1.7163206320426894 1.1696871306724437
Ni 2.419486468168374 2.3924006929005213 12.979914151696596 0.18308285679852987 0.1543942306145857 -3.0273377039465927
Ni 4.025074125302096 8.950328511396943 0.2667272182981846 -0.25475929939790964 -0.7298176596333302 0.027769456803784436
Ni 5.312241705014187 8.303041515784734 8.865965869127017 2.5241249927641434 2.2229292562805654 -2.783357497442058
Ni 4.8596070690356665 6.115452665643694 2.0650595510990897 1.8747563797165 0.7788773932744586 -1.501457397508769
Ni 4.587655503392868 6.495728793155119 10.481049305926854 0.6397807122488918 -2.029176321362699 -0.4111826446273822
Ni 3.3645594085032933 4.5125253841095185 11.420427930126579 0.7126792001808306 0.7158105467209608 0.7948143762196892
Ni 6.339739940928075 8.194800380328639 1.1764217979598373 -0.019564552395488887 0.2281607229737748 -0.9166959789185503
Ni 2.1789681208463447 0.763841109596782 10.655588484459862 -1.6924438254250918 -2.2654766427244724 1.0498392705741597
Ni 4.071190392228025 2.453932306941591 1.0381017329463642 0.9180326954521029 0.6139048729233944 0.4294482757057894
Ni 3.398653002423609 3.1569110677178163 7.215662581837719 1.7105348785988475 1.9241066480148539 0.37232993342624265
Ni 9.125644482526614 4.004616115029628 5.6311994193165615 1.7754850582179873 1.0057168263336485 0.473425709728004
Ni 7.663513176537754 8.049814544954073 3.147299418034299 -0.01121026689352263 -0.7703480156472087 -1.6709288341714514
Ni 4.609587380286687 1.4289368634035828 3.236584218643456 0.7049913446182698 1.0696529628659772 0.5112402094726163
Ni 1.1652352429997948 4.4771896636026565 12.273344347341054 -0.9752903915229914 1.0246658566323255 0.5155658334311636
P 5.102322311887634 4.623380547158201 -0.002783661298061639 -0.2668023466053727 -0.1076006672998147 0.24552518239415133
P 0.6605638456861801 1.0918292695753855 13.098150698333844 0.9919830216873237 -0.5672156963969714 -0.03456359690748241
P 3.050755592574953 8.270820381345635 11.994719595656049 -0.6779163427783487 -1.1022427238765402 -0.6841798071895572
P 6.444792333505273 5.892249933722195 3.4845071235575316 1.0944733643437667 -0.0071620649660779885 -1.2952978613964337
P 6.377569184209425 1.1237537767699386 9.280382865525857 -1.9907884656131196 -0.23108021061341494 2.5795934581450926
P 5.634749676649753 0.9233588990738162 0.5769316480059546 1.653880877550229 2.090300956588161 0.31116364632956733
P 6.790743127061577 7.8614191662600845 11.13893979857154 1.7295792968248085 -0.7602461513265165 0.012082899306463061
P 3.973813229603524 0.0465028093039821 7.3707736028129265 0.5112692629383389 1.098303279612818 1.19818035301613
Ni 7.12143615672641 4.870433963461693 6.654219510797903 -1.1287734231772173 0.40952813974309465 0.46285436197006097
Ni 5.182152119076801 6.853359284465529 12.76232601733832 -0.19033876702999478 -0.45087867766542344 0.25674624792095135
Ni 7.587233626681779 6.414527084959914 12.604121730378553 -0.6349010155590872 0.2594680177274886 -1.8837161600129493
Ni 6.797009377602668 7.666720458619436 7.101727130246427 -0.021646374625182072 -1.4138311164483521 0.04903865059520587
Ni 7.8491740228210585 6.068576291403609 1.1617452380756517 -1.2248918008690455 -1.3575365556216814 2.5947274855730535
Ni 7.585528020025624 2.450187387979163 6.176959251761005 -0.6756234329791139 -0.9259606920499278 -0.4077180831175495
Ni 1.3358886046292144 2.2145911989963643 1.2942263811722114 -1.803080708448069 -2.251005702801807 3.2181215289338057
Ni 0.09860445784882078 2.463674658004737 11.52047103011146 0.6406224914238967 -0.5813585635562568 -0.24728047452236124
Ni 1.166950119257342 4.20732375827309 9.735487850275385 0.710146663566964 1.1985120253239359 0.5854820988063272
Ni 3.883703434470467 8.201771120575533 5.641497019503097 -1.368632922645159 1.2135396090810198 -0.44716600470052664
Ni 4.939223675392814 8.749178161187361 10.814200633880882 -1.3018785999377451 2.3978899981925927 5.044151389978881
Ni 2.262746778228566 4.2489720773280055 5.05035599952312 0.022563230012496625 0.03285792707028535 0.014436487140304169
Ni 9.354974420968322 0.2724298770746332 6.967074119543687 -2.207278694227502 1.4988294729676186 -2.8329250239575408
Ni 4.004736619847725 4.296228505225169 9.017617474862675 1.117807925304649 0.13750773927189222 1.531457286304969
Ni 6.6945988214222325 0.6074462488287622 7.331470492910226 -0.983569343702332 -0.6382547625226686 -1.6388952027746742
Ni 0.7316283177989332 4.308974207139371 2.7313492295651987 -0.4431322009507852 -0.3140957323746978 1.8956630479621805
Ni 0.509500859638923 7.16543895453493 12.749193773046066 -1.115876255499575 -0.002299594667454104 0.4347714876909157
Ni 1.929078206516855 8.51106991022729 7.436940017550071 2.7010713976476324 -1.1489388423814988 0.3191710900150761
Ni 1.7121139163322707 0.08621470862807756 4.876982936845246 0.7778607790844861 0.51959732318806 0.26725794608555264
Ni 9.23513701417065 0.6707733846594904 3.068733057514882 -1.002842847219963 -0.6504549041332862 -1.6981825276810818
Ni 4.582575761829972 6.602764880430236 7.825309434036977 -0.6232783437184943 -2.3853275881465503 -1.5254437331210373
Ni 0.8045031430635726 7.440421679832959 5.698179705055934 -0.5905546282332281 -1.1235635968415039 -0.2296920720166367
Ni 8.416334583999552 5.639931383827963 10.245444774302802 -0.7220305594887436 -0.16277319870690032 0.7427166270831853
Ni 1.7330168674715616 8.621915803674579 0.6723584864975476 -0.878511754539345 1.0426298973099142 -1.8287071507669215
P 6.431638769129816 4.934755727521799 9.335682526550986 -0.11880553487669863 -0.317695276800498 -1.8461561994813043
P 2.5300913519794674 2.7733256925093954 10.691622205951553 0.6896110055074575 0.6669994387555287 0.09214987996238323
P 5.454140763125167 2.9714078046581776 5.7254768272355285 0.21604465643653115 -0.16962287463888204 0.469400904839327
P 1.6616131279478557 4.142668288562867 0.7788485942506674 -0.971870567208165 1.2446065056891533 -3.3456505597264314
P 3.196853780116576 6.205886896825477 6.067867166897109 -0.9644945864590678 -1.104275180925537 0.26736696085959116
P 0.6733874122520759 0.0971454225896969 8.971204580692197 1.0883857633887901 0.2748090189599332 2.139496958696838
P 1.3917008746113295 2.6882863693378427 6.672399053048181 -1.2159140228504672 0.5664003995845277 -2.27408521032909
P 0.7121945984802978 5.978976324347119 4.116132200657569 0.28899919441738614 -0.1906061617587685 -0.5857803467730364
