# total energy = -381170.3164448093 ev
CRYSTAL
PRIMVEC
9.18372028534398 0.00000000000000 0.00000000000000

0.00000000000000 9.18372028534398 0.00000000000000

0.00000000000000 0.00000000000000 13.44130294227109

PRIMCOORD
 96 1
Ni 6.58920901349335 2.2364470856557057 0.27101709229087717 1.3484430779608454 -0.644983853716386 -0.2609798263863247
Ni 9.000256986919354 1.0525553517905335 3.698495335867753 0.27909350526789994 0.8333521272835712 -0.05457089326734473
Ni 6.199433562265337 8.573682368991594 5.849950764887702 -2.2722820956820797 0.19728331666862797 2.346366119281688
Ni 3.395542775076327 5.232185787084224 0.6363923174134357 1.2400060308026644 1.6423463945480685 -1.3088630016753782
Ni 1.771952887168112 6.397131506249726 1.7841451940586994 -1.9287089226735556 -1.1056964867530958 1.3952782931468293
Ni 8.578586475559517 5.99318557480766 1.771751763696506 -0.8476122367470112 -0.1776431738401973 -0.32350005640773316
Ni 3.1047494597828957 3.2369950301538344 12.942065804829305 0.6311919421386162 -0.7060156721177261 1.2856616238582503
Ni 6.71436475189718 1.8054642820489144 8.310381438383054 0.2962281080656576 0.9565110540329591 -0.9667232186792706
Ni 0.7717961691489973 6.528256662760578 5.694784465729834 1.070750052584898 0.970256685753826 1.581140255352393
Ni 8.028591842339045 4.050534880939225 0.35479374274885045 -0.038301980903992096 0.29602421958496755 -0.0729175140953325
Ni 0.31133362381368423 7.542727127028313 8.006459995114259 2.325086898187938 -1.4314231184985025 0.20353983910130108
Ni 4.541928195789074 1.3402996719893014 0.8529582144760951 -0.930205583369211 -0.4845557582028946 -0.022839623602334855
Ni 3.7673365022219585 6.76140376658051 9.564158527585153 -0.8017884935446772 2.516624827732356 -0.11455215891698337
Ni 2.8602880127201162 5.198472350359799 11.328410865395206 -0.1083894817496972 -0.2962067679094189 0.602493288652343
Ni 2.5906356212457062 0.6610533611715664 2.2604505750500477 -0.6160039215442681 -0.8937139162010803 0.2581292443114071
Ni 6.147123092207498 4.518711751212844 5.275402537435027 0.3876215694779905 -0.4155658612967424 0.88609573753419
Ni 1.0388716087452072 2.3234536504955865 12.306641451521223 -2.2572861364938803 -0.7223064388579495 -0.13396424489500797
Ni 7.595515150534713 6.174821192224079 7.0504870731792835 0.7687644732101728 0.48756960532855387 -2.054381874094049
Ni 0.3573238576542112 2.007937760518921 7.454626781116824 -1.3541501556479518 1.2881625359032332 0.963122902922522
Ni 7.255689953282223 2.5708998066118762 2.4256712110441736 0.5775178496539279 1.844228129220656 1.0502982124884492
Ni 0.2688671834003329 3.605234657595747 2.5381479053886897 -0.22128250779670275 0.7123904652958183 -1.6315043096272417
Ni 2.408145917853975 0.19660875477286177 12.928302163418547 1.3180467250571752 0.7983267602483219 -0.16070423199301354
Ni 4.717879090423576 8.491892157205234 3.4895904981664434 -0.1550467765969201 0.2704581981904052 -0.8041215125532281
Ni 1.7297445092913872 2.981118218926397 4.154411021349548 0.39426092917137906 -2.4552502812796164 0.5065592590571792
P 3.6219949468962307 6.377808959023305 3.2569484989555666 -0.018742056494193526 -0.476024837913748 -0.5428706918937037
Ni 2.8555032945143344 3.938851660016935 2.3328458411079724 -0.7410191847761044 -0.833813383190706 -0.44980549920590274
P 6.286495229426205 5.893027922692003 0.18568104614894645 1.7112990104583816 -0.3985893813434038 -0.010439193055452989
Ni 5.998603969704803 2.0106653254078215 4.471907839765729 2.0608044897909408 -0.46977654301119093 1.075355155457077
P 2.3258414177383946 6.154791498544981 7.1944033151354585 -0.05562787377694935 0.09284484914687881 1.1823061049880348
P 1.8192398622958874 2.022778652304993 0.8304737123969862 0.9279430125872792 0.7684574834927153 0.16690341882518997
P 3.7785039059421712 8.2561736117392 11.572975170123831 0.3233571030719657 0.6521155796651606 -0.5529856688405186
Ni 7.34110773453362 0.887049102099287 10.200483803841387 0.7744191003927888 0.6211304441375561 0.9080899824170943
Ni 8.146556727853955 5.7738140512347 9.394180724545738 -0.4144818842039443 -0.30045654432470836 0.8738454594119273
Ni 0.6033713331894254 8.91255245934696 11.249738526604746 1.039634562127016 0.43408680291906526 0.8603335409684216
Ni 9.222475463743354 7.890009505054498 2.948524277690043 0.785692359313763 0.11179516499713651 0.46054396866932945
Ni 5.055252234392105 6.277339060422051 6.629385034097638 1.4507267039231209 0.33453728805850125 1.9973756319123344
Ni 1.6362817891757593 3.395597877397315 8.850224387333524 1.6169246120408542 -0.1427237362551929 0.1619761567269017
Ni 3.990546820823741 3.9499823288564886 7.199336809607907 -0.9287757929012197 1.5195296816294475 0.8374496943917126
Ni 5.29798714206393 3.9716834596055532 0.9835378580091669 -0.34976233253837186 -0.4782159320277958 2.837555580751016
Ni 4.191945804034484 2.3036351823802743 9.033361542996863 0.13137642956317375 0.33666744702762663 -1.058683094118035
Ni 7.90994736153195 7.338150576640603 12.819870897806558 0.708243275896664 -0.9474088346213747 0.5013435191841946
Ni 6.217259163104919 8.105679989401104 11.11060792122637 -1.1488084874512214 -0.846020466779859 1.5992045690532717
Ni 2.235179732272984 7.8993493484619455 4.209964262997524 -0.0758575705602629 -0.21877233978033936 -0.7207198110971201
Ni 5.255126720055515 1.5259577588378364 12.083502765936727 -1.086876011612483 -0.36533524727596434 -1.8096133673602641
Ni 5.617158152666126 4.1627874925117245 12.361334178589772 0.5043830773414669 0.1571316841504068 -2.3324507947521766
Ni 0.71943610700227 8.285515597665253 0.6581127339748459 -1.242106622085435 0.18888635085418434 0.593829699440074
Ni 4.024655157515246 4.597269293501246 9.436856553778844 0.21338099356143894 -1.0260516812362588 -0.34358294320053734
Ni 7.316522915652855 0.3097512688293153 12.584889805069745 1.309090801415468 0.5445156836962944 0.41683135827272727
Ni 1.1985489512479515 4.6428113617977385 13.393760652523428 -0.6093437359152731 0.37928219637435967 0.7693715106665523
Ni 4.7487547576171245 6.457339975649162 12.306157469468546 -1.4400681957680102 -0.3386307414015846 -0.5217377665698305
Ni 8.087780918800204 6.239153151977441 4.614533769038769 0.4288075567979969 -0.13813920220830403 -0.789607378097453
Ni 8.49709932653859 2.894965740061829 9.50021871268282 1.0666787107290017 0.4620791743669332 0.481059572124178
Ni 2.1342598313836616 6.940201614466052 12.85359535499518 0.6290550983012715 0.32416622923682237 -0.39787692865741153
Ni 7.4327796292171415 8.665785898522854 1.4420102911848005 0.23135660420325319 0.1987007658414449 0.04117750267957424
Ni 5.217675509224079 1.980368232584646 6.714306894460143 -0.4744911748780408 -0.38490211366429844 -0.9203155779490085
Ni 8.40707131776454 3.3559425737263626 4.691350996355972 -0.18225110492585386 0.19566197901512108 0.16743743695178903
P 1.8541196314812225 0.8818704022984416 4.349309767427752 -1.3767990033957191 -0.511985315168757 0.5734624486376317
Ni 1.5184822106238123 5.862446134543723 9.211701123246188 0.8717281559586083 0.04499970463914186 1.017706394595357
P 0.5167385457602464 6.433655161344533 11.539842144513813 -0.7889319492969833 0.7933375345638466 -0.41186990050239386
Ni 5.754923138856018 6.035210278281092 10.276964907000563 1.0568285574077994 -2.1281445097984966 0.3450507859953154
P 5.996344774544299 0.8914416754540384 2.4814797601127263 0.02353022191145625 -0.920996148955801 -0.887319325528646
P 7.387237560920649 3.285062621495605 6.639707535562703 0.1523481467188344 -0.1693145993698439 0.9517113186514706
P 8.31951372971478 8.136206675228395 5.7228903229217245 1.121757139760384 -1.1373084572314218 0.2425419313961113
Ni 1.5947989251920418 4.136935320248239 6.128360751911122 0.4522619311661953 -0.030499197030121668 1.0304654940332383
Ni 4.984950856531721 4.589701908085576 3.194795835997275 0.10421323888482054 0.5408531472430427 0.8577845492943226
Ni 2.9883917252967986 -0.06263480826693596 8.975537167352169 -0.42288296378344586 -0.09735764941556782 -0.9567293406913523
Ni 3.5665160933815887 7.583392639917378 1.5011112039323797 0.8255434298724299 1.633614413991709 -0.837832274542112
Ni 4.358970122668946 2.1949274867913298 2.9959857435009467 -1.4560383459440214 0.6968373480525677 -0.3689211648550098
Ni 7.941098540330438 8.968031312861601 7.795942496152036 -1.3011723178993397 0.7249616170926095 1.579750574093718
Ni 2.5464711109739113 1.8815054850122044 6.677290073592494 1.2027759428066125 0.768368780433651 0.5368892774992884
Ni 5.918053560140669 6.810821364786484 4.492782435699975 -1.6931351950651616 -1.7238066560070893 -0.32266470499063143
Ni 1.5978203691262112 5.1419373690262224 4.014957149021377 -0.9184492141642312 2.031176382511863 -1.659307447882439
Ni 5.136721015972702 0.42288827265367 9.930515492393312 -1.4694990994346175 -0.699429534259776 -0.9724732337891703
Ni 1.0343715858645295 0.19866223460167715 6.357803143016635 0.043721095037034384 -2.35519888708197 -1.3200167042993525
Ni 3.606189764492871 7.999855981943859 6.094461804039371 -0.09053368451519891 0.5663718603394374 2.0263301101631552
Ni 0.11760488368445625 4.741527169847546 7.791197267942962 -1.1044960386870915 -1.1138432842299464 -1.342989511045442
Ni 3.370204891142062 5.809850969160781 5.348738216437811 0.060802475999353345 -1.5433812914360645 -1.2725081171954278
Ni 6.389187588307305 7.279650279191792 8.569691124208036 -1.391673092294074 1.8543107102676388 -0.5027206020373793
Ni 5.872226796519074 6.8226040777577275 2.070054606968571 0.5190586770757706 -0.8113265149420995 0.28405470592791726
Ni 5.391789659825651 8.279197198191973 0.16061408195953827 0.2793300467587383 0.8947462141203364 -0.5185714530267069
Ni 2.383900896619303 1.7826243699994337 10.402976568123739 -0.4052840197547601 -0.4205368321487725 0.9626734740899293
Ni 6.121794391993397 4.763512995921714 8.087093976531888 0.3854962956048716 -1.3484731598678326 0.17366979101474606
Ni 0.6036817429309905 4.371368144891222 11.11671050327578 -0.08971478815832937 -0.9820364519975734 -1.3343513757544698
Ni 7.657514445366256 5.303185127677121 11.656136511330772 -0.2722679977056343 -0.33142548190239696 0.343030413131177
Ni 7.152749633956677 8.716222889667105 3.799130541431972 0.42030543286425676 0.17193121105708453 -0.6037040211309925
Ni 9.076187985240669 1.3997550763352362 1.3038274457274164 -0.6065386623663103 -0.19135923787470915 -0.38216594568005796
Ni 8.129704601351824 8.0482174523309 10.04701098268188 1.2218869526044505 -2.0617987353834106 -0.7916161809973656
Ni 3.799571359999875 0.7367143581200398 4.911048541994776 0.9644575625735454 1.257358148927867 0.686996450702746
P 0.6837931706712526 0.5594107015052857 9.156443597387515 0.1106037157921966 -0.19510790628386399 -0.15804185466950202
Ni 7.913336154272706 0.9818131553622459 5.970586276226493 -0.30035858529426335 3.442055615420743 -1.975922090024249
P 5.017433674754082 0.08327246422093415 7.667053575501276 -0.5260402505999262 -0.9992006224816857 0.8053327592525099
Ni 6.333589346430522 3.482448318994396 10.077294299924807 -0.6491467268448239 -0.04384862175383415 1.1157276457368526
P 4.140507787392287 3.2120887810673078 11.15887571766773 -0.24941114771211886 -0.5013769435252914 -2.4308219730339236
P 7.2542848440970324 4.945506778424555 3.2499587695382526 -0.5655658194983744 -1.5175681870277027 -1.0601172554614
P 7.903463655095708 2.2070132625280072 11.755185688422555 0.5715161235445383 1.7462541863773282 0.4517219995023252
Ni 4.014002042124254 3.12959142282827 5.199284191222354 -0.9611400681645383 1.2312462823321633 -2.5245988470767684
