# total energy = -340896.18855769624 ev
CRYSTAL
PRIMVEC
9.04318949219799 0.00000000000000 0.00000000000000
0.00000000000000 9.04318949219799 0.00000000000000
0.00000000000000 0.00000000000000 13.23562192144074
PRIMCOORD
 96 1
Ni 6.25254241493538 2.0166492822850435 11.409582036016225 1.006025358713003 -0.2798918327994792 0.24827189190135304
Ni 4.600333658188616 0.3756875399703373 6.105407013380406 -0.518967660023861 -0.1501925338284123 0.16101379281363237
Ni 2.658435377990406 1.4995868522924338 4.832722821789733 0.9461232830407318 -0.04735946312057005 -0.12363483794454193
Ni 3.4439900959043928 4.512153520111103 4.920898438272635 -0.8665129303062561 0.9000324022199402 -0.6000312002650956
Ni 4.916067566591679 4.468122231802272 2.460104673627062 0.6758221792534812 0.3436677896048598 0.6856404508954838
Ni 7.4908624874926675 5.915321888947231 2.5507291857505545 -0.5466232169576005 0.6577964321000219 -0.20749496709430712
Ni 5.097672892493905 4.457695434632405 11.665744839755993 0.5472569938868576 0.9910702800650673 -0.5733313223764062
Ni 5.725288310692606 7.770287991180192 12.419486522315362 -0.5994097646310128 0.5322906023850122 0.8487532923299899
Ni 1.8092708671077777 6.30946024788173 0.4586551837818384 1.5757087999241763 0.9806837946244208 -0.779831786767928
Ni 2.5189170547148585 1.5534933032287535 0.1748265512634298 1.2223070708610044 -1.0091849873879073 1.5985738774478082
Ni 0.35123837359700505 0.2019099986563477 4.975508449330217 0.21476321862094624 0.06104364547588196 0.22619074373159756
Ni 8.685928986013984 1.9952350102137122 1.334137183930509 1.005682116440971 1.5731919470395939 0.49934808602072056
Ni 6.643859298833455 0.8810354226482501 4.9675007052765165 0.5872088516894468 -0.15820409127897916 -0.8887578577473856
Ni 0.9010796515528553 7.282218025824697 2.466961219693144 -0.13143633626683168 0.18536188264069367 0.002310136190415376
Ni 7.649054996506094 3.831572142654891 3.889750596178414 0.45809525001852075 -0.7098245043408549 -0.5930853650748819
Ni 7.605674817821054 3.806884236086169 12.616763695134654 0.4589324012078354 -0.28552254872269534 0.02657980737105745
Ni 7.7552491675084765 8.939391493452865 6.943499947701831 -0.3671105940088323 0.07754729955786 0.5834722674651499
Ni 6.850414783791763 0.7809960462285316 0.37370255993669826 -0.5604760636802928 -0.9075263966041404 -0.8201885933184198
Ni 1.8437977635471114 6.428134020006763 9.277323718432573 0.3056540293652478 0.4783748262031632 0.3006774020862628
Ni 0.23816504855549195 4.704447895670556 1.2718648786474036 -0.5408809151571846 -0.9531943309549002 1.0811712479182218
Ni 6.081092590526441 2.2370498899381186 7.014971889377742 1.401750274024418 -0.34087402890980645 0.11188823893157504
Ni 3.4774679823942862 4.168069213505496 0.35597067451547104 -1.1347316976431812 0.29474098199716975 0.545116550505087
Ni 6.142948004786536 5.672738338139183 4.682047915974319 -0.6757828413751137 0.8205986842726448 -0.3105782061397425
Ni 5.200792379161721 2.7869662263644894 9.376458775930361 0.28081074506932285 0.5908194518588407 -0.188321736599966
P 0.2348281117335658 5.445546295382404 12.451807784904105 0.05510542561457607 -0.07502041937094822 -1.0815024060053955
P 4.0458324248280535 6.207407857541793 12.810334969011874 0.08582239508245866 -0.6025282556553365 -0.5535772796779305
P 2.4883510751535836 8.414262538676628 1.333250951387016 -0.852942647820989 0.6733418360337887 0.172000116621807
P 6.521559207831477 7.724013991944973 5.604703712685532 -0.6860680253512056 0.01487948821499373 0.17551224354012354
P 4.6897346268107345 1.044171843207875 12.661446997386198 0.4415833684064266 0.08492045209347955 0.27008590245265096
P 3.922935483337602 6.198916302864858 8.232636413439199 0.5257779980774752 0.7243334965903074 -0.18026081396870244
P 4.707558752761999 1.1274777022961784 3.838806694030341 0.23410331371045487 -0.42772537947741174 0.48884795782034524
P 0.37067399586715066 5.447553883389091 3.480332864738964 0.48390526910308923 -0.45663820585702 0.26622102018060606
Ni 1.362546362862978 0.6454151275390725 2.7719888963794648 -0.09265972971926621 1.5484293953829331 -0.5767557746769228
Ni 1.827275856843428 6.562877539374514 4.883719174435278 0.9156762794047844 0.030922400610469324 -1.0829501941955157
Ni 5.908322460491482 5.4536218633552505 9.105551956487428 -0.1608438428946714 0.41028507251377727 0.2118182770600094
Ni 8.513764749656719 2.2736838494655522 10.092161187357616 0.28439486287615534 0.30438904660989513 0.658332249998834
Ni 2.2576321886012733 5.366110921279966 7.100937350415445 -0.2911398949094728 -0.6298495691781089 -0.6799264312298419
Ni 0.5701712716397859 8.819876704730435 8.91920709511536 -0.0751093795403287 0.5835177759911048 0.525613704585469
Ni 1.5842944057097303 1.1501308912905552 11.328646396822304 -1.1228987095639953 -0.4391318215421405 -0.5803116103489812
Ni 4.186074203241146 7.038956235825202 1.644816853878899 0.34769722247922696 -0.1239881075189026 -1.130546198806924
Ni 5.6850461186666665 7.821318707944771 8.079248550857992 -0.7661540321705193 -0.03668012902985295 -0.22872430878672867
Ni 5.099092673201337 3.034405969783308 4.791201922808184 1.4372656933222085 -0.5679330341789703 -0.13486927320778064
Ni 0.5391775492284374 7.50186804877257 6.820488157708293 0.7632139757055888 -0.6157336986020171 0.29885320439333046
Ni 4.96929577833655 4.8546010094680145 6.719831131464896 0.8671891304376743 0.0929482074939625 0.8526819379604347
Ni 8.114417513731896 6.9449794134581095 9.38958858235788 -0.0799296837471075 0.8331297268601201 -0.9531745334605585
Ni 4.502251227915956 0.3631790006421848 10.512008428923698 -0.15206429692982842 -0.5675172867977903 -0.41767030923425486
Ni 8.472853361628552 7.223518684602143 4.488238806220632 -1.4845117707933662 -0.42458529118653326 0.20466186852088622
Ni 7.324368330775911 6.126579832299581 7.02718833369411 -0.28996335810286833 0.3363092923572595 -0.4486220204207629
Ni 2.5302933867527533 5.093865709832574 2.5509281359133795 -1.266208400229645 -0.03837859977819842 0.21671905679573647
Ni 2.589580535274563 5.179504711739461 11.53337515755831 -1.5306535594567512 0.012002680887830942 -0.35319321259679176
Ni 1.1992896678867362 3.2228389035461147 3.951680164590107 -0.6634867976165799 0.501270242744098 -0.8507055309603542
Ni 3.4403818634058876 2.596869345785329 2.75127547147263 0.22792366726230426 0.3064960656505689 0.1631493510993964
Ni 1.0398039828149472 3.30742889550356 8.184961624193907 0.15957654614647354 0.4336651420006144 -0.2738677380925864
Ni 3.8520007071013174 2.8390097803216308 7.124099670962869 -1.9666046692780645 -0.3978440185369471 0.15106002403503016
Ni 3.9891406716121858 7.039164229177246 6.087618155867097 0.6797235711904164 -0.4113353681551626 -0.5013386340881882
Ni 0.7327569619759549 7.363498210527875 11.400303723877212 0.6259258086436704 -0.6966812820906776 0.27916575326673215
P 0.21327547886717918 5.601396618388029 7.995241844605191 0.02882695153402132 -0.18464454485869491 0.10145290253086398
P 8.607732528834593 1.5690475886859703 7.997148148892622 -0.379632637735243 0.3788579643527475 0.47831131995507953
P 1.839068175585411 3.296622284386482 10.36734362666344 -0.8166471558240647 0.5158093169005374 0.4397375734469395
P 4.083271228196006 6.226091086468892 3.6632494530779907 0.2614989321145883 -0.11041216860668081 1.0570226756964762
P 6.862686391562369 3.9979125651549188 10.417638227825565 0.3001827218380314 -0.5522176803262425 -0.3034112560776581
P 6.241473551330943 7.678065547521648 10.302396346009262 0.6108804842747738 0.6878816815211767 -1.2364753919415867
P 2.3419599280713586 8.48261096279619 5.809140378409755 0.1960540722472172 0.2975252296105263 -0.15628064900402117
P 6.925003008472649 3.908466380586702 1.6976932855631388 0.7257866840970661 -0.019329810676863485 -0.39050197634957906
Ni 5.42181696687093 2.9887921233610975 0.37786513993434767 0.23083955535751857 -1.0297643542011554 0.4470191947100172
Ni 1.534303655705373 1.1185068585906208 6.8959707538029695 -0.3831123687537273 1.0403030489489504 1.2663850350168255
Ni 6.7492395828061 0.7163688944727175 9.218902003119052 -0.17571458935891676 -0.11331134453134678 -0.32553559878052324
Ni 2.728755217359777 1.740144728715356 9.247464011949328 0.0025268801869117773 -1.0243292992285131 -0.7610480784025216
Ni 6.5373305298299575 1.8998384071391887 2.5157076268609244 -0.2247730374484645 0.5429974472795551 1.184965911208385
Ni 4.291409271267694 6.816593256111535 10.534654383366698 -0.933671173320308 -0.08736428564828179 -0.3060206686760471
Ni 8.245914528169914 7.096479962449246 0.27851485453314073 -0.13360223356989892 -0.2116169596824807 0.39592571846831165
Ni 7.614302020336278 3.9107181347023108 8.120556934892887 0.3120064539458368 -0.6415403752524759 0.32935574385756183
Ni 3.1864400669383834 8.399838651871825 12.388236877649106 -0.33956405184913135 -0.7409615920652916 0.5175093303107796
Ni -0.06860796365015533 4.831721740743156 10.152727947153958 0.9219744537086701 -0.7865418517982519 0.6263096743456504
Ni 8.54293807807822 2.5163307025981347 5.949226613968276 0.43701400386818934 -0.17543896710002688 0.16178949463739234
Ni 3.672855128666744 2.6551798298714537 11.507207785233309 -0.44535183430992326 -0.1616264866969668 -0.28081511594469705
Ni 1.0335913118212798 3.2389809963025864 12.5713252865833 0.006837334636807579 1.0775058832514928 -0.5131898769998194
Ni 2.994416987055509 8.48550478334637 8.06340578766468 0.5372901124821328 -0.7298351431348269 0.18161398556248723
Ni 5.730488144493711 7.986022313196103 3.3842426490513193 0.2733244639946067 -0.083457751505024 1.0071718136126202
Ni 3.2056025848941054 8.340804712648156 3.6307292403264224 0.40849429916194163 -0.1820976100671251 0.28873514212272205
Ni 3.5045704204845647 4.438469614352147 9.388992636188327 -0.07767225517149849 -0.388892208660298 -0.22335455983438307
Ni 7.264882232091276 6.068414039240966 11.469036483538593 -0.16548905497616662 -0.6666654524548776 0.09199124289733189
Ni 0.5269927560743363 8.985086728578048 0.26355832388332046 0.8530663178830469 0.05181698467129141 -0.06425161089021837
Ni 4.5898526018834325 0.6705714713093549 1.7083479711013323 -0.5199845313241497 -1.116776398716341 -0.9870207925860419
Ni 6.112987918902956 5.573272299915969 0.49513540909254344 -0.6967324470435872 0.6666803648532131 -0.2870047896951767
Ni 7.943284200945634 8.760707117668476 11.203873897887767 -0.20951354018623272 1.0196632612114116 0.5431036338401163
Ni 0.13741126018744781 5.063941796705872 5.63743463174591 -0.3049572604085393 -1.108198170129027 0.7521186371233756
Ni 8.025070804245093 8.877382344976041 2.441032587563533 0.08499141454073104 -0.3372204913176192 0.42179230182242844
P 8.456159634329701 1.6742017929281316 3.784077312875064 -0.2875298089607113 0.20047302725051927 -0.9858542830817666
P 1.7847728675126613 3.024349943371433 1.5421486223531264 -0.8064802425933917 0.6719529261060622 0.0020720520376803025
P 4.569333605544814 0.9979701894864093 8.318680550223108 1.33779485421838 -0.009391725627545117 -1.1640037071344211
P 8.581751446207509 1.5986459470007788 12.373161881220513 -0.8037453601607318 -0.4222530435089309 -0.7028781549300088
P 6.45854626535131 7.731393234347931 1.3399212077551808 -0.05399573749016508 -0.003975182597664122 0.23025540071927442
P 1.948961010978492 3.3703694924699725 6.019626937721699 -0.5673036281250875 -0.693744825170173 0.6861736976911343
P 6.991099678476601 4.08545063679786 5.9545602869698255 -0.9625019815090715 0.18084985370295306 0.725064718329377
P 2.3132206727323847 8.402325528907136 10.253887774717949 0.36073142995536583 0.2245750625050455 0.01129022820183862
