# total energy = -381173.79544391047 ev
CRYSTAL
PRIMVEC
9.19764646141808 0.00000000000000 0.00000000000000
0.00000000000000 9.19764646141808 0.00000000000000
0.00000000000000 0.00000000000000 13.46168530863289
PRIMCOORD
 96 1
Ni 2.3897877050279064 4.439345267588595 10.730767268809622 0.169062888370354 0.3193716360616564 -0.3939580532189796
Ni 6.57812000140532 8.268527862604598 2.793542312958725 0.1486881813687439 1.0772644566646479 -1.0637440535807101
Ni 7.734770039683953 3.225706611464353 11.635015491252368 0.8933231085205647 0.19589157852742392 1.011955865264825
Ni 2.0954354234086376 1.7087663636556754 13.35063962015428 -1.2588851270953545 1.5274018852886726 -1.4634626634325507
Ni 2.9638680102976704 7.2708683420921325 5.057218327239943 -0.33116194382836517 -1.5107118262275014 -0.5588305576570698
Ni 1.7195919936111757 3.33583923090969 1.9522271473082666 1.0124389755488306 1.787889088309295 -0.20401986406151315
Ni 4.225150475401939 0.89869928229648 12.646930444108103 0.2227871173666873 -1.4091936176763409 -0.24683567367545875
Ni 1.186137693025732 8.963456045516946 0.31679637866040034 0.08875473823790521 -1.9521764096678762 0.83969992387847
Ni 8.884144739564285 1.391659104542857 12.902836563268586 -0.10017840669381457 0.4706417192249637 0.7233857879650574
Ni 8.529759419100879 3.783543872977606 3.813156615717393 1.3291824299590207 -0.7768176825319525 -1.1488128583265957
Ni 7.617398872426399 5.733711667229767 9.860657950959766 0.5062031612693412 0.9216556369166709 0.4589390860760548
Ni 1.544947081465856 5.739579765710318 6.400600824722112 -0.467263289671034 1.309100571607481 -1.374393222167704
Ni 3.9816335861055685 5.067599710868468 1.2953395106431196 0.09440936542052128 0.9724079277688736 -1.9959288721634787
Ni 8.683994753615565 3.6011821354009657 0.9128305464117143 -0.36325805303196146 -0.4735722626081973 -0.15653673087888528
Ni 5.0586504008033 6.459783081263035 5.7580477201603175 1.0242614221050552 -0.16773594202881434 -1.0821505811123557
Ni 8.204383475765464 5.054290716352232 5.764078616984295 0.5258777568801329 1.5626928472804829 0.34171966473955345
Ni 6.924071080008748 3.5222663282487194 9.442119965775358 -1.030417414404122 -0.2924102769814641 -0.327480638322036
Ni 4.068496159852167 8.981786955033778 6.079902804407401 -0.5444724891631848 -0.8817852830842943 -0.48767733455101164
Ni 7.4047492848553125 6.022297024480218 2.2174495626301134 0.9225113000487466 0.36842571327583 0.946591223816086
Ni 2.883820892623312 1.4832584662478938 2.6366056296607505 0.8049100698927943 0.06151955667103598 0.6892857609575548
Ni 6.358369830719835 4.776402222005984 3.971574120105288 1.1959455501483405 -0.1646948412096454 0.2796650615006538
Ni 6.2648573585383796 8.411808800112487 8.24631922531441 -1.3506999923158223 0.43836151903501924 1.2738713160915416
Ni 2.198816970307384 3.307492084331226 4.372839844887459 0.2885939885591675 0.5281017611146454 0.4798485825352123
Ni 3.119253050627512 1.8093886165980495 6.708859947881495 0.1622828893340431 1.1620794935285148 -0.1115514244174466
P 1.9277807226194608 9.134523073165502 9.258018033476898 -0.20367199380379114 0.38073924053586045 -0.1816219559822872
Ni 3.315852745019034 4.265868456551472 6.555140601336651 0.9748982982908954 0.4398519875376167 1.2258289679713341
P 2.4801545820990967 5.396663910458899 3.4076507758889294 0.5812330937219862 0.004004493173702781 -0.15706817790232303
Ni 2.0002305842672743 8.9622235608831 11.352024142616136 0.33741872337135437 -0.6578884775931959 1.1315589563421544
P 3.6038218599525615 9.217881343587507 1.3135968389877823 -0.5250146375488894 -0.5132055607291033 -1.1871683181763426
P 0.14699034834990524 6.9418041425017005 0.45507931504864696 0.29433500480800273 -0.5278256246351233 0.021920454222175152
P 3.6156040451462705 5.046987785014367 8.986240455479361 0.47111197399316285 1.138282133998601 -0.9613475561896542
Ni 1.4919226492709028 5.420173094967191 8.61849371391455 1.568439777066589 -0.7528372604569551 -0.4675119153467303
Ni 4.281899954437995 4.101635280268197 3.1669695210150577 -0.37684736168062194 -1.8144354713392556 2.0728763333538107
Ni 6.88865094325545 0.44547513255116733 12.161286429904722 -1.2708803517840177 -1.2199357424153505 0.7147743921469626
Ni 8.782694698435 2.154548697600652 8.451070793817706 -0.9459553900043 0.18533642871939693 -1.4254306483604935
Ni 2.945169194919988 1.6423133675397106 10.439456648894927 1.1647004760911297 0.8471394108756508 -0.2076919135964617
Ni 8.028837194261063 0.40130343513290845 4.1201372660103255 1.743620605409223 0.2923462565127481 0.29768849466126795
Ni 4.753242548065501 8.811326972055623 10.442054064272526 0.5211865220520507 0.7770596233394295 0.09430832106628274
Ni 0.28761224624850334 7.8733325845264455 2.506323725981331 -0.8619343097966381 1.0122816240353598 -0.39922701492740276
Ni 0.7801857673409883 6.5002619236030155 4.226309378863616 -0.1318903930851148 -1.9984300413187774 -0.343020385828848
Ni 8.990460335703307 8.020826044141064 11.729799078183056 -1.3186537625135548 0.8183309712843906 0.9715682054763977
Ni 0.7223003789595596 1.3951818031604921 2.0980172027871498 -1.814927837594642 -1.2790292061433972 -0.05281200159470904
Ni 4.482905321513192 3.102973216284916 8.97061181451047 -0.4484800955262599 -0.6149050320531345 -0.834829483160046
Ni 7.4567067900538015 0.45486225059074564 6.783585307278664 0.8343504866410986 0.3904289570197986 -1.2496996039413446
Ni 4.313319114954554 5.737390725838264 12.25874929126705 0.7520183641000856 -0.42785984817274697 1.314067685804769
Ni 5.847422171171867 2.229730260265274 6.597397348749188 -1.597705873020558 0.5218853478912883 -1.487566755569606
Ni 4.217930322882766 1.6879244966385438 4.536063119582702 -1.7136682820215068 1.7698142330854552 1.7385704445798251
Ni 5.469628840311902 6.605243860996459 9.624809139568155 -0.10557669489125043 -0.8736181738924697 0.2524548196344491
Ni 5.779074459872526 0.17522436387615803 4.832664225776414 2.787144989508948 -1.149321679642214 0.25485674420772236
Ni 7.615347797252163 1.3605526640080208 1.9059455097780351 0.6931262177495676 0.6156671070301397 0.1940000179316659
Ni 2.111117410727353 4.589358882350032 13.284286878385394 0.34226139617563633 -0.4684208003142449 0.7620343535751908
Ni 3.8615123225381645 0.18376713796508648 8.214805329038683 0.4541164678764308 1.2725939920410148 2.2268388757476165
Ni 0.12338366878848865 4.204888060115646 9.92453376652048 -0.500176752569603 -0.9486339652777275 0.2630593346231727
Ni 1.1598048310354194 3.441860502360033 6.6557665333376335 -1.269293466912872 0.28461263531391634 -1.1741279400526166
Ni 1.953764074041966 6.813423392358222 12.540340758102747 0.6254671238396969 0.7666867647455377 0.5033993732719588
Ni 4.156811961749121 8.740008420929922 3.341553728693337 -0.0032552737125040713 -0.5250583463026312 0.018119335308530087
P 8.171391517693774 4.374842172535134 7.843922190010126 1.276253186060157 -0.6356790313756924 0.28209861064281094
Ni 6.561757388244032 6.918368539165579 11.937042289128957 0.02099897084917029 0.9216612933436256 -0.800682404964692
P 5.9927817767935565 4.481203756906761 11.449688432437277 0.1764938907271025 0.6411655084115603 0.011025918796858429
Ni 5.781686591484559 0.3697757423873993 1.0015777179305145 -1.6407775073990518 -1.0325712275223313 -1.1730946136920957
P 0.6332873954562955 1.8665335944345185 4.298006873025992 -1.1789924672337695 -0.25556688290086954 0.47076821750049885
P 6.315885901438223 3.911152020813301 1.6791435035047153 -0.06612131710910547 0.02048809265102278 0.5231426173371571
P 5.089858015449869 3.959264909765911 5.474221225219957 -0.08588564422022629 -0.09824853666095337 -0.8266258643033313
Ni 0.8093698997528853 7.16825939750117 9.837167161744517 0.15279988954427232 0.390607905799824 0.8588014205946112
Ni 7.27648810411661 7.22208402494347 4.624277747367923 0.3553226002349687 -0.8206688753889478 0.8804097428930063
Ni 1.6907113835344798 2.8018974550586204 8.674831138386452 2.3666212699862985 -0.37431765328023275 1.1015834930259867
Ni 9.119365351698496 8.801559071450065 8.318379106749722 -0.4826104615510656 1.1849348008601335 0.8124935386670071
Ni 7.063259064814686 5.350151412000984 0.1057333851142276 -0.32461720073131195 -1.4320396690365789 -1.187643200930232
Ni 8.177931044370375 2.689125111061687 6.044471630478277 0.7002600005808715 -0.5312904432552721 0.08407713025657777
Ni 6.383976078634969 2.376000432892566 0.005192071461240419 -0.41526478511655573 1.2446993225132756 0.2616017762410398
Ni 2.0837452146801407 8.092586082299784 7.332539481781703 -1.2369289345392376 -0.24621243826916306 -0.5943200088129313
Ni 3.887955556286731 2.5395161927471848 0.8305815121601708 1.7636572123451237 1.5273615189690404 0.8163311672455424
Ni 7.599546240528671 1.1833048178971897 10.221188219064015 -0.9746877249419859 -1.2919430859915881 -1.330520946264786
Ni 7.770364931721155 8.418440303254302 0.6558207096686832 0.444165527311306 -0.6207545488553761 -0.5020492870019677
Ni 5.46702590634639 1.789779234214764 2.7331533251942144 -1.138284447991446 0.08021481908769411 -3.163850169184751
Ni 9.1632749161909 5.580672026762842 12.104208594887856 -0.8322151854656505 -0.5401147264151215 -0.010858797091374847
Ni 0.9667002423219695 1.0599183898147446 6.653303403599245 -0.8796201571121753 -0.29403007197307424 -0.7155395524477612
Ni 0.16928820281134926 7.9899035565366505 5.620441730556034 -0.4598068333929887 1.3378403627443345 2.00912763024194
Ni 3.2520118805151017 6.739078815527033 10.48887376412425 -1.3061340327799893 0.5978257079733446 -2.2875529057982216
Ni 5.519314526819644 7.055698599374225 0.810820368609285 -0.44175614653886497 0.6288424680698331 -0.5837872276024075
Ni 4.081050947353661 7.0089561597532795 7.7553985213017915 -0.2680094795395965 -1.0928990778781114 0.4176973058174484
Ni 3.9878144045678425 3.4970003932548708 12.013638449828546 0.37703993730740226 -1.446369969616322 0.9132355311737756
Ni 6.140863885785532 4.88400548865798 7.2253979369850745 -0.5243862599362712 -0.03870770098284301 0.8710519558271901
Ni 0.5195906879839776 1.7973213043621816 10.679289880759542 1.2534230755395188 -0.14834365354513163 0.03758747133547075
Ni 6.580778121249958 2.360318445573851 4.365530475197029 1.386212069179503 1.3703951567519046 1.5387877585281111
Ni 5.426777005169441 2.075274182234078 10.965135259111316 0.7849871057166222 -0.0021432715952479217 -0.609599560679821
Ni 1.9994671796060113 0.0911523560841046 4.445627260162603 -0.7964573111397509 0.682769814215908 0.119962017078645
Ni 5.162473434735065 6.507353309070893 3.1109549339360485 -1.513172114842536 0.13697834913098345 0.23332786899701105
P 6.229860313525059 1.611804774028755 8.453695802134868 0.35453352867477006 -1.3054650317374228 2.3976195181400257
Ni 0.6862888335349454 5.434466237661198 2.062963132365397 -0.1936997130824277 0.4279256684136759 -0.8142272335286622
P 7.495327707796492 7.94409007921435 9.964635505353089 0.5720252019704729 0.022942981949418552 1.2793238545656807
Ni 2.7046783313291054 7.178349215734971 2.040657000022084 -0.13978316556963022 0.23519834654684654 -0.3839973424618419
P 7.09524847941556 7.089555136218912 6.827201466847041 -1.5593002766591662 0.08709509114729516 -2.5649409983392406
P 4.020328085020429 7.823766467423479 12.18032095938043 0.0942440434872506 0.9171644339145365 0.8701145316145853
P 0.8832398780235785 3.5407535977564133 11.975717472986124 -1.531229486564879 -1.563968628669113 0.5399830859332636
Ni 8.832775883743157 6.628670266686059 7.77677569134646 0.9103116726587612 -1.5041411149885193 -0.13924400523670855
