# total energy = -340871.7420991435 ev
CRYSTAL
PRIMVEC
9.21233647595961 0.00000000000000 0.00000000000000

0.00000000000000 9.21233647595961 0.00000000000000

0.00000000000000 0.00000000000000 13.48318562980889

PRIMCOORD
 96 1
Ni 3.6842805163277497 4.338374831119382 2.48047502893824 -0.2262683910470684 0.527041438170931 -0.2828041213502678
Ni 2.6329594648315116 6.179911681243782 0.35079103344077217 0.388230406706583 -0.04886715801434809 1.0199885057613145
Ni 4.242465196020432 5.107282495468043 9.823255337952936 1.414048631775797 -0.4782848375925182 1.4611147320256643
Ni 7.194245201770633 1.4402014113494706 10.246210287980405 -1.7908006055291352 1.1822492836081704 0.14964900262011646
Ni 1.468031879857196 7.029224618394637 3.2321758912085397 0.9057258530602919 0.7885799652742032 0.6059372813368855
Ni 3.5018117676576015 8.387491509086143 3.767040462334371 0.20075610570857683 1.296792186553773 2.1081585535948726
Ni 2.291808220283981 2.003038320964828 10.008056650219958 -1.3778241022261237 0.07297639235772593 -0.6915431895331638
Ni 2.1877640920727095 7.227713620204452 5.699625597596937 0.6902368120169144 0.15169225830239036 0.02609849685926473
Ni 6.141781820550808 5.034062845120675 3.3650122558561053 -0.31728595717722125 -0.27098501722815266 -1.507616218021313
Ni 7.473332935448735 3.9791121330511015 1.0215578347948946 1.8776388434706177 0.19243550165802345 -0.4407865835367441
Ni 5.309391945514713 0.7259883099194514 6.518985543914949 -0.512341155846279 -0.12849345158842385 -1.483949984752625
Ni 6.575388074017084 1.8731351642526675 13.372623950224053 -0.37939146825871434 -1.105093048841142 0.291328356771195
Ni 7.897303084956361 8.667601812113585 9.16884964618826 1.0992054797121134 0.1473985160230429 -0.9121271286009454
Ni 3.971935722932757 5.565043495186308 4.611154878009254 0.9822192574323407 0.6635862993089217 -0.6199935023196355
Ni 5.49081048782608 2.695041400373902 2.062117956048209 -0.1907455155501102 -0.850119062329265 -1.4824057801939567
Ni 6.608663033384811 5.323818464443246 11.415579140371992 -0.1423910355061225 -0.3446291250768645 0.47661490608926305
Ni 7.499717067129014 1.0298102458141667 2.098954404699315 -0.10952822333983073 0.929348120464922 -1.6723069454659008
Ni 6.247880299797241 4.243017936209265 5.575863384382708 0.9623849963152329 0.843536781126057 1.7888596797526806
Ni 5.299608444172375 2.673162101232608 4.293693156721445 -3.3759378978560637 -0.1775668120763071 0.48976018522196935
Ni 6.052495855381369 0.5559460819279098 3.8111436020013305 -1.1614038076177287 -0.589566553288346 0.443283638926985
Ni 4.690074200937136 7.3729461048202385 6.038417562771801 0.20008864732790704 1.1219193763698614 0.005201855915913622
Ni 8.50768486314781 0.9349692417469592 4.221936425407186 -0.34274784889375165 0.48998078587320776 -0.26181157825900075
Ni 5.928276710277704 8.66060964872485 1.0008356051155576 -1.2835988277919508 -0.39616688794484034 1.3071593887207102
Ni 0.33070537621224066 5.276144623156427 8.449696889937373 -0.46155055555697283 -1.5562674033701134 -1.326934000244476
P 1.6105283005382611 3.1212777846557427 3.7462629586361507 0.04427439643734311 0.005350979899268204 -1.124226170126167
P 3.157113773565061 9.129241205490159 6.112696631814432 0.33362248955371576 -0.18641423516460798 -0.8654901454686965
P 2.067331217262549 4.530875814216844 9.87890061399637 -1.1665881800321456 -0.9724778617748606 -0.9096730106334979
P 4.1667950641692375 0.8711590718808185 2.496748621331122 0.11159436184024006 0.06072714267672767 -0.1834628658457679
P 0.9116942736288631 9.147435570039235 8.605265616084331 0.42166991731195125 0.7855872011944663 -0.5340739195376802
P 7.905962681248073 7.296787719135576 10.792939427259531 -0.36839563136884296 -1.5172442280293805 -0.022353170884219568
P 7.240638528286657 5.027678695939657 7.580219990697902 -0.4054747956093275 1.0603088026469158 -0.6298436556408379
P 4.23905663152263 3.6905817544804425 6.104782313543995 -0.8891705198047718 -0.2582894240383552 -1.017728248972228
Ni 2.136036822734451 2.5544335086713486 1.5104943023969708 0.38418040500692546 -0.7512578317849771 1.0440476035930473
Ni 5.630727454292591 7.4023703075390985 3.250243125514184 -0.011286885767728948 -0.7481781644183889 0.8473921503164051
Ni 7.952761350569239 9.014271246212962 13.53226452909541 1.1121432708197039 -0.1096945737143659 -0.5698695890800509
Ni 4.181746686277163 0.7746644534153533 0.1455714985982708 -0.08314330558839875 1.2150591310493397 0.019175030266554073
Ni 0.18981742948067878 7.352209135402533 7.203189459259594 -0.09507399558771368 0.7724336945316439 1.3148274467889292
Ni 6.856824953497724 7.553185468062096 7.432983822897597 -0.9685181057961643 1.3956935263073769 -1.3764357065190294
Ni 5.403578873691802 0.13108141454802205 8.879715859578125 -0.2211899480828965 0.45333228141223864 -0.4655108257563014
Ni 2.7733094111126095 6.015443838056618 8.273430807419576 -1.5619657393064714 1.3091111131304423 -0.6635078806625024
Ni 0.15130433559011375 1.7345447742393536 0.22683443992680338 -0.5177597557586889 0.1685581808197936 0.8236824654042911
Ni 3.0601078704249263 1.161776965897969 7.838490607630916 -0.30764817697714114 0.579021430782648 -0.810749559392707
Ni 0.10423390234277073 6.802988059105421 1.3801250014588946 -0.8305712221043244 0.13525391024070899 -2.0568964129857865
Ni 7.389233515717842 2.1590031775804492 5.805131723607672 -0.8336118087028611 -0.40353309850192437 -0.18424448120679882
Ni 5.425329200122368 7.792669367210334 10.573527366835101 -0.05002158333376547 0.26699466512183695 1.1598760581192928
Ni 6.495378931683553 6.307769699257261 9.282000169010551 0.9182219286447735 -1.5808075546033225 -0.39462319760680425
Ni 3.269799073395084 3.4599509106900066 11.527759604162881 0.5042385813438025 0.5491822359340284 -0.010205736888408229
Ni 4.926011350540366 5.3371395029941135 7.370421924624569 0.5785043819369133 0.8097938803476569 -0.01799489391552385
Ni 6.756226239130176 7.203374627222853 12.761902236816471 -0.44260641035430226 -1.1864499519530793 0.0908067356709275
Ni 1.5399710154337696 0.6016143975629139 3.404625302722448 -0.2043317388749771 0.44256115893866366 -0.6206586467074602
Ni 0.2763562759116193 7.09593114685026 12.268890231555403 -0.3333959753652065 -0.6547388762206209 0.5730832109213421
Ni 1.1745636889329651 1.938717787657665 5.624699822533371 -0.072712597173378 0.0837634556709009 -0.4982013740107871
Ni 5.554357184868876 3.104336297868021 7.74631933867577 -0.4918484352095658 -1.993371652959264 0.15084713669327568
Ni 7.088920558788566 6.334936879538388 5.525962000134894 0.888690751954876 -0.4753861758884844 -0.7109555326215046
Ni 3.0835072050855095 8.55861065921226 9.232058250482222 -0.702922377904383 -0.3646099390741656 0.20617290584877393
Ni 2.147718065391782 5.781855834255927 11.498702973669594 1.1462754366167227 0.8147370832855452 0.8644311080765629
P 4.598429877628678 7.198031472064137 8.469826766381011 0.6854810424994839 0.31967836866879784 -0.0939923324877607
P 6.999735929320413 8.41600369049343 5.223494277702819 -0.2566842843347644 0.8648208873158139 -0.20261295641165747
P 6.840565179609563 6.3955079918979685 1.4529208843281587 0.3215156789878527 0.25956674808888197 1.0177989543091632
P 3.8658096066768826 2.934304203446608 0.18825225351263425 0.39658392087760086 0.7001139619213104 0.18578714310357036
P 7.004535556626777 1.097456432590806 7.765897396164224 0.2872459591717053 0.1945039541512779 1.2987984183505246
P 4.852349508041931 2.437178889946976 9.838208802528154 0.3404580244183104 1.0406984846151561 -1.0209801802506222
P 1.019851710078698 3.3552527065886166 7.209189454009373 -0.5875469517551559 -0.04870594984613547 0.25997941014626835
P 0.3420015432046845 9.089950590400635 1.432884973716622 1.2484739590643597 -0.0530292598118377 1.8307480924563504
Ni 7.681771260657538 8.088219546179168 2.71280370634204 2.029853292825065 -0.3831676474716949 0.2173867722867224
Ni 8.758905278972263 2.8067870418829086 2.4777647595456638 2.4833840634013553 0.9480366980133608 1.1800000825626773
Ni 2.78295472740774 8.579495026013655 1.4573704428482617 -0.10247825847158479 -0.7540659906577336 1.3094013906773514
Ni 9.026542078405047 5.2063703866527815 10.674449434213118 -0.33570225490087996 0.028112184855183846 1.161910057830186
Ni 4.006868902866983 7.830918988277556 12.525474990912477 0.2714598999820422 -0.6528614566922498 0.38807639762722196
Ni 3.4401628119297962 1.9179900305764395 5.102725152611119 -1.5807857002264518 -1.6696828775794923 0.3472729904576148
Ni 1.6834255191088112 8.86493005952685 13.00675692813287 -1.2081150956313387 1.7730036865570304 0.8200772645515361
Ni 0.02517731560132859 8.121955122370922 4.828962149418772 -0.3114678078335475 -0.30439984524317254 0.1949721520369481
Ni 6.947677015868855 3.842299723978533 9.456472609615586 -1.1883556536162243 1.0638309568675612 3.5680694951204224
Ni 1.538764199354818 3.6476614788175845 13.011328089494516 -1.502983090124676 1.0290369891168276 0.09606309897386037
Ni 8.769232308166954 0.10566734189914348 11.288014995892242 0.8980395401596276 -0.41441503552175074 0.32192191328733594
Ni 0.9667702272777994 7.280491095901492 9.645344853373361 -0.41937032264449714 -0.03336777682716834 0.9501624861071118
Ni 8.01616986256483 3.1378968396666456 12.06304241536493 0.7709699655019239 1.0965143060331954 0.12036619449559915
Ni 2.971328583761917 3.5818301223276126 8.097286327743321 0.767117424525053 -0.35110624816077596 0.1876121121274511
Ni 8.91124968735103 0.6872301678785039 6.862577136396175 0.1639278811366338 -1.3861130817077936 0.6393960752159634
Ni 5.54071371454119 3.2248705083794675 11.77663271665209 0.43697003800413126 0.006529830698717787 -0.29976928844969664
Ni 4.065256691480675 0.858819147165129 10.944840722253584 0.73082913161698 -1.4769031052081725 1.5126514664523754
Ni 8.954943799278253 3.9251739029575123 4.8584370199882745 0.6152922401892242 0.14328629362688225 0.44795661892262206
Ni 8.100527227717176 3.0616463306171773 7.833474490417259 2.5318850963255364 -0.8471090718583475 -1.9783466403053411
Ni 5.485163325563506 4.658383763444063 0.6322187005849315 -2.2743505481753346 0.7461215389996763 -0.48086313984265566
Ni 2.3131716285823645 4.7900280517510465 5.994058320150681 -1.6402792276063947 -0.5996992708469736 0.47509358434873017
Ni 1.3780734141246773 5.019378380770686 2.192460541210491 -0.15774540647500573 -2.2388078751840346 0.033185228502717046
Ni -0.06850477653662627 2.8414899134051206 9.940640771855332 0.785292809882499 -0.10732273104807968 0.1568303508599041
Ni 8.4375144961755 5.8489584931802145 3.514487021421183 0.3350988169889261 0.15579085385179622 -0.30428774514534046
P 6.029612411563695 -0.044702862771843016 12.229991140766304 -0.9076611224097916 1.4434579381758497 0.5516291548126241
P 4.558006145152048 5.480686130033961 12.334054614884185 -0.9802528777345894 0.7517111172723119 -1.0224325964264327
P 2.3449449771037627 8.235414258465312 11.22955166611941 0.1653234759325798 -1.411903560408336 -1.6244921399754668
P 0.8299366298313252 1.7299293936626006 11.71137344625756 1.024668427735487 1.4666600873239255 -0.6649063036719258
P 8.938260257911987 5.055168307997602 13.164740207671377 0.7849696222151255 -0.27490852065227495 -0.26064841118883497
P 3.790765913706366 6.71434695748962 2.517553762038784 -1.7565018322472654 -2.2611299357200028 -1.0118915876857928
P 0.34015631220763143 6.0811001601534596 5.561490297005762 0.08190763340908475 -1.5739558217888119 -1.570493317161508
P 7.102711426499941 3.089955840621891 3.8211887336997163 4.119634886574646 0.644666065365651 -1.6559416167339998
