# total energy = -381170.5052229686 ev
CRYSTAL
PRIMVEC
9.22511610170686 0.00000000000000 0.00000000000000
0.00000000000000 9.22511610170686 0.00000000000000
0.00000000000000 0.00000000000000 13.50188990386964
PRIMCOORD
 96 1
Ni 4.026366502077443 0.3192120802006492 3.975010280692369 -0.4988197243210764 -0.15988122187108594 -0.9323097741964073
Ni 0.9764508649085502 8.264375617953405 7.060408481955641 -1.776286213963044 -1.5146088472890624 0.06360523555547111
Ni 4.774578769305355 8.901526712331506 6.008138232761184 0.23189987830123285 -1.5325885716959349 1.3266889741132053
Ni 2.773734111063928 6.361151138389337 12.81507557945177 -0.0678249300637735 1.1787523261985053 -1.1529109396553694
Ni 0.3514372557965427 9.225577365931919 9.343604423956485 -1.0906275082351151 -0.952082328837644 0.8498647802266137
Ni -0.22825520288963574 2.370504285890303 9.899747928748345 0.32785730493516435 -0.198045134535317 1.6216922086328265
Ni 1.105971495094725 2.211417158571173 0.3603846959117543 0.974026180098587 -0.6454042290832562 -1.0657034912999261
Ni 4.020720731018045 8.632217897728585 1.689991455748164 -0.923811506917409 -1.9214851512316067 0.3307490246606626
Ni 2.642276206494627 1.263019871753517 2.2007944373703623 0.4320569169732301 -1.4680754796142135 -0.41682055963944986
Ni 8.27558413402721 7.604272434693311 11.227496750200174 3.9911758877685837 -1.2310249103499766 -1.3599119978323935
Ni 4.183285727110693 2.786815325708088 9.153700796271478 0.3026640934989884 0.8833469711444594 0.2658880623212195
Ni 5.1186479248647405 3.7091701097468563 6.039800676274361 0.009370642581622571 -0.6173627495650077 -0.17751796111624266
Ni 8.112696258870708 6.143641350744776 4.881257089491246 -2.540892699140785 -0.13952656947413392 -0.48807894086480463
Ni 5.289690802662594 6.119499221884576 5.436441182207652 -0.5167451984512454 -0.12113778255430108 0.5677831388646672
Ni 7.056660317280096 8.311635887785583 9.452632381215626 -0.210931760689998 0.5861557278345841 -0.7124290318432376
Ni 1.5517383306521433 5.338925247342338 7.093663180509425 -0.6600358629535019 1.970419929259097 0.41516451209326566
Ni 2.4571096759321693 0.5705060880637146 6.890338853907406 0.9042922059375588 1.4775793053395907 -0.42943002087334425
Ni 4.279946493712598 2.5786413555669747 3.528246210083446 -1.987007401304133 1.2241981172361305 1.4517672293724935
Ni 0.03930360718719358 -0.013616271378546584 12.51933034961206 0.05423279320163563 1.4996643101640883 -0.298384235176712
Ni 6.234462618848971 8.190842217439588 4.361286187478805 0.6398555313508851 -0.43053071013669075 -1.1708125025261384
Ni 6.356658506843705 2.960478136481217 2.8249870111485684 2.601127218451811 2.2360233704603623 0.782385406427717
Ni 2.795902065076562 4.62816695152154 4.9952131037764165 2.5016867183652853 0.4658684662060364 1.4543527307114825
Ni 3.719363863048546 7.182878355898847 3.9807353877503138 -0.8781307170508426 0.2856948126345015 0.37793982341385235
Ni 4.650999113894103 1.5791277003831086 11.184006785322206 -0.20212778924512287 -1.668015002958766 0.19465410657589702
P 0.4141818830195675 3.2717243289207723 6.4090636239305 -1.556014406819043 0.2718985301813575 -1.0525119323103165
Ni 7.323865805409908 3.79700244023137 13.010218150575717 1.3825924701490448 -0.18660115436443347 -0.40036601362785246
P 6.155790828661813 8.147677899160307 2.0142662796700503 -0.6440132622730005 -0.14994287971145145 1.1540949326611414
Ni 2.3219524998027077 1.417660493107566 9.172171323747174 -0.318079142502478 0.23423058331693852 -0.14750495969392016
P 1.9236673368641097 5.012568314714397 3.155148381660327 1.4430139086598954 1.7030830503064924 -2.8423871978117043
P 3.0146387931637695 6.783624555768685 6.305895460424512 0.9092217820286923 0.2628734438646118 -0.7526773378403231
P 0.32463644847340345 1.282863096506399 3.3171847785998643 1.7425325145513668 -1.2626196544371222 -0.3106208864522199
Ni 6.855820314446534 6.056703856522945 2.631491123250278 -0.4559437508931567 0.2777081948845992 0.19840534608821314
Ni 3.547582975961882 3.524363358712694 1.5458314888068296 0.06923646569931946 -0.5662566749178118 0.35134278965161425
Ni 8.48578762971255 7.695859387434646 2.9750473623539397 0.24852463134210748 1.413914677301094 0.23055159180345455
Ni 1.6822368231459914 8.23916337562443 10.971770996557805 0.02165460215529819 -1.7589495224568092 0.2922557536814709
Ni 7.200323050463096 4.931728622241359 6.942131423284488 -1.0105034490890146 1.1431302061195217 -0.5007845613569311
Ni 7.502168849586432 2.5894900921124835 6.830174491660383 -0.4094510066482561 0.2266679404783322 -0.6322427520006337
Ni 8.832522843827762 4.281035057413592 8.488759962123233 0.506646676564663 -0.29064881420566724 -0.9833238033504291
Ni 5.170889757396386 6.825192928960915 13.578580321655439 -0.1624708369751331 -0.4740995958665771 0.30649786542278185
Ni 4.6343662295475445 0.6044904933018094 8.115702724210998 -0.37128169466738636 -0.08949932971341361 1.2086324015873895
Ni 2.6556710750865307 8.30476317628354 8.76660200912802 -0.6440718834250778 1.2246999965732135 -1.5107923017564497
Ni 6.193696830758322 3.1484675525733734 10.694657733725718 1.0341606834966381 1.887836609939226 0.47573121793272904
Ni 6.0145727512479965 5.64910132631312 9.25894830094869 2.2800774233567824 -0.9824717397627789 1.8768302315263936
Ni 0.940389886034066 6.989104792005641 4.923235057838766 1.7432807055713009 0.13387939849068556 0.18194360098776405
Ni 4.592373501014249 5.047300876869023 3.288574003495918 0.8418509087832018 -1.3289222343190983 1.4123753578384322
Ni 6.747941806654716 7.383681458267968 6.886274267749283 1.1596659989910156 1.340268512569853 -0.3795310791603722
Ni 4.3917364507351095 6.575755014459207 10.955136267188024 1.160868503939549 -0.9204814141029114 0.8132687262701348
Ni 7.412104041003268 1.5593582765591076 0.7203930070862156 -0.5201745358477686 0.5162572030712335 -2.1848738441697404
Ni 3.8095854986055824 8.69018852736462 12.066071797261609 0.7119770319074835 -0.35720207664586867 -0.08507960337916315
Ni 2.236813903222351 3.284030633811681 7.31957704893031 2.2651148885096792 -3.232880432410535 -0.25451273060474233
Ni 6.6557736715984435 5.758022272225381 11.643273655795182 -1.097143197866446 -0.4875168977137475 -0.5623871646600767
Ni 1.4060460719249168 3.0460134130543093 2.4206861499945576 0.09027785975065097 1.3516201901372464 2.711486936554001
Ni 1.7589159882533623 8.96735714089337 3.98251768018279 -0.29315024047128224 0.6331146130826257 0.26659074481519895
Ni 3.4010604567847444 1.6556684887488273 -0.2081453722811712 1.345437201254986 0.2630181969725922 0.6871008374910941
Ni 2.159848759515566 8.610142194877053 -0.05810531633124221 -1.168107959110782 0.7726648367058434 1.869111522725897
Ni 2.6608279149920913 6.309794917004263 9.502616827835125 -1.3172579106072928 -2.3074193057048458 0.4081055483639552
P 0.694600504953913 6.1242593817974 11.382430730246524 1.1960136843821143 -0.07157077025945094 -0.27687361479844574
Ni 5.450152472282133 0.037100649460095385 13.5243034285099 0.23602727020604514 1.8183461192475716 -0.1255323120775709
P 4.216311642784945 8.590631074304136 10.068723458025918 1.333362529478639 0.8808599430565475 -0.8458307193665562
Ni 8.392872260251357 2.6371562670535065 4.2525820317951295 -1.2754620576174291 1.0918474966851455 1.3383556118178563
P 3.567776755126949 4.325186463116657 10.79343750949812 -0.030837811316463015 0.5024046134588573 -0.036363626230698665
P 5.477781695031962 2.851105159879558 12.929544510192663 -0.9784505344185278 -1.3168940995099705 0.4084912138381481
P 4.006108147099606 1.7411115141608182 5.929435999690862 0.5758047236175632 0.6067093836162195 -0.28137355955132837
Ni 6.523319454489249 8.05817582265986 12.061035806377092 -3.3552942534637826 0.42186403560062824 -0.7388080360573985
Ni 3.949954865337266 4.439439526140573 13.036979289899584 0.8029591168140107 -0.0849785590249246 -1.0584884616087253
Ni 3.937427157659714 4.873638066095893 8.063260706659763 0.41285411879253414 1.007755196919916 -0.7129890181117655
Ni 8.521332002084867 4.603535891507502 10.805791784992799 0.24101855277304945 -0.3151524557739862 0.4352589688502955
Ni 9.194525625105232 5.718760178060684 2.1697131761721242 0.31930607293104357 -1.2421796414152155 0.3889634282178656
Ni 5.112236469168202 7.323911930990459 8.479781156613248 -2.8249016394324316 2.160709073998079 -1.1255394896209518
Ni 6.653412041874251 1.643002404329624 8.853188948937666 0.5698305083119992 -0.6317375302294411 -0.13805641268651062
Ni 7.75601636958878 6.183862856984926 0.047088682672529254 -1.9773433958518076 -1.1800841576360517 1.37270992092801
Ni 8.684616557234104 -0.00459318531123194 5.003854270036771 -0.2723656996257632 -0.2703707806829215 0.4661566868704165
Ni 1.5836295570448504 7.522353403635388 2.10590304803838 0.5430370422682389 -0.35443916918875085 0.04890726722366416
Ni 5.341785033336478 1.361839315525191 1.862450388868922 -1.6797757430391198 -0.6714482185555017 -0.596846631889527
Ni 7.60791635555681 8.419828049525147 0.534773523322751 0.7885653099861838 -0.1932615971037446 0.42214942805153105
Ni 5.93594708664139 1.4675314707989096 4.680065609733889 1.63195605245268 -0.02434500450326775 1.465165247945954
Ni 2.1285387154377973 2.1768783238548597 4.946957443915956 -0.9903154041769138 0.17790259814917103 -0.576266236635014
Ni 5.8036773718543975 4.563000731319606 1.2733852122148552 -0.3763012593691648 -0.15671208011448493 -1.9433647249135177
Ni 0.5678824650419947 4.5468383278946645 4.5976770202659605 -1.9571545796087582 -0.7203194903349078 0.6654351795922023
Ni 1.9939996220877136 1.2935826814263658 11.456489039867009 -0.9184582130252956 0.49904700984053413 0.26052396979582876
Ni 0.27898780642566495 0.3157591192406288 1.4137960919690342 0.403282415943699 -0.689002168278865 0.5150269302085582
Ni 7.447823690581677 0.7202481727632865 2.8460636339253744 -0.10132589003469647 -0.5869013477513569 0.9283325347162142
Ni 1.6089801761154778 4.811636060719734 0.6548873026114299 -0.22160620968470865 -0.7512202936788223 1.089982932672581
Ni 1.8940823894989345 3.8840229604981924 9.483160135447257 -0.2641404835024935 0.03238278720607972 0.8498028166404268
Ni 8.653057435021362 3.2651929467148024 1.5590769105177489 -1.872903899888794 1.493531457793473 0.11322804078892112
Ni 3.406226521806415 6.005080106770677 1.7160358035502727 -0.2667316412684374 0.7324219300253967 -0.8049797467884653
Ni 7.301162794662887 1.0431945799653148 11.125192980073706 0.4755422418503745 -0.49265550449189344 0.8699713211685016
Ni 0.5639783959041891 6.741105995617112 -0.05200843709405967 0.6103127846967619 1.6151603210515797 -0.22556288033961153
P 7.3226942156639225 0.4338129301019165 6.689794977300979 -0.648353027298935 -0.409770594771204 0.35126488522582733
Ni 0.048933705894554536 6.647148188035476 9.175357678851611 0.2611999128169308 0.19806287514712986 -0.4328411034374223
P 9.03810455634193 2.3216388458549635 12.197418077925976 -0.8495487916480916 -0.022777917126463997 -1.0085126439112309
Ni 9.432127715637648 1.62811306692788 7.81296301133659 0.5014453348693815 -0.5094774611452386 -1.6018018974668027
P 6.548808450301528 4.560491499737652 4.382159857701188 0.09035165041137988 -0.010907390941123151 0.5069510951789592
P 8.897892016584116 6.4910315481038054 6.879887719866243 -0.7691097723647334 -0.11822703666540928 0.5178353461916307
P 6.143650575860885 3.7436997193470596 8.59797611175102 0.09577590675074474 -1.150599003692741 -2.2612134965727444
Ni 1.682919481738141 3.773810498330512 12.117460306553067 -0.0637391900301741 0.26673729769539223 -1.5662229719209284
