# total energy = -340894.55114954355 ev
CRYSTAL
PRIMVEC
9.03157411772109 0.00000000000000 0.00000000000000
0.00000000000000 9.03157411772109 0.00000000000000
0.00000000000000 0.00000000000000 13.21862164679100
PRIMCOORD
 96 1
Ni 6.504124364755053 1.7282098071309873 11.113635778369831 0.4259693160182535 0.4379054053342072 1.3797069210711335
Ni 4.595310166171672 0.3179348977617652 6.033283107631019 -0.41985060471502533 0.08706346657841135 -0.3929344970504717
Ni 2.6435327686014927 1.5682606261227416 4.706291957592652 0.08325077770054048 -0.08234729204966464 0.5682068566656472
Ni 3.298096116629307 4.434204943651905 4.684851903341071 -0.03271523084483398 0.11636581508695443 0.8652114378860132
Ni 4.982258935856442 4.758212671978885 2.6414238960003957 -0.34656336598509996 -0.8896104355556679 -0.4711927066324272
Ni 7.0516996835212264 6.03962146648091 2.6639486423264582 1.1780419303950422 0.6206838435184407 -0.6052076022597126
Ni 5.213557553903939 4.214340298679307 11.67286273115174 0.7535684821960248 0.9450151375782178 -0.3077708185979344
Ni 5.888514196720947 7.610745101659532 12.428201288474199 -1.2245719556357815 0.7731505180930105 0.04392086975266629
Ni 2.0086492209924796 6.502227734150213 0.38721068533972375 -0.4068187112317316 -0.5148623796062359 -0.46056145217082617
Ni 2.790051998612603 1.8368867407883684 0.35514227444158836 -0.11628174001358037 -2.1357781150843542 1.199815317516392
Ni 0.43762944891840977 9.112677846058695 4.810335693629635 -0.03328267331252977 0.21523347338914545 0.07198086121367604
Ni 8.525192000422086 2.0851014975161837 1.542203631084521 0.05820694735803524 1.4047263259336067 -0.5437533516089732
Ni 6.748076218409131 0.8129446477360579 4.9168775631204245 -0.01816407250353646 -0.12044512736265062 -0.1821467181375057
Ni 0.719717125091252 7.293393643598113 2.281573461871648 -0.1263092994529115 0.7778378962663507 0.59153807519242
Ni 7.403262745064251 3.958575145829363 3.882256536605429 0.5915540160320198 -0.5044296143086862 0.2992923488132781
Ni 7.606418977565633 3.6818025511372294 12.76916218493616 0.17204742491997466 -0.2945378648474282 -0.1716234500086786
Ni 7.791801071827362 -0.3064042868417637 6.995968547934124 0.25379822103622096 0.37725025354599545 -0.7714713306183746
Ni 6.938335362797595 0.6088247462559307 0.4373286974939279 0.6753115581656499 1.1371978997954866 -1.3536837575344947
Ni 1.8319825959387084 6.655231634515017 9.255467939037716 0.1529814094274591 -0.3625504854419756 0.017199651707738118
Ni 0.05328719157915014 5.009669763883547 1.2505858377010692 -0.07786457368796267 -1.2391971617481239 0.11320927173584373
Ni 6.203959992603216 2.2109926118060725 6.996193434134412 0.8698430231207536 -0.5739262756479278 0.24337291193783894
Ni 3.208331299574482 4.2892120496989765 0.44487909361605626 1.3470670235489253 -0.04703961788730609 0.7048465915102894
Ni 5.813046361796898 5.694696612054829 4.799682048575014 -0.4045137172476388 0.06772748525396077 0.3112140399515285
Ni 5.2333457332144455 2.741624697169 9.268937628961812 0.02783681970661012 0.816426040952194 0.1742025235897645
P 0.379457981953079 5.5039678258023095 12.15009473025666 0.13100413382541956 0.5445658202079395 0.8570039623745562
P 4.219018654171247 5.894484067339041 12.687286448040043 -0.008890360511094366 1.327300125334643 -0.6180386925861098
P 2.482093377832301 8.595602153733227 1.2872693830709838 0.12441336798177928 0.04536402995709606 1.1728444453545026
P 6.209433126634329 7.717471215266219 5.734542111590242 -0.7138467381263706 0.7057084252899524 0.2718517361038222
P 5.003311535570177 0.911710331746999 12.481617631565964 -0.6014262808404094 0.24995725002357594 1.1368613423916742
P 3.8413543428758894 6.188642442575549 8.292900812358056 0.7891054987603701 1.26773357862492 -0.28605450996676546
P 4.500496699078248 1.0574528463675557 3.6187829350829532 0.524715875361548 0.497999028191994 0.5079815933260026
P 0.16513330466147713 5.530656127884713 3.4621817586709676 -0.8076518943039898 0.1643055761910267 0.2731138906456974
Ni 1.4008062068639118 1.1129157441976876 2.5658666484906907 0.26920041452390414 0.1205096620519989 0.09632458016536315
Ni 1.739029633152889 6.482502775859867 4.621415028553731 0.37172161041828244 0.5198058396544402 0.3221682249701871
Ni 5.717212326806583 5.419287785083319 9.284694113500883 0.3642301871372437 0.6627401492585425 0.4838723589826247
Ni 8.5753804588559 2.1748753461453174 10.005293623402101 0.48339696200810295 0.7899166818077556 0.9376661534123142
Ni 2.29224968586204 5.489661812097224 6.929743626157666 -0.7665610378009509 -1.134979294877613 0.38735751718332645
Ni 0.6916677647605175 9.062823555874308 9.125845881400876 0.5035808931551456 0.5043797349073572 -0.029207731912207765
Ni 1.5802635883790916 1.2661093076229761 11.357809808751904 -0.7644743304752512 -0.20430242829893847 0.15321306582229097
Ni 4.17742825447938 6.931146229647817 1.4457599648283637 0.3051092126053713 0.23124424699510499 0.31587442154167533
Ni 5.590219360451024 7.752793702387803 8.014093403974158 -0.7060241567581582 0.040172715564143716 0.5514162674708696
Ni 5.099660370296092 2.911734399274607 4.901465181562515 0.1816666931772936 -0.4706412050043314 -0.5908474768832985
Ni 0.712449417244988 7.413486487181774 6.82437766764188 -0.1138510190849007 0.513472955457877 -0.1758552287018391
Ni 4.820250555905799 4.486714516683071 7.183448676907781 0.5080893225484604 0.5139264980555278 -0.9559572384120182
Ni 8.38953775430442 7.194814010017932 9.28191780755837 -1.0027155776134795 -0.1840123105913347 0.12438611428826966
Ni 4.665241646044448 0.26630590322570447 10.45763550686949 0.622423966137999 -0.7260430230822463 -0.7211530419797967
Ni 7.958623280884579 7.188672539487971 4.625089976139967 0.9242036001495051 -0.08520995830944035 0.023813557479829953
Ni 7.205371920384879 6.174580281376801 6.934211545968212 0.2590147322401539 -0.761896799556062 0.5274548715592657
Ni 2.280508639260644 5.2275835888054525 2.471776610499398 -0.42713016909557405 -0.3122260261558107 0.5070685945934299
Ni 2.607514850258134 5.090520417095621 11.32916526767422 -0.41174237378559414 0.8118044830197825 0.4586063853269844
Ni 1.0287053453427535 3.418315402253291 4.009882616320032 -0.16230140127680434 -0.0775706965966277 -1.2928753679978702
Ni 3.4527437635183067 2.8923255460850688 2.7629030862404527 -0.2076623459101069 -0.5801182633912526 -0.7716669915689484
Ni 1.1064401054183024 3.0727402744769785 8.27997301689249 0.5935921295079712 1.3574820482346621 -0.13631577584632007
Ni 3.565042358473503 2.5164675496514644 6.895388420644552 0.18891977519528108 0.10006167861029218 0.4756360871157615
Ni 3.9763221893460883 6.914790048574642 6.040910272134772 0.6406317473952773 0.10984755435246243 -0.630515742007198
Ni 1.1862069697133235 7.567529018592086 11.650047168132938 -1.0822966197719166 -0.805387009529213 -1.7327831484740868
P 0.11877965267916663 5.709950941062335 7.988357029823898 0.6304967158438045 -1.0160215506937664 -0.4371587569761697
P 8.583255991653143 1.6145113181579325 7.919104724339142 -0.814138787579914 -0.768235083069264 -0.47598909957980606
P 2.0799805948831134 3.227505331831992 10.34963865075756 -2.3905093894578058 -0.8773881824578631 0.5845598441023738
P 3.8497085491114977 6.304282720024989 3.6755698617067503 0.12204846729402852 0.09539692614477119 0.28637049854528746
P 6.911502555526252 3.73222583050307 10.359301532110509 0.41030666978033203 0.8209414123240443 -0.41772327395937736
P 6.504892048571298 7.5344915197706195 10.368621213639726 -1.8179514549123144 -0.7215808735458347 -2.0479602868384212
P 2.3460236792964326 8.445560609741698 5.7106427596543865 -0.05848411227882185 0.7833966213010508 0.5664047704599019
P 6.777302392872298 3.8103579798482046 1.7109784665072927 0.33865208155782317 1.0279005615195396 -1.02596657772162
Ni 5.111699458849676 2.7940529860313865 0.5004621113844947 0.7254516693551506 -0.12108198961570116 0.33808232509728225
Ni 1.576361948277705 1.1329839023117656 6.97394686029706 -0.7837370353596051 -0.4653712148546437 -0.5459904684696081
Ni 7.129163496367512 0.3558160298850223 9.116632772448504 -1.415962303858742 0.5732343917872257 0.1629529188178742
Ni 3.047108666588701 1.6277154797973483 9.280305671544253 -0.6466985224146474 -0.9131884799859241 -0.9214401784717551
Ni 6.342368868885055 1.9227950756133503 2.600393453915672 -0.3684162001941333 0.07366467667400217 0.9973651119348436
Ni 3.9424628172625247 6.916298321484207 10.591869989505819 1.3108851743117294 -0.47818302190733136 -0.43965658369735894
Ni 8.345084345556675 7.041394657234924 0.25976162448157264 -0.5942822135964604 0.33649492600550435 -0.6209594657773305
Ni 7.634434921071424 4.005232258708448 8.25087870341423 0.24655439498961407 -0.35849097066062136 -0.3369888349227874
Ni 3.2209574404581365 8.331130563249632 12.494439757612119 1.7493701062984903 1.0334348610742075 0.032051372008589964
Ni 0.2791135787529655 4.888393784065437 10.020125274731958 0.2808521398302195 -1.1899852187998474 0.22401661889841418
Ni 8.510723418379444 2.6900905341631813 5.959760673813078 0.15662466260700122 -0.7741139104475443 0.2876259682189433
Ni 3.7353688183625207 2.5782344863491145 11.608421545301265 -0.03698917562983953 -0.7229682408116646 -0.7718803931313352
Ni 1.3579152604715823 3.5113044913363454 12.574174108239626 -2.4130929311852767 -0.4410699191051178 -0.8417807176668987
Ni 2.9636569199757026 8.333126541171868 7.915707046084185 0.9382585355806745 0.27135114231831975 0.20927185648907184
Ni 5.519673733525253 7.968214812800489 3.4190361218831304 0.13192690275000507 0.06484964948553348 0.8068021447091848
Ni 2.930908431532117 8.345725587332598 3.595214138766797 0.6994066514416406 0.20468089468427977 -0.9203690568947633
Ni 3.3125195408004062 4.333710616318267 9.140888871569558 0.7276481627858372 -0.41287520183845666 -1.006047727310506
Ni 7.353489739048641 5.713148118367638 11.298987165278913 -0.06393407964979958 0.12292829879582055 0.38840884126597625
Ni 0.6942715676337347 -0.03000469616858233 0.1973471239059836 -0.7645031268306576 1.214668066258508 0.5067914296726433
Ni 4.847435594575184 0.3642181034644673 1.4649403191878898 -1.7471808119566556 -0.2918106957242523 -0.13864468108981284
Ni 6.202514940713814 5.593886179620383 0.43344150791143504 -0.02749537720679136 -0.7413148616396523 0.10590399632368212
Ni 7.939575690667391 -0.327318703468573 11.286389925433044 1.8682766855294277 0.8251022285699532 1.5014658821492013
Ni 0.1841917327678351 5.000674315872016 5.743676645846129 -1.0189194410668516 0.4766444737756178 0.28184844230521783
Ni 7.967573571024566 8.958563062053914 2.8640124637845186 -0.027809823123416625 -0.2870798659074862 -0.7142809974503118
P 8.397476508121827 1.9125261756242833 3.8349861798307785 -0.12404621445034765 -1.3922873288393054 -0.25884581076245744
P 1.484808879509744 3.17277399152087 1.530465293955418 0.6992014774093701 0.014528275523162076 0.9614226324019636
P 4.917936063629411 0.9078990073886999 8.164349899434235 -0.31253610119706177 -0.5110404347569844 0.15032340297932176
P 8.46859112422905 1.6719430991873754 12.431730827714063 1.1869358904505622 -0.5169071779504065 -0.7738285179966414
P 6.55999368342908 7.857261922417298 1.3699778311183701 -0.05293695720834754 -2.156438985867815 1.4142448069470028
P 1.748792764980665 3.4278617762976564 6.064134965469763 0.8155248692941633 -0.5756214039621634 0.36605361349922766
P 6.751056637931025 4.119888094558232 6.109937691419239 -0.22077162959855526 0.45365546907961224 -0.4863012801390916
P 2.565572219168225 8.585649358844966 10.238814008729554 -0.7290129043438476 0.5924127644878894 0.04322975722291264
