# total energy = -340886.5616955364 ev
CRYSTAL
PRIMVEC
9.08087554818086 0.00000000000000 0.00000000000000
0.00000000000000 9.08087554818086 0.00000000000000
0.00000000000000 0.00000000000000 13.29077927373331
PRIMCOORD
 96 1
Ni 6.846598830173252 2.1130107891889915 11.411130933768844 -1.0817818849190273 1.8126683521365037 -1.4351039097841993
Ni 4.980124733532617 0.7575684172960184 5.764689685996671 -0.3320217207254992 -0.3597001604773741 0.6054094338578735
Ni 3.0664936497321005 2.247180726660057 4.716911012885065 -0.31490151610544476 -2.8952783893837815 0.5170097649665419
Ni 3.857646777467577 4.383347748712075 4.669648687567846 0.40106766768056734 2.2852867354718644 0.6457058194840751
Ni 4.019322687229665 3.0424565719327155 2.7422337426446677 -0.2746812351328172 -1.3697672933599183 -1.4346403398842196
Ni 5.40688956476038 4.9054980975842435 2.5269761262126624 0.2521869106850431 -0.12676284205056235 -0.20347530441195277
Ni 5.423444001038536 2.797009584460266 0.6543542767687845 0.050510864265358175 0.7674696656581492 -0.9888850994882904
Ni 5.61544095453774 8.25720388918377 12.290728157815195 0.29575322531176806 -0.7592431639832989 0.3299432409299156
Ni 2.3840840076965235 6.351563975939906 0.22170049769330624 -1.390310664728909 0.4772473974669394 0.48211938084726
Ni 0.622601178944414 0.37506831433916593 0.17086848016492823 0.15809147696051484 -0.030448546297844332 0.1977754258136981
Ni 8.26851866022194 8.634750374483062 6.8799583348970215 -0.023658777069520544 1.1967657320567906 -0.4707324791665571
Ni 8.856750541072243 2.5391399591224757 1.4068555654618349 0.44793425032511885 -0.2882705437814777 -0.5087575522600786
Ni 7.3486895247730954 0.6448093683914013 4.718651816743827 -0.8053137330891162 1.0931908980869172 1.0283204226657774
Ni 0.873525750598423 7.297228202563382 2.0051935528036133 0.5855124378236304 0.4450211904433819 0.877223888965857
Ni 7.652263197169558 4.170682722273166 3.2782369672943052 1.2434865331520972 -1.886304489565416 2.5578228992372205
Ni 7.934814642476645 4.323740881059955 12.457726368785526 0.09324902656383295 -0.653107768375101 -0.12949052539437053
Ni 8.258003006239436 7.044552838087415 8.72377564683442 -1.5390494968299302 1.6670631805684577 2.859106824559231
Ni 6.99763195369398 0.9465087480573032 0.17336662905144534 0.8061405998657858 -0.3093145089359705 1.3709410019530455
Ni 2.102740318848567 6.749923828189024 9.076020996446275 -0.29750234679239085 0.48134007947907426 -0.5772188303562704
Ni 0.22343857728937808 4.954979788906059 1.2870352276653396 0.842089507156569 0.24003921957891564 -1.0311566065629918
Ni 6.778692042192972 2.19571032357471 7.083613316533307 0.640727135322561 -0.24650220159543995 -0.3735671482674534
Ni 3.6385797337077124 4.30381743992212 13.327727831550952 0.1204402422666442 -0.7718595671957288 0.4951582163090892
Ni 6.518879109469814 5.877297084278225 4.649832400762475 -2.250103502702512 -1.0623273757388414 -0.9697686903738136
Ni 5.044081340612733 3.045580393150316 9.502521574193132 1.4302229275428142 2.366417381505608 -0.03499502801794618
P 0.6735013030400361 5.709527906966689 12.25976055573304 -2.4602266514482856 1.2742510680284633 0.537328679029552
P 4.304616556977785 6.215904774865101 12.541857049170936 0.530506513901396 0.6853092928083101 -0.6102497926693103
P 2.3820044871766672 8.965049063866147 1.3208124526682075 1.079949973916611 -1.3745266624217747 -0.6812487495856913
P 6.2431746443896765 8.036193538038539 5.735130527725127 1.5069503023025403 -0.6011966813281066 -0.39965921736881493
P 4.988361087731348 1.1918013606439988 12.362950177896067 -1.0071203915493945 1.7856445152494926 0.04595049858818538
P 4.497784943433589 6.530048586497863 7.897155343140858 -2.197712904915938 0.8302549764154862 0.2247272718121936
P 4.978517418545653 1.1635598374267389 3.5448106119259037 0.055553311785272064 0.2599079334783846 -0.41187118605397455
P 0.4301129500734882 5.535538329846849 3.3548850061584865 -0.5640432122062609 3.2344788872459067 0.878905647543654
Ni 0.8107569220510455 0.34824704007083834 4.95873654715525 -0.32846228550901496 -0.6172779031606853 -0.7563589004569684
Ni 2.0825626131930197 6.6738079286369105 4.448809056884507 -1.857564441318246 -1.056336448262729 0.2726040408888144
Ni 5.859870883939343 5.926097709927599 9.407785339156455 1.7773305960671586 -0.30609214534393087 0.8190848187312797
Ni 8.746299850753422 2.6463487768404725 9.76280852862431 1.0581981840618162 -0.445857056081116 0.47123204451079487
Ni 2.6601789504288607 5.701346038021753 6.766800635552135 -0.5882316365270064 -1.245555499865984 0.5531936710862666
Ni 0.8168011528720771 0.1682304857936697 9.266119138850712 -1.2746693865128047 0.0960031922702024 -1.2509437607610907
Ni 1.781222836202167 1.4541115341661108 11.24102252289436 -2.5473615946945807 -1.062798401837989 -0.633606979338012
Ni 4.32375904281122 7.08927615057777 1.5545560076254141 0.5894973906133074 0.5628196242118049 -0.5448890078753131
Ni 6.053257211410329 8.166249838848055 7.9193108635091765 -0.8051463542733166 0.09604844368584102 0.11389447072832644
Ni 5.735844284549846 2.8862019449232648 4.773224246945255 -0.12680063726703325 0.055661812338678326 -0.37405411520620097
Ni 1.4398908829255228 7.89725614086038 6.7508518936786714 1.0582128393498358 0.9231365923375715 0.12030371668877991
Ni 5.482061053246707 4.787464876112235 7.335460505151583 0.005434283641693867 -1.6390828933054482 -1.3479892782528786
Ni 0.6326291899054493 7.590159088718484 10.973691533235007 0.38610744682630926 -1.085766323488072 0.951323853405065
Ni 5.2755891839892035 0.9016537628702759 10.013751262029585 -1.3451286688756317 -2.7614995210267024 1.0703484462711053
Ni 8.250656577852695 7.435293835680816 4.327730109725339 1.8628118057601144 -0.5427809603933749 0.9079807105327394
Ni 7.357280033121497 6.400164822325364 6.615113688985863 0.49393102877020734 -0.2666575934973924 1.2264516891569974
Ni 2.946653334009213 5.197884131201392 2.2636062145042306 -1.789206778679454 0.026050160119832553 0.2971665607195269
Ni 2.4627788759282834 5.438309394449036 11.244836490660035 0.6444315807573417 -0.10369747559066657 -0.7521386917280337
Ni 1.1922190809230966 3.6160500812633325 3.4324901693143395 0.5730847535832387 -0.7006140414861804 0.9681152139307907
Ni 1.7038356140614954 1.299500545646154 2.791223250507199 0.1838315620390963 0.41229053297958024 -0.7617731294940041
Ni 1.2113615667565318 3.660991334768869 7.819868918719708 -1.1735720675491466 0.46596693945711365 0.12876470297193954
Ni 3.457625124977701 3.1373244796660638 7.262533809121624 1.7045568066385417 0.8091462194613289 0.060318080163767086
Ni 4.019813054513823 7.29594779909919 5.787363724363609 1.31396535589895 1.0438483430980474 -0.40579489795290763
Ni 8.396359227377111 7.493366035351033 0.20363318753476595 -0.31571989824168206 -0.3649899481214036 -0.2889205186606508
P 0.43857814233816006 6.224667819850521 7.46198888577785 1.6709236919651287 -2.041377491414581 -0.42766598699438596
P 8.88412938110441 1.542659152459198 7.802219328840264 -0.4370176034126151 0.16764672474911774 0.11126860306970514
P 1.9075014927485388 3.5989689541984884 9.869054773525255 0.44219554806912875 -0.26910656925851717 1.0240539340799395
P 4.0791202532700686 6.323358776225176 3.656200264785131 1.6036944865038252 0.6815986767259422 0.47960201374204503
P 7.060816686345329 4.004230271928352 9.994972011221451 -0.5346493324251759 0.7288902627230543 0.7646473657180057
P 6.639482218745836 7.985113612605392 10.153570412231664 -0.6993680848942214 -0.24033309667025063 0.535605011470226
P 2.8554813426583165 0.09974070559777988 5.491776682085982 -0.39036545077171475 -0.3686188031232426 0.47117650868251115
P 7.172575022755238 4.143939543535278 1.2644265716029561 -1.1110454097698348 -0.25066687449609093 -1.4502983581364508
Ni 2.8215824339219724 1.76487726006356 -0.02010142630023358 0.7143136504604601 -0.7595380695158983 2.591075233532447
Ni 1.8032076361085936 1.3856871362747756 7.063118688318183 0.21505375327817158 -0.8181880179486232 -0.8049452940061039
Ni 7.385430747582431 0.6264941503280922 9.159327133324249 1.223597507537654 0.8578349429162839 -0.43076776584816134
Ni 3.008884574719143 1.6817872480256413 9.136852874221228 -0.6120035421356234 0.8528868548823892 0.9124289761120802
Ni 6.7445570306901805 1.9754446042313485 2.509379205411889 0.03789677504577344 0.21622643343003406 0.7418005430268192
Ni 4.233540543401742 7.3967636803718655 10.497589396607983 0.4802157360666439 -0.7998452537753773 -0.5862871112061259
Ni 7.276968769027142 6.44155545345857 11.488443692729327 1.03247635381568 -0.049649801816643524 -1.2928964510437926
Ni 7.843224930846651 4.377899223332539 7.899401043684789 0.09259313814738891 -0.25013542747265305 0.30087126326462377
Ni 2.9208727280883773 8.393562317682283 12.349419673203553 0.26567568920009726 0.5873788016084077 0.3975082324640831
Ni 0.12255912988727526 5.101908356640871 9.726949966926458 0.8348608506186138 0.03307724216994303 1.3300661181155546
Ni -0.08311997892750633 2.459055716918934 5.7452448070046716 -0.09813129435679875 0.8727100602559035 0.6840052292849059
Ni 3.485666868931044 2.848125833395943 11.416446878364143 1.8830818688630602 1.7157166799101031 -1.260681556874145
Ni 1.1800870310779972 3.6160410003877 12.616033273687934 0.637617900269618 -0.8923167787432376 -0.17817050709857704
Ni 3.621671143279887 8.759685061435814 8.131019673743976 0.2810881671004256 -1.2164444414326405 -1.3297236471744713
Ni 6.096382289789354 8.062137599720762 3.498797815095725 -1.8565745666011508 0.07575035555843727 -0.7912798807038695
Ni 3.216818464953489 8.377852402837956 3.388457911459622 0.5995586315040512 1.4387489627359544 -0.28367726798384046
Ni 3.670953055337787 4.904408392508336 9.2914511495153 -0.28934012269657267 -0.13469418108249706 -0.8000319158648866
Ni 5.549177805046954 4.4055141661311525 11.769330613532965 -0.1253675043649325 0.28277121122980337 -0.6936543223388957
Ni 8.256159588486026 9.083690704005535 2.664083726950861 0.8225380673872028 0.06283853259277565 -1.9776347018399811
Ni 4.8803349912064204 0.5165329192058666 1.368910218543622 -1.2653013150343433 -0.24488343504509438 0.3464576936451711
Ni 6.318455103383595 6.081798403523464 0.2868412509559081 -0.9244403987506595 -0.40979630580281684 0.001388395707094383
Ni 8.049960145497499 9.15760903165457 11.536555988005754 0.4144240343828153 -1.526206836539307 -0.9503314075848083
Ni 0.21351408831055388 4.90264670263562 5.751983724811593 -0.08495850442026659 0.7177201050388479 -1.1167031222762445
Ni 7.477438179491524 6.216068230626487 2.344347004016006 0.5174802768450573 2.1647153669439945 -0.3381923683125853
P 8.874394682426304 1.9267983534677275 3.7017481207829226 -1.1956462737403666 -0.8188138244580802 -1.7949596220028312
P 2.0977095137481285 3.3889918669468164 1.3982832188646988 -0.0040356035219543404 -0.9680864175753844 -0.20420446926849345
P 4.923033268430715 1.6204731757545998 7.919430731067527 -0.470936367647247 -1.2330545391854957 -0.03325361984680724
P 8.783849271494056 1.9571103163292107 12.254457324363626 0.7676177612002392 0.9844905699650205 0.5875130131934269
P 6.516073118899353 8.17751920550806 1.2876999477616429 0.9295471238496056 -1.2589943989797092 -0.07269022857587482
P 2.081336694982624 3.7454525590273047 5.754575406717126 -0.8020607733694575 0.5713250905796547 0.22998234956354585
P 7.183163323742802 4.017833423625925 5.834546137975261 0.007649803235773922 0.9442977997962188 0.01882356046440629
P 2.6294492672882797 8.743139706033292 10.11372534613112 -0.07433264927530424 0.13441315950696853 1.0528340915364256
