# total energy = -340871.33192018536 ev
CRYSTAL
PRIMVEC
9.25628806426064 0.00000000000000 0.00000000000000
0.00000000000000 9.25628806426064 0.00000000000000
0.00000000000000 0.00000000000000 13.54751322198176
PRIMCOORD
 96 1
Ni 0.831633030693588 7.581482872974652 12.202109753014629 -2.628444675319841 0.5133387438728578 -2.2925555012191356
Ni 6.312482837625317 2.6432810883947626 8.239407778242384 0.580513441947142 -0.35906586932748485 1.4881943618512756
Ni 4.347261857399138 0.7271841532727629 8.601560039307934 2.369236339011642 -0.3648174270992814 2.7883950598659655
Ni 5.985245294227223 8.03934515012756 1.6663715459517123 -0.347891083657588 0.29116920548551145 0.35194339935009067
Ni 8.841060007320417 4.92603902238078 3.418999661237394 -0.4364077377427581 0.4364990119049837 -1.6062306226621177
Ni 1.963332697510335 7.897214850609053 3.0414847392724056 -0.14254941546085773 -1.7180628115447765 -3.260438544534462
Ni 1.503582137641585 3.300644136991652 1.0082522586397036 0.4537835100170443 -1.4277513260738701 -0.7635109381207174
Ni 4.833216968094127 0.049558165003066056 4.990212865855988 -0.5556902122558752 -1.6746211954213739 -0.9975368616260176
Ni 6.855336349566821 8.446501482587378 9.589010642323545 -0.49190268548626903 0.6388204052181514 0.5999334983449668
Ni 3.647560548300937 6.0827973115913085 0.9264100129684094 0.22387572244517573 -0.4563646404806592 0.1931109304584932
Ni 3.600001741467588 0.6864870326024266 11.912883155560706 -0.8021985844989022 -0.45415349176195335 -0.06909145548102294
Ni 6.351461065646966 7.842991516543316 12.47469909873592 -0.10380443348217608 0.6212392018012786 -0.30056838731222424
Ni 8.814466692405622 3.1160552452301387 12.87646364353898 0.8513161679611596 -0.7779471681507054 0.24851846069452038
Ni 0.21337502126152005 6.079659430019392 10.036796524552594 0.5710404694597004 -0.6655207973274732 1.0558096292249817
Ni 3.7282198403884825 4.435057747398033 11.684716586358414 -1.1714079700182922 0.3676885779994894 0.8560721945889063
Ni 5.776904767912503 3.0749850961605447 1.8843913724426944 -0.767295344863814 -0.8813026870209208 0.8774552882503727
Ni 1.4818946552728542 1.083013444126585 3.06599168691195 0.6131839355969697 0.1819644269233705 -0.74581712038538
Ni 3.1700101469490165 4.310338525274142 8.118279070164942 0.9497390254164482 0.08782579866573262 0.21488611735205573
Ni 8.368776433739647 0.9362827695601671 11.84029627208339 0.026925620746250403 -1.2951397385520147 -1.3578371175812356
Ni 1.984270420565422 4.840001827068211 2.5001261178142777 0.48408241811090175 3.0443532646679827 1.611325777796838
Ni 4.409602955885438 7.187748157857839 3.326957912014199 0.07758715165685993 1.1594641673928547 0.8627208102536755
Ni 6.654039858285223 3.8781809594050447 5.872900803293582 -1.3202910410066615 0.34392927079636254 0.6001906086610953
Ni 2.2021449233375865 8.477102770129427 5.004410160118539 -0.07470545923369071 0.5175214144956378 1.5841101366139945
Ni 2.40573697399923 8.02503492915357 13.548460883183656 1.856946348118273 1.1053257336772382 1.1317512748586187
P 6.859834905448683 7.466029194961346 3.911464719158131 -0.5695610567006966 -0.6205290631081313 0.1644251324880265
P 3.6430619924190752 3.7144372278203903 0.35479443787523757 -1.7042822128209163 1.2193454171295193 1.4002708612654144
P 7.305756571310227 0.9209312162061167 2.7743547521089797 -1.1296439987076285 -0.7086510528580441 -0.36256874027442076
P 2.6486219664684962 6.053075371392421 4.476639769184225 0.4075653595897691 0.41650020018555367 -1.0446538697184782
P 9.230388729433596 8.85980399016151 6.232952812652148 -0.16176378360577948 0.10693835112546744 -0.1006723156110976
P 5.760919158842594 6.209414072718865 0.3340649812961628 -0.3761274527954619 -0.28941442757793384 -1.143313011554289
P 0.9207220241013223 3.160429889052458 3.1889216685997006 -0.5569397683922601 -0.6034813635972253 0.8539952574552195
P 3.862463782681995 6.522193294537805 7.748296915230116 0.16068777693278133 -0.10006604948566637 -0.14127491962380828
Ni 6.421845878251246 1.305923367474332 5.886041955115557 1.5902309047997516 0.7056863138027654 1.3608021137468305
Ni 4.856737195451765 2.7026046370508423 4.354536373999046 1.0408326962001753 0.05462540065436399 0.969879247809749
Ni 7.956316248357387 6.861103016880402 0.6375592208000905 1.1259220697713512 -0.8329646620371655 -0.7090626864741659
Ni 4.529120144252937 5.78812338875369 9.835643505732248 -0.4255746516829961 0.31092170552209036 -0.3524002843818511
Ni 3.270190950054766 1.3771319896948377 0.6927572419735654 -1.0370650016276268 -0.5326906660369084 0.3029960229171105
Ni 3.2920450456043064 2.6772886898555894 2.6321328153410284 -0.2959594277853032 0.6405952377303871 0.07534900635496056
Ni 5.032458563479072 0.8353781247466774 2.8185063193947704 0.0585051953247444 -0.6471806042573887 -1.361487055628997
Ni 1.461021726232527 5.5574011584835326 13.27556052619152 0.7959664875462614 -0.4342973762679746 -0.03650657956646616
Ni 1.1850084796455962 1.6070489229244151 5.640764212244107 0.7398747867590162 -1.4356435843377535 -0.22888654539620581
Ni 8.446381150845681 5.224582073528314 12.1098504810276 0.2724847417021307 2.9128840182806868 0.5131194287732002
Ni 3.2919617390139018 0.3449392682303432 6.804237938270048 -2.048895911278813 0.5569341119653053 -1.414716347266783
Ni 7.645397540390822 3.5932909327960854 10.911424086554128 -1.7307607187274192 -2.130617653929337 -1.4860390060711697
Ni 1.5303328094493664 7.903083337088685 7.165699680264021 0.8490589964958667 -0.47661722008210816 1.7059575436408105
Ni 7.097360507268571 4.2938067952226895 0.5232959014007913 -0.5743165691078109 0.45481709348788124 -1.6469052175633443
Ni 4.444878668777983 5.06207868451191 5.663267173570022 -0.6823085583087733 -0.5754200865846348 0.19253217513688778
Ni 7.115243655342146 5.581069486446333 9.667667799355026 0.28299206899135776 0.6912593397441579 -0.7209980044591712
Ni 0.738429617348636 1.0054272395961967 0.2886462282074358 1.258354451402865 -1.0354706605573134 -0.5849565653201603
Ni 4.265010483806078 4.910553252853301 3.3319155797720703 0.6003261057976951 -0.7074943135457816 -0.8819467483628232
Ni 8.892608274205376 0.23639170656159925 4.1333601533605036 -0.9117378635823266 -0.08507317562125995 0.9135898291894008
Ni 5.355419701903049 0.6390929876923223 0.18601991385891242 0.8290912951246883 -2.1025615191230695 0.5528401444015898
Ni 7.7382288509652986 2.652139355841146 4.069117813355408 0.9866973478083524 -1.3457225937058888 -0.5382717596691117
Ni 0.5933447107571048 2.3679157819554257 10.401428545125862 -1.1016773382913738 -0.567280745306952 -0.7301323626602715
Ni 5.472872738086073 4.9186802735616855 7.825382354589293 1.132628021036617 -0.06929945772677099 -0.1368112274254999
Ni 8.889285266877005 7.4720272694704954 3.0004219952330704 -0.9368894231472896 -0.7315590678044691 -1.1858547415712417
P 3.1512754203957467 1.337663178418582 4.657160522447635 -0.21387464536840584 0.24424374457856649 -0.20662053490915383
P 2.6094215875391007 2.2496019110048855 8.20963030031656 0.5096350697690255 -2.048757585928736 0.4116762964343491
P 8.025303361500429 7.377446520497516 11.20879251477695 0.41711880760615905 -0.8060727227423279 -0.7881271940075008
P 6.493193344789093 4.2545508785663575 3.651596289791661 -1.263078853461728 0.2660076186182193 0.6579859224030087
P 1.3460956566251177 0.7829375517156033 11.662308964797072 1.127379371043168 -0.34209247469793985 -0.0528305135374703
P 5.323355920885003 8.671855065920333 6.964057929446633 0.3214393172239625 0.004928290539552804 1.0174374572046865
P 9.114657362785607 4.690022195476004 0.9447170990242675 -0.2275364591262146 1.0563770716926775 0.32768272703051304
P 0.5318431575763294 8.089310591794826 1.0028021563696616 -0.6209077866037886 0.3995306622107506 0.7581291049835137
Ni 8.524754139841004 2.2711598053440976 1.5942169311157206 -0.535033198127156 0.6870015929090684 1.0508615411910869
Ni 5.856305204856153 1.3694770396654137 11.147800983055209 1.0968148679927499 0.40386297103751734 -0.7001741257352844
Ni 1.8252381394825536 3.0130790432019148 12.266054040551833 1.4926004613387713 -0.7932472888428854 -0.1650152006635416
Ni 5.102158410784467 2.6825555176267404 12.913747045260282 0.6578380839712348 1.6976446528997409 -0.8300690856569254
Ni 8.754726610797519 6.754655706918642 5.3182658882112674 -0.11804217434811283 0.624343551758215 0.4750863852598785
Ni 3.543158877948008 2.4278965270469213 10.227220580157576 -1.084484628562171 -0.422487271006924 0.02349165536403696
Ni 4.48049686431997 2.5883820453179633 6.976006871397035 -0.8035900655297902 0.4093311932409402 -1.6526621746517793
Ni 0.054386244731418544 1.1530742866570685 8.16012767304043 -1.2347581521401638 -0.3093481903873833 -0.8453913178362924
Ni 8.577098447478722 3.450771869189024 8.6019117782452 -1.164455449959859 1.055173795413196 0.5066057960243985
Ni 7.435825927795674 8.043658580252966 7.2285600564971775 0.9941951988472942 0.4649757791884379 0.7476379756442026
Ni 0.22285993939350393 5.881704458641811 7.705581923814419 2.325453280388421 0.29493715716837593 0.7292417325252022
Ni -0.1045034895189794 8.122262976443858 9.207688609177055 0.6633718693052705 0.8856846181387006 -0.35706323707515925
Ni 5.912555665955075 5.336194392095173 11.76098839801797 0.982017940054812 0.004875325814430313 0.9293974856456187
Ni 1.7510304800074732 4.327731090093111 9.877843847545002 -0.05245281848307741 -0.02324225835739223 0.6011308610871777
Ni 7.821276265311116 9.261286218185974 0.728206973077178 -0.02866702891738934 0.04136442187939973 0.3613654639949389
Ni 2.198794147145747 5.580615928343018 6.511057054658241 -0.5981571231708344 0.9979554372206748 -0.6849660505362783
Ni 4.008676105130339 7.2218668347725385 11.92238010686686 0.43414053897513616 -0.07021939843787907 -0.6413256881385083
Ni 6.625280572019902 5.806756296140909 2.2888661583202583 -0.24408639306509575 0.7221786550308337 1.494689482657316
Ni 1.919448636942622 0.403455668588278 9.362265838930828 0.5762814061436656 0.18934966364384812 0.6418496789627784
Ni 8.877825982552427 4.296528143842581 5.587116619280945 1.5861942728365328 0.36940890312470576 1.39022890364838
Ni 6.024093934219354 6.696757626587267 5.990859232791728 0.2450531278537392 0.28540222109474717 -0.743643509772829
Ni 2.5508570544844877 3.635869856780789 5.1693923830138795 -0.5191131844627899 -0.49358418695374995 -0.9385130747936419
Ni 2.5585027482260885 7.306867325848959 9.468302169713256 -0.24427254093397285 0.295051314148737 -0.7203012355024627
Ni 1.105432173233314 3.3316156760466127 7.313489274157362 0.5116251036158609 0.993038973755664 -1.0565439362878448
P 7.625552059298821 5.539138502609224 7.307474538330132 -3.678762428192316 -0.6291486864563424 -0.9725549948696993
P 7.128841142153783 1.7979228341175837 13.27081852993992 -1.0055900709477972 1.2753371020037907 0.8742514366010944
P 2.2429373837724973 6.096885381657552 11.169883708913972 -0.25991796078071366 -0.6575272375990354 0.7024325827521579
P 3.569455991652474 8.474335140070421 1.708802369331252 1.735002781833225 0.9158966229457065 0.04336551146982855
P 7.577076879971018 1.4799600911178972 9.740512933262597 1.6015180476777968 0.2962016257030963 -0.9942378791597717
P 8.508046540320919 2.208041178680686 6.123543490587105 -1.6266089292081536 0.5873176093531691 1.3925256701023567
P 4.9264833241962735 8.828758400803967 10.530712042775159 -1.7405913316645958 -1.6481396041910776 0.26322697054928856
P 5.236550453683145 3.6229480789802135 10.241106863149284 1.882945600395512 1.503582928492204 -0.3193898908941016
