# total energy = -340863.423990668 ev
CRYSTAL
PRIMVEC
9.30377874053978 0.00000000000000 0.00000000000000
0.00000000000000 9.30377874053978 0.00000000000000
0.00000000000000 0.00000000000000 13.61702062714889
PRIMCOORD
 96 1
Ni 3.670322141400196 1.4378804108236733 2.3441698801840256 -0.7782428450142532 1.6876811139291257 -1.6589222966288784
Ni 0.18283041857014112 1.2775297826657805 3.377633632767648 -2.375542740845644 -1.5440726610761344 -0.2238844641959241
Ni 8.905735261584777 -0.07071430138537162 12.1738206201251 -0.5103076703560179 0.2332407085998435 0.049120154565418635
Ni 4.675381457211782 4.010924180636187 6.016776099287313 -0.1939305981463112 0.3441508998888654 0.3101136077984981
Ni 3.6651027214758223 5.568162770086933 10.117473372244842 0.8723470204895298 0.03300910793616896 -0.933665002672721
Ni 8.657659302826318 1.0730792428474056 5.9828963886730415 -0.10786729069764005 0.09996500513142784 0.8060405839528119
Ni 4.006402544124162 3.0364556896219983 3.8987568926678446 0.3727248548718161 1.7570466490071415 0.6504176231374476
Ni 8.147356337706952 1.2252704569702262 9.786443991048401 -0.3023905281226276 -2.395443850644946 1.3856888496861814
Ni 3.228364735575747 1.0809409359598754 10.004520845343135 0.12196542066191898 -1.2746480463565661 1.2284674340354456
Ni 3.2768188157292895 8.043479647055204 5.583209771590835 -0.39011399688254106 0.18356339597937418 -0.05350362834509496
Ni 7.060674970208149 3.308460967534627 10.993239004015381 -1.2166002502842144 -0.31733686501981473 1.0636365814685682
Ni 6.968874584479461 3.565291782173364 0.3676118395612112 -1.651405676536859 0.1168440402749536 1.0523391541778777
Ni 5.6399879426647646 -0.06685230279248845 1.8177630042855195 -1.217917169323425 0.12461854201404991 1.0245257315100356
Ni 0.32546665183319035 8.690408604312584 7.818157940184518 0.2143595554246244 1.976190770304603 -0.9017581266617954
Ni 2.7580680194310805 1.2923320947864192 6.6759618547770785 2.251294694797136 -1.6852524498829748 -3.0175299738275516
Ni 7.447693562033622 6.66202665484352 4.299942348519777 0.6673077140245669 0.0014871260684877615 -1.0264368324898192
Ni 2.062005806165473 1.292071588979142 4.484615845676403 0.7992500433935397 0.785050611964706 -0.2703242437157022
Ni 2.6971189643070685 5.523104569206824 5.680680810517216 1.349495944705392 0.5528144333699769 0.24488960569268148
Ni 9.34918127202224 5.366763869725233 9.658334678052583 0.25637420929351334 -0.23705134059518526 0.973374405447201
Ni 6.064268168709696 2.1782937377782092 2.77866193387422 -1.120151228725845 0.33524305587627423 -0.9417022711549008
Ni 3.3355070525972903 0.779080762155407 0.07674780195748612 0.4745004308494215 0.322779890412257 -1.1701131624662688
Ni 3.3746666576983384 5.149288039543002 1.1679629008807941 -0.7553782817112539 -0.08835184637253171 0.5737576112805474
Ni 1.7773473890422422 4.0810653692455485 4.208217323399623 0.3890148502810913 -1.031332984239856 -0.7127730454462177
Ni 5.884668022149791 7.019040559937968 8.162450788482895 -0.18797823721761822 0.28478669899793535 -0.5892873314850303
P 1.0219549781692727 3.8460798273027637 11.988179529970017 -0.06771951483416079 3.665590666697048 -0.017089094271802826
P 5.532296702692173 4.6954962270451075 8.594845770424508 -0.038586859134262574 0.24051615921533417 -1.5524621706914101
P 2.7763313372769725 6.959654539657618 8.542297097207298 -0.6323710500483819 -2.4176178156388235 0.6670338915378898
P 4.239480811406525 8.882494422064127 11.876547209284476 -0.3596999033670579 1.6241959488912865 -0.07955867356093396
P 5.846959806546429 8.532663034227461 6.014311528274894 -1.095886956861842 0.1423709809014645 0.8472502254219022
P 1.2751573190637928 2.812216012229394 2.449797542011829 0.8012045960167491 0.7700433399225964 -0.4012777268088444
P 1.841022451363833 7.028595540797739 13.524942362968783 -0.26424024230515136 -0.13118693926018696 0.38756654787033895
P 9.26088841091296 1.909879718494472 8.178791015244352 -0.13440621752843304 -0.2899880406932167 -2.0636620138443944
Ni 2.8738442432080937 6.3041195869812645 3.2255047539629973 1.4955307476116888 0.42643031481507204 2.3267707136482643
Ni 4.3202469154412615 7.9121288975145525 9.925555022512262 0.5227952613000675 1.478174001500796 -3.30884881751705
Ni 8.34044696357228 2.961904509846588 2.199311904536056 0.17475402521786032 1.2150295633629848 0.4086315960707543
Ni 8.980100365783562 7.545308809531887 0.4039077415379777 0.3103982289184525 -0.8997850620958245 -2.689674211554284
Ni 6.874506355793329 5.836530270476514 10.06696780885899 1.1257369503437389 0.31280632413931286 0.044352300863130065
Ni 5.406965498055389 7.051743342530076 11.69774253581465 0.8015437245237228 -1.036923076733124 1.031610920491591
Ni 2.1409390657704375 2.1384549568224736 12.043492355878014 0.20662336312263124 -1.9918796417947693 -1.6906882761865656
Ni 8.640698514016812 2.7379253382612614 12.546369044734215 0.16487173310714187 -0.9243648083177178 -0.2930175715481599
Ni 4.381707678400996 2.7861189126075265 12.106661292631179 1.3902996089853152 0.5898807420946551 0.6591035809472198
Ni 0.32089384453759395 2.936421459627588 10.057912440922461 0.8521471485028872 0.7752827339446647 1.1459450498604975
Ni 8.974304111571644 3.373568811796242 5.092248432283913 0.566117064016154 -0.4904374137946521 -0.36843574057815903
Ni 9.123248306882333 5.185870497907773 3.413977914394337 0.0676783771835802 -0.4311521457707736 0.3796953726523783
Ni 1.1515100983954785 6.515213024885205 1.9282379348844434 -0.9200396985798026 -1.2015338428693951 -1.0517678550554401
Ni 2.0659040894957985 3.142165224703517 0.37061323861219675 1.7096491335597845 1.6825065117067217 1.6852514214417107
Ni 0.6954081576137654 6.363310227906156 7.622209193462208 1.6561254506100316 0.3821651743491095 0.7473111884324033
Ni 7.714963216521106 7.097824959081632 2.2666759151642677 -1.043679164510035 0.5500345566319946 -1.451380535457036
Ni 6.9905430853776185 3.655129070568642 6.682267025691068 0.42481180537504254 -0.09272400729829838 -0.32578216757369055
Ni 6.974140523297992 8.984389407824802 4.22597451567709 -0.11089167934626064 1.3271206623339853 -0.8971617655403645
Ni 5.682459693029766 1.4056242096154683 10.260738540956888 -0.09193005064209328 0.28772007059464644 1.355410510417614
Ni 0.28984341306592865 3.957399541019572 7.356078321503678 0.6890165664565682 -0.738134921249774 0.199416818071863
Ni 5.275865950543184 7.341900292942621 3.3341952197820732 -0.6315650092073188 1.325352514689969 1.9925424721897491
Ni 5.830389776447839 4.926304372292628 2.5083229627502814 -0.24609673862690518 0.30210025057571843 -2.209646680239046
Ni 3.9475654467948607 3.3070188818157717 9.631631902428797 0.9519969682126894 0.35713882750810105 0.2773222723000901
Ni 5.882025748961694 1.7265487566232056 6.010552801627039 -0.11755803562284269 -0.6292137353663229 -0.24756098187725753
P 8.812576524146717 9.01470111925726 1.8575655005038127 -0.4870085906187613 1.3945108188531854 0.5326510710482245
P 1.0720837385124538 8.982165804684115 5.579587810491801 0.21269862278243368 -0.09800479608126346 1.3250789493136081
P 6.581707132192688 1.6544909895745905 12.568046849411202 -1.1610068292896263 0.6496964287007069 -3.1660811153977986
P 4.919624259091736 5.550560020538065 4.326208776916374 -1.5814354179953087 -1.93642377481931 1.7195478807307354
P 5.444273651169005 4.7879385735131565 11.226634530155891 -1.3881080006506352 -0.9477109392428259 1.549478405472738
P 8.43458259778763 5.2129631018645926 1.3864854061815488 -0.7720467435058703 -0.10816656710561372 -1.1466716436138769
P 5.476139093666294 7.117595489098197 1.3552507598890235 1.7625454673381837 -1.9244971985850534 -2.254460751229943
P 8.427037233155424 5.44915813505545 5.749909298423225 0.6387643551692354 -1.7042685859741618 0.01316044864135798
Ni 0.7386297925525706 6.724613175041845 5.324800105684423 0.8118569335242728 0.16682448595813848 -0.7286336666275581
Ni 7.836693858750166 5.573242633328836 7.789276219558434 -0.7161558458755214 0.605976104994621 1.312878036372042
Ni 2.744484502337346 8.879312529703814 8.122293818291128 0.20341899725272064 1.050331636829546 -0.02334047449815335
Ni 0.5337680257098509 1.5626068698364213 0.38994649102369083 -0.40640579206402905 -1.8938704748381319 1.6489353606194956
Ni 2.579789009465224 7.479568308309743 11.000768552223573 -2.2721813084381575 0.3295169520257744 1.770041518604913
Ni 6.624839450854712 0.4138171963712224 7.960210826514843 -0.030203520166573787 -0.08494564890446016 -0.9768392240673499
Ni 0.4461087519389864 7.978502055697228 10.173562133307367 -0.24372643862251572 0.4857595487030085 -0.09016678809408343
Ni 3.0883800792796254 5.617872860382705 12.349889052240634 -1.035825729903887 -1.1318970564078634 0.6576989872902091
Ni 6.850000202351618 4.052372515329741 4.363833258510254 -0.5794109529115827 0.18205492975464777 -0.09154824182264235
Ni 6.359877133517396 6.024475906648118 5.992578831302802 -3.4909698246229426 -0.6180165810989228 1.7174069231283324
Ni 0.9872425793495977 8.210882539567242 3.5955197595963404 -0.15175936409489993 0.21305960566627818 -0.33126504506513277
Ni 6.430074144799747 8.566798598759595 9.95533548817345 2.178766445720422 -1.0036491451713423 1.2414903286576748
Ni 4.2931357039267795 0.7561674156496189 4.472796325049088 1.3012769617980042 -1.331816782258074 0.4689265363060698
Ni 0.6392328714081059 6.28563297844342 11.885698406142968 -0.7687796427188244 -0.7873365797854054 0.3235625342145524
Ni 5.126679856982881 5.196244211304702 13.376802944527004 1.641372203560257 -0.22679932384987392 0.22950823814060475
Ni 7.765529254469358 5.037586870894111 12.408264682139905 0.6203408583567251 1.944647448280683 -0.17170392553762687
Ni 3.888960943936342 7.661578133586961 0.08401405322475122 -0.2848833724767997 0.11833425166723491 -0.2650239145487113
Ni 2.148437911508486 2.2912043976751737 8.370736345935542 -1.9698319179661108 1.7707341737965634 2.483645544592858
Ni 1.6921247749473018 8.882513029621789 1.4726811955422459 0.8050360539476974 -0.16553456350212137 -1.2605524874954483
Ni 7.224793628792729 1.19581469319025 0.7402132957096622 2.7223858428546923 -0.3970228081872324 2.2998538346527617
Ni 6.645084473591676 8.387728767593075 13.498266568303606 0.22777120084483998 -0.735339617892824 -0.9078500984921462
Ni 7.320371348726934 3.2477072917660723 8.853433138506599 0.2459846385290731 0.5214066084826569 -0.9936470396533081
Ni 2.7150008272208757 4.79526995123224 8.003050076143682 -0.017612056654808375 0.35436923518276386 0.6303079968717661
Ni 7.990020133890409 7.8983779124018545 6.126992384834725 0.1770741887106047 0.5270064711679375 1.7429783438395334
P 4.793306853898831 1.6872309872820248 8.366392411599195 -0.6517736229447099 -0.6051829196693641 -1.2926326558594448
P 7.44065990523714 1.9112101588673516 4.2977634035174805 0.6932095214919932 0.12707008887833598 0.4747076617642212
P 3.508073542360713 8.742407424200861 2.7218242186157697 -0.28920771088376646 -1.8034614888262555 1.0861951834953745
P 7.687852005006624 7.294404502008705 11.75910095720724 0.7315225581395788 0.05208257962785224 0.640031137696801
P 4.613920694252046 3.126367408247927 1.0541683819948537 -0.2699663461556512 0.9117576610766683 -0.26482953914971813
P 8.09433410214723 7.628131048688346 8.897198114129154 -1.0221752289999881 -0.6937687364295729 -1.2474054085905293
P 2.438473912796223 3.384891510633965 6.409695147647612 -0.20170869942983327 0.6738570851073103 -1.611790119027766
P 1.0941523019003576 0.7383199767174874 10.77905671153944 -0.29928026462842006 -0.325781139132426 -0.4133128035965075
