# total energy = -340891.79500588856 ev
CRYSTAL
PRIMVEC
9.04199715555699 0.00000000000000 0.00000000000000

0.00000000000000 9.04199715555699 0.00000000000000

0.00000000000000 0.00000000000000 13.23387681623403

PRIMCOORD
 96 1
Ni 6.470353579112146 1.9123100259416872 11.301664365104696 -0.38087910854783436 -0.7989813631131853 1.399316467771945
Ni 4.67464010426704 0.07678915937865156 5.997090031820505 -0.5736843348404507 0.6677304033842824 0.34271288189075816
Ni 3.0942889135644966 1.8247744531486665 4.8907510657598 -0.7652590311600755 -0.9057327950388272 1.4206879914691855
Ni 3.558495996677902 4.54791651654943 5.152689580561814 0.4824050304084788 -1.108330067721201 -1.0426471237010948
Ni 4.789328794000195 4.606734706924246 2.470804340995365 0.7396917242139326 0.2624762084261931 0.46314052575191206
Ni 7.177645709118181 6.071881814065599 2.4295674095544135 -0.21831391208668208 0.5351635530574332 0.2732501591132455
Ni 5.2700556056016525 4.573261234092952 11.349398875577673 -0.206007069694871 0.4331293241018025 0.6931886955563867
Ni 5.695707613579282 7.912859525807912 12.224568338370027 -1.2992864137305367 -0.4282444852056754 0.8616769423701934
Ni 1.7189921304438278 6.466827200288752 0.3531966777529599 0.2862504280276554 0.5906880684872988 -0.1584861412957722
Ni 2.9393542952597342 1.5623666587032328 0.4086313528567146 -0.8558227975822614 0.11178153815038168 0.9914199500950022
Ni 0.6898537346245033 8.970284904989047 4.713258473381696 -0.831088528060375 -0.16982316357514624 -0.35414323521488683
Ni 8.744985466162099 2.4274868460486108 1.6326898860392969 -0.10795882197018182 0.17353352254719792 -0.6229325303433014
Ni 6.764625370925889 0.5583288465088877 4.956642810374466 0.11886132781529853 -0.2576967847596788 -1.2169362934673944
Ni 0.6494803138954345 7.267324235196188 2.468197533265148 0.20049745273055147 0.016467144417087767 0.5847853298496186
Ni 7.419338288475421 4.067162578957022 3.7566604025586825 0.5023321083497091 -1.6350285207304165 -0.42945676034622166
Ni 7.612692351961212 3.743043155102191 12.762776933192207 0.7265675281271486 0.18152296851057767 -0.5579921209161744
Ni 8.094874925076944 8.722859699544546 6.9155344921737925 -0.3754792776885017 0.0688734259329459 0.19184774747535346
Ni 7.011245838638898 0.9260451630172479 0.4219276094203068 -1.2503822318306659 0.10464132756117463 -0.6099523160335495
Ni 1.7862193780128914 6.654683729608842 9.13112304312405 0.5871209199613308 0.05289144868239279 -0.2435875990518063
Ni 9.15628782492761 4.910175083678814 1.5500577882101907 -0.38558911242899396 -0.4843541837150497 -0.26828895845322825
Ni 6.271004671626584 2.0491244822923935 6.973088611370377 0.06608866409895714 -1.1438740262640816 0.3847087667065697
Ni 3.342708738677134 4.4711861301511675 0.3576733704592737 0.5485014078169199 -0.5661360901795476 0.1419367215775233
Ni 5.871357446972239 5.694685867920197 4.494886108443471 -0.6095442819618534 0.0343656219640634 1.3334715442526777
Ni 5.229610753096418 3.0209764020258323 9.464709437820146 -0.1555553408022224 -0.8117247788217827 -0.5323389391244445
P 0.15521039921274576 5.590675776624038 12.367904787144615 0.23594293802235491 -0.8329965437163654 -0.34088919841845805
P 3.915166609671754 6.17105443697582 12.466391122483824 0.10994448494164291 -0.023643607560868956 0.1769258360581985
P 2.257506344764034 8.575755450627115 1.3942289164038035 -0.4133287444361075 -0.41598315133981906 -0.2063027465584189
P 6.34730104216966 7.596642807316278 5.7066330585339164 -0.8377852233542603 0.35663540550912126 0.7915416190056883
P 4.873545953900431 0.9065687015157331 12.667784425487254 -0.3371289600450775 0.6228975633403079 -0.6070369421589674
P 4.092091364639322 6.099604576815667 8.003067912909126 0.02196467719654927 -0.501822258592826 1.9001786764443465
P 4.783415327973271 0.8013750128144915 3.797089883669046 0.005555639710906561 2.087865093453159 0.8941196362799312
P 0.014162479874569556 5.383731591672705 3.782810762033395 1.695793715733931 1.8330996234076624 -0.339307455753635
Ni 1.622324140697915 1.2107957320078273 2.6849549975421985 0.2119560881894543 -0.008182021590160102 -0.572353017623537
Ni 1.8474879495701177 6.355113327563024 4.930412881326302 -0.9079951087104428 -0.08062619559349984 -1.7722164147690445
Ni 6.068780409100409 5.601878810886051 9.193746105829339 0.4374269230358918 -0.5163898719943558 0.8380873279757115
Ni 8.72156669397597 2.347754516651973 10.288875708230142 1.1400811348805526 0.13369890704876328 -0.46075428490792264
Ni 2.379826479950893 5.171814308380687 7.058036364626846 -1.3710829268475484 0.4425161646333411 0.232497916896548
Ni 0.7129777377089853 0.017064056706434058 9.054485789294715 -1.3842382332825838 -1.155405423942449 0.30276153830880115
Ni 1.6090143211388481 1.1973141145060824 11.478243715787512 0.04433636002353009 -0.2258001931613982 0.20676245980365682
Ni 3.9119928687306995 6.838417108304656 1.4267710635458428 0.07977850288122389 0.25844934665498714 0.041052547065935745
Ni 5.617295415742172 7.538927740573395 7.91146253727403 0.4484849806222663 1.9626037756487873 -0.26622641949724474
Ni 5.337554113080209 2.9014954538916546 4.615023505558619 -0.271825510851577 0.3032454199237552 0.6730885823724021
Ni 1.1082323602289583 7.476682633341998 6.82206375256109 -0.9649941518033057 -0.1399484875029009 1.0907352374575732
Ni 5.31086213798621 4.298836625657029 7.3470375763991616 -0.24966902935919583 0.3769620328816153 -1.1816718138381457
Ni 8.279783763380557 7.102054614339786 9.252253251507938 -0.6441284476946262 0.6513697026380717 -0.34067682529733584
Ni 4.339706452020468 0.5239077723937684 10.247030250392232 1.5256015988551404 -0.6227607806521275 0.9110521503692116
Ni 8.02667114183371 7.2561844949130565 4.492279300713254 0.8907851725900594 -0.24636696156915636 -0.27974399436770536
Ni 7.226318778878003 6.000440995902428 6.825424662839694 0.7726226706139984 -0.6702688535354198 0.13228300053784317
Ni 2.3689941675651847 5.326685632706568 2.511379398257156 -0.5532425220463311 -0.49889300076117304 0.941378569266895
Ni 2.159970323307747 5.401969299587541 11.232914445243683 0.1916834539833473 -0.5135691147161091 1.2065860605813221
Ni 1.2518735243018766 3.4025396327140536 4.002162375244886 -0.4664459359760612 0.13515723676184466 -0.8017566118654772
Ni 3.6501547200951987 2.561814753228976 2.8286748269888693 0.17861350817326657 0.429201449802306 -1.6250230727782724
Ni 1.1901709368894635 3.3724749927453734 8.221955671675385 -0.765643668193004 -0.3298861624397351 0.295427209430917
Ni 3.4691972344731847 2.719181668722182 7.628826891377788 0.041409673295038356 2.0981615902831607 -2.2422292421607577
Ni 3.941967088729549 6.809419423979977 6.109935058368814 0.36920424331306734 1.030531314274167 -1.6408764948707613
Ni 0.7907352949645228 7.559706249640471 11.396750005378571 -0.07941289201168904 -0.046858355114435424 -0.08752652225775893
P 0.17830546790688198 5.72333995635952 7.834230320043208 0.1576109377796705 -0.48441897551471413 -0.14116847595293108
P 8.543529773379484 1.544978898504805 8.10363209915504 0.5400388788718634 1.1424918012045742 -1.462809603229584
P 1.9772406062770533 3.2567916833440815 10.42326600518969 -0.44878322858897546 -0.20059721153320936 0.27101098537008167
P 3.8071418717151158 6.365710548027172 3.828255838870263 0.5706614888537269 -1.6737722171575173 -0.5233940712263309
P 7.0944502948770305 3.7140635547714784 10.365831240353284 -0.44353740680900383 2.5060722490274903 -0.8975263479686348
P 6.247441227488725 7.74891907850802 10.05417259254081 0.5984970230087563 0.06447221154145671 0.05682832184295374
P 2.4205335503686367 8.797302460706094 5.833995915438228 2.0523051940706787 -0.610705135039174 -0.5391487629574263
P 6.826689638217624 3.6049989871617885 1.6336953561038134 -0.1989087680871929 1.6543511323184283 -0.335108587180939
Ni 5.3384131027935995 2.8698484644509388 0.2622712602909896 -0.23361943209550087 0.17061814867261582 0.919488968282655
Ni 1.4398747255736957 1.225217717195811 7.006676013363658 -0.5382195662749376 0.37792439679488465 -0.4569557370974388
Ni 6.970095710368984 0.8290073555947282 9.207456485854756 -1.902530464505975 -1.4130641563753406 0.2753209255993452
Ni 2.4784656250391133 1.474939589874009 9.18769791404737 -0.0008929441279145913 0.9384642238335773 1.5840499728000204
Ni 6.434999370908374 1.859423385587759 2.806283225660015 0.7956240166051781 -0.6785061538435476 -0.9434043414476719
Ni 4.06432339190434 6.8236063172464005 10.424073455520277 0.536828599464682 0.6201755364234545 -0.8726660943918456
Ni 8.135663373467535 7.0210473633685355 0.36238153828835395 -0.7597388726727948 0.46587566529488794 0.1523229499078538
Ni 7.809138778415211 3.7838677714807147 8.010372942271742 -0.39106993303790716 -0.19886068845807686 0.48587576256589876
Ni 3.08685639204442 8.3760086952743 12.54846804169817 0.6606022769799332 -0.3862534854858703 -0.5518063038204367
Ni 0.273190375847735 4.910572931546069 9.845487823170238 -1.2650120659286987 -0.6523161257117411 1.3120966781213275
Ni 8.321657251409116 2.0396665534481113 5.698534141836188 1.6981501317812493 0.6554983800944647 0.21635113193335645
Ni 3.7052023977280784 2.797575782565327 11.813815733021087 -0.4765292883539922 -0.15426104747083108 -1.9304089360837982
Ni 1.2036254284002597 3.4232729317962143 12.75694122833934 -0.603630744690896 0.16089835028169064 -0.857757295600813
Ni 3.086105906294826 8.574046513197317 8.002061538644911 1.2210148344121423 -0.9940298769140234 -0.41839098945036335
Ni 5.53778913627011 7.897117409060402 3.4994870201667427 0.499186877852508 -0.8051239856758136 0.06902332124724887
Ni 3.04114005529806 8.403252232184265 3.5776722638795793 -0.6554186758964647 -0.1148825456732086 0.540789640994959
Ni 3.304325461484037 4.586887523546426 9.205246621792094 0.7352686554455724 -0.6293890846019224 1.2497217154285314
Ni 7.340401654813292 6.177799766725184 11.363149040389818 -0.041770656178882905 -0.9097205760419816 0.09279239864238857
Ni 0.2826175619022751 9.123827055758419 0.3316731081344798 1.547766564987954 -0.5845811842586126 0.4013057518333024
Ni 4.494939456225671 0.2174003502625459 1.728555850652812 0.20713141310730135 0.57352698332698 -1.182326930923641
Ni 5.975403706256331 5.405287712480324 0.4469043176866182 -0.5265830104772737 0.7707768756545113 -0.8312157976668588
Ni 7.740781281223264 -0.34024582547412063 11.538563781861214 0.7986782300504697 0.8514830325563272 -0.6353237049188025
Ni 9.16071840344931 4.489152578156511 5.939986204073678 -0.6806450545634213 0.6794903721336878 -0.3700658199824143
Ni 7.85688956448276 8.799798051873418 2.2859533714724445 -0.32742304561122315 -0.17218857848352928 1.2301803029614942
P 8.753412607350311 1.517265177751721 3.5919785115061797 -1.6056446682516605 -0.5016062859272781 0.5547746424201413
P 1.819394464943745 3.3495896983812443 1.6129050924406596 0.7030637885782537 -0.781991256313092 0.7716070848652905
P 4.688736577563632 1.1775302251071436 8.122410518489463 0.8735173866485472 -1.7322483590165394 0.8897140510130678
P 8.704386899708151 1.7302765426786888 12.422308674592301 -0.716666724073669 -0.04571524264892772 -0.0691873576289389
P 5.936378447277436 7.625984087526314 1.2761747953935534 2.6261944458330837 -0.4631785780786991 0.037581300687883665
P 1.8691525743415336 3.2089143093187698 6.120032256399799 0.6357209403572213 -0.04690643474355148 -0.6959099511422918
P 6.936703615510536 3.766561389255135 5.838694137070628 -0.7345515747738898 1.4221769173098862 0.8788341708757702
P 2.4498929145726382 8.436743789009524 10.222269645853816 -0.3044163003034048 0.36368922703210915 0.8096365288341862
