# total energy = -340894.63794746343 ev
CRYSTAL
PRIMVEC
9.04106778740507 0.00000000000000 0.00000000000000

0.00000000000000 9.04106778740507 0.00000000000000

0.00000000000000 0.00000000000000 13.23251659201078

PRIMCOORD
 96 1
Ni 6.275821012922576 1.939372319395319 11.300820248099946 1.0025800804768799 0.10489355278129678 1.1914283790042772
Ni 4.657668789541821 0.21414673067637663 5.7721033479898765 0.5236671223820595 -0.07441723856931054 0.4666459678020093
Ni 2.9130049051649296 1.7400077344867322 4.810046041257882 -0.4176533399533904 -0.772970026651088 0.7831626509133738
Ni 3.4551163683957924 4.167670040809762 5.045042378267653 0.842281311452401 0.7190863892587551 -0.8389206225102843
Ni 5.137333597838052 4.594950902574752 2.8846882809785575 -0.6896315743327477 -0.5841852343717745 -0.2892910146261921
Ni 7.077230299162748 5.972511272116569 2.641633640285097 0.46565429331270125 0.7534718087171605 -1.5226530577497777
Ni 5.059019869005881 4.644477871697659 11.270306644450837 -0.43446706907661947 0.026227566237961283 0.594273471845712
Ni 5.576259354862317 7.795217653293195 12.234361123048341 0.07283729567670037 0.6438456263468846 -0.025627984980749408
Ni 1.7845711574160519 6.45409278677535 0.35497130602419014 0.7109259649351498 0.08045778833643563 0.15270758694078215
Ni 2.646338611941096 1.5526948928860749 0.468506322481791 0.672400555166442 0.4795583049883032 -0.23295608747988913
Ni 0.5778896806295636 0.010303200805488424 4.765161660423512 -0.2617493575624976 0.36987118747310493 -0.17981755578369676
Ni 8.660773315204603 2.406515248860729 1.5177692481759997 0.2380219320385707 0.2771872893841226 -1.2040882338601326
Ni 7.007478461487824 0.7970424505179435 4.805163864674024 -1.2094564401505816 -0.8501285754109618 -0.08018730828386836
Ni 0.8629735329626117 7.497269265661683 2.4574634738336036 -0.5192517669231832 0.12310313381078798 -0.1629850576073903
Ni 7.767678560933141 3.8045988421902424 3.591754929376336 -0.24536808799099677 -0.1766684686317538 0.4665392670208159
Ni 7.414923220613957 3.992309490771807 12.464487940969102 0.8032779336060101 -0.47970280098596735 0.08413755118086799
Ni 8.110190371493973 8.725914208328106 6.856560438106273 -1.3988546976441778 0.5537708837459754 0.04254738644390737
Ni 6.883859942171008 0.6757456773987843 0.3232018980649011 0.04922582690534748 0.6354538027387636 -0.3342117863982825
Ni 1.6414600960347985 6.55338179278261 9.270238020836874 1.4004778350698979 -0.19447361513397474 -0.33020806455552804
Ni -0.07285834855309672 4.890232175220638 1.1545316939099193 -0.4335484139170921 0.1442679408138612 1.2438313180860254
Ni 6.401989113344295 2.036744619040028 7.196623023414203 -0.8426026993475618 -1.61074985068871 -0.6392171264359379
Ni 3.369009239164947 4.163547313916727 0.5616898954389054 1.0099252079880414 1.016706749686249 0.03928542786318396
Ni 6.161324930963375 5.587027266550046 4.810125602654063 -1.3118850763311536 -0.49360552710998856 0.30198352249219607
Ni 5.073621193418714 2.7345342278217024 9.470115234286768 -0.2578145412844657 0.0866502903003927 -1.447114046871198
P 0.06364821283832744 5.686858736622179 12.365403263092944 0.3812935703774336 -0.686152871755528 -0.9324856376526393
P 3.877985189099815 6.066818649794746 12.658714487076566 1.0903575424031802 0.6213739276069298 0.5765829965444844
P 2.5808993635819126 8.452141635854435 1.3465802467969183 -1.0970958895682783 -0.06193916070695784 0.6417892580384882
P 6.2501715037218295 7.594406497544947 5.782795314708524 0.5624061908234701 0.5143103637575077 0.6800313322388223
P 4.770664054254874 0.8504227227149993 12.54703288950728 0.21782437404477326 -0.2651334435433821 -0.006195844398066748
P 4.0858574187591605 5.984291783392061 8.18024870136555 -0.26532293384636885 0.9583640480812977 0.1325791916220233
P 4.914435113581724 1.0896837313814476 3.600024794045325 -0.4024864024049649 -0.6581828689051632 1.0448320471675554
P 0.163260889070962 5.61905072851305 3.3733254449077865 0.08978420794368408 -0.10725382548335721 0.04976421590732075
Ni 1.6090659502941307 1.2409769590745359 2.6362876569257736 -0.6945423813708038 -0.689283961185342 0.327660615543326
Ni 1.5841035622422235 6.79456131602516 4.684654568555706 0.8603582235587698 -0.688154218456273 0.3939904491188118
Ni 6.15886576053595 5.675882880376249 9.08154189587079 -0.37615033561359734 -0.3846899976534923 0.31114616282807056
Ni 8.701069354156921 2.2546976392382634 10.276795463023955 -0.09329556353105223 0.6501785105434479 -0.2962432775743092
Ni 2.243450550959896 5.253104470349704 6.820647508798128 -0.10346273387204118 0.4012062501409607 1.3321744227078087
Ni 0.5813560260041023 9.04414171091812 9.227655495851117 -0.6459819559635971 0.04859539241020018 0.16639691150241664
Ni 1.5026887471725294 0.9912445857424884 11.510569403423752 0.008655104571836705 1.2596328038946565 0.08594555092388423
Ni 4.239257215237506 6.809759350909352 1.8763443238044961 -0.3570079583571916 -0.015672930650566557 -0.5587660229677216
Ni 5.711821124674087 7.895365560736504 7.972961428789492 -0.8874136850146652 -0.09884143304994591 -0.9133054651797625
Ni 5.34032365091354 2.7001239239732566 5.040159297577021 -0.5856808450806945 0.049595808650256513 -0.675299731091108
Ni 0.9212848035093634 7.4635008776233365 7.071482892395418 0.7544963933269329 -0.523760196316498 -0.4625640844231518
Ni 5.165740632701902 4.382314030212272 7.132472127209093 -0.37147735561796025 -0.13919978226233445 -0.06804295961185054
Ni 8.332754336243628 7.013906660656569 9.2058348788416 -0.363611065496006 0.08400282537521662 -0.7581828410395846
Ni 4.469316225150158 0.2568386525818841 10.427792143694912 0.3190682458886247 -0.35773455211057104 -0.46517889633817955
Ni 7.951049496995721 7.236723775303167 4.446800350030828 1.0871611469530695 0.5411850766611648 0.6504456481619056
Ni 7.272074350197392 5.887597563828444 6.877521249572967 0.7212949668742997 0.7906365906929158 0.8055597876616513
Ni 2.4506989469446374 5.1097402590715095 2.7274731539106054 -0.7274923539342631 0.8478670330702945 -0.5324844635633732
Ni 2.378976156500675 5.4068749506057125 11.318604932466808 -1.2795333994733253 -0.9344774712716873 0.42603667892107916
Ni 1.197064493023064 3.3818837196379334 3.919312813882167 -0.7219673103509759 -0.19510662073228335 0.4850540379955517
Ni 3.6569401237318035 2.709445264821325 2.778576885248744 0.2805317803763233 0.22533430926857323 -0.9118378794953006
Ni 1.0150587581904145 3.2823325226659845 8.186706736057863 1.0746779268843942 -0.42211111861442785 -0.03943249496400951
Ni 3.4750067174411368 2.598818759858218 7.263367801956179 0.2547253608361807 0.7105850366559633 -0.6323024015939755
Ni 3.8968358153541534 6.823926704070287 6.1058136790981425 0.6169261762482213 0.5264601117461644 -0.1791246434817302
Ni 0.7236479666473974 7.548016778930555 11.37616669849726 -0.29398379211617115 -0.46049691748147786 0.49262465125395805
P 0.3016488966607208 5.449657283188699 7.841483509279441 -0.9169186364523176 0.23739381153626857 0.4807479544210301
P 8.457358331944963 1.5306798929199779 8.12857628686607 0.09804336262868275 -0.006444212963446967 -0.5794155808972731
P 1.976187547264702 3.1652054899921493 10.640822302504425 -1.4703120822542162 0.3335983211839996 -0.3700797039394852
P 3.805231716932594 6.117783148689567 4.041938623960266 0.8517805091920878 0.37308892307945424 -0.6223913131278507
P 6.803078001843666 3.844958168616796 10.268499379258497 1.1399520655018562 0.5717747765225637 -0.5540043399130201
P 6.4551144274308605 7.8245107127963385 10.033211919867243 -0.6772329435580787 -0.6100345913347107 1.1384705958603232
P 2.5246458400545793 8.688221996887178 5.620630203048606 -0.8891090704392172 -0.22727189261091826 1.9501912609170478
P 6.646043696130672 3.9909533306096243 1.4057431859255205 1.082871004218148 0.16203014989328868 0.3641553680352502
Ni 5.230194404676567 2.678000431194185 0.34949422718252204 0.16333395630637676 0.5439477270079665 0.4351941770506312
Ni 1.4362188170900874 0.9321160026713281 7.151830861470861 0.05668845383097979 0.7457263604437867 -0.9622955219252202
Ni 6.678184691974399 0.7085105069171155 9.233663285369587 0.5875479801964204 0.6558400797045995 -0.25384501511375634
Ni 2.7343714886022408 1.5756230406947085 9.308757489976735 -0.43514738297309574 -0.16454417456439402 0.22075080366294886
Ni 6.4819754397098235 1.9838724548504032 2.4397185701648323 -0.7013923144131018 0.6765474874552799 0.3974740367920381
Ni 4.082340443405234 6.802562660982037 10.335667279771076 0.29076965605424765 0.31691648965294456 -0.6243042138798474
Ni 8.118426784212295 7.348037401415112 0.18794662044978405 0.02378347557284291 -0.041902553771056866 0.20652668964376691
Ni 7.729398680088601 3.6920013844580972 8.04134716112771 0.038483757897495016 1.1872408232854907 1.0968200101990724
Ni 3.1227034305093473 8.345393748955171 12.43263716340008 0.22641442970662945 -0.5909981435285498 0.019688479567862866
Ni 0.1986467241294046 4.724681183689138 10.051922409571489 -0.7299546994318268 -0.0363055192992536 0.9968364931248833
Ni 8.617240573998542 2.1790691075272153 5.838782126737295 0.8761573953745556 1.2789456452906556 0.3856469622501229
Ni 3.7923391543241123 2.5423663328404316 11.627544546159422 -0.6394932629154599 0.3560959880658835 -0.2960224198127547
Ni 1.338747065700152 3.582559259369963 12.806337041264014 -1.4884766689783848 -0.5355944699472647 -1.0527297047480773
Ni 3.0604375969296718 8.355890428610463 8.153334346786874 0.8483611990978936 -0.49937379705233353 -0.4592473613450929
Ni 5.631482196666391 7.89927130200359 3.647159496642143 -0.2976537847685906 0.36932919892670585 -0.12127559368374598
Ni 3.062372385427719 8.484364001307892 3.5497682107551634 1.2023977335315872 -0.3690571762122419 -0.4653336767484889
Ni 3.2570627383106494 4.320744358849183 9.302485701280027 0.1347016372816648 0.0029346571482917203 -0.6765803975757445
Ni 7.176826701473436 6.232107450361558 11.258278407919052 0.8652829145538969 -0.9018589139057178 0.677777246097323
Ni 0.6690561913721251 0.05173931840081485 0.4602834713650907 -0.5188043949731194 0.41105486080026626 -0.21149946026800998
Ni 4.575738633610499 0.3509552637305801 1.4841988595213322 0.46630118286808075 -0.5095653928733547 0.4113289403972593
Ni 6.016360450693806 5.886485512495454 0.3359525159097416 -0.48702684545120645 -0.7163155113818374 0.02466407840558333
Ni 7.9362492690924356 9.099201813502733 11.463593823619298 -0.08481735085671199 -0.9128107849315313 -0.9466241339365503
Ni 9.120719554742697 4.9866732448873154 5.4935317767556295 -0.4868298989490519 -0.5862449451142807 0.5533296824434987
Ni 7.854653632667783 9.039820080534632 2.6001233859342383 1.0119098425182378 -1.5182109628180238 -0.48419837486347583
P 8.617086875846827 1.6580323732166695 3.5994561108839833 0.5052287131712138 1.0393671673982423 0.6701161300076394
P 1.7084092027078783 3.288046477482647 1.7811364557786307 0.4977928257184588 -0.7293911136188729 -1.3265066828990701
P 4.6352288593915745 0.965911513912918 8.046190461120252 0.3940734957509213 -0.4169794538148173 0.6727574242852286
P 8.645340212558965 1.8471443872991558 12.442932227244597 -0.45150422706456433 -0.29792426482115786 1.2510759154635809
P 6.424835891543198 7.9334555791583385 1.425962629836888 -1.2979149873043065 -1.7553345514120415 0.20563708794996197
P 1.7750689952130259 3.302367528795295 6.08423174627717 -0.8737788678400501 -1.2995509802458327 -0.46955722791153326
P 6.922727492419161 3.768751008569883 5.9542618768674656 1.1521257247499124 1.2431715730148396 -0.7716610780316774
P 2.354013768448768 8.442304954144737 10.272574188492468 1.1103195873474039 -0.09807781541104399 -0.16204943316699832
