# total energy = -340859.32309021876 ev
CRYSTAL
PRIMVEC
9.43257893219932 0.00000000000000 0.00000000000000
0.00000000000000 9.43257893219932 0.00000000000000
0.00000000000000 0.00000000000000 13.80553272696370
PRIMCOORD
 96 1
Ni 6.672002682785087 4.103615185905431 4.376146917236278 0.3806798480528347 -1.679181818208863 -2.237567832129346
Ni 5.016292662494943 3.606518273854052 12.039708904816042 -0.2625723676844252 0.3594103971510971 -0.6446143861921092
Ni 0.8139042258391139 1.9609294108054856 3.5029608190468706 -0.837408556741132 1.2377380607040942 1.9165324352120219
Ni 2.238916945816229 3.9745397751936458 4.136634871869891 -0.051800529611059166 0.41012206457335176 1.8743100362077012
Ni 5.9424587270205755 5.7386772908164385 5.504003215207 -1.6541796397375705 2.0475319410517514 3.295611750001486
Ni 7.949013522334458 2.7848085889120444 2.2587234751506786 0.7808640846871843 0.2657101419824585 -0.18219916864199592
Ni 1.6971756374699896 1.5654685372238148 12.894906131639734 0.5895912358786943 0.06532401801879073 0.13829295417734894
Ni 5.807318168027026 2.3641532968846573 6.0899653970520635 -0.3165783895872354 -0.059636480715710205 -0.7776792592012993
Ni 4.334156848665351 1.327418541598755 11.417989702587592 -1.0869238341312828 0.1790400541877239 -1.52140632982687
Ni 6.659061184429595 8.405559777366694 10.088033797244211 0.37254744875368745 -0.5781691100846816 -1.4410362161082344
Ni 9.828841619101658 4.786977235001944 1.118302981983517 -0.19644050905235846 0.5461660748155239 1.2974758428843591
Ni 6.344833680991879 2.2437747239890276 10.112746210904238 -1.2071637874616628 -0.058533477459518556 1.2857210163412758
Ni 2.0322302752873904 6.526099551179572 8.26459931714476 -0.04543139285992175 -3.0640440582286907 -0.8727997917562323
Ni 1.1537741952239196 8.517609383026244 13.283214280583671 0.5512262629472506 0.8272295593256012 0.351302166221666
Ni 3.4432686295111066 4.548814048429168 6.929852604939314 0.40402160810256865 -1.1072098380738287 -0.7672701480528334
Ni -0.09694804671848334 7.086885236478975 1.0567403120367518 0.0648157109238045 0.263595666742617 0.04647603207435222
Ni 8.56015031420939 5.914877866093853 5.766777886844755 -0.21140715766451976 0.04162616018121863 0.4920731496258622
Ni 0.6990173004234899 2.0378898226731743 9.51199846151381 1.1180650356207775 0.7368956495260341 -0.6251033127423751
Ni 4.289021958263722 0.29659518355730435 6.789781636914847 0.2442414305857213 -0.29747586442982965 -0.1398870381373462
Ni 0.45649626236366064 7.526830152512909 7.025690437112285 -0.9092863167180405 0.9063596299895489 -0.13528322081674768
Ni -0.1117685148060569 3.435977245962422 13.30390841559979 -0.03008807763463205 -0.5631425547688623 -0.06947532118300292
Ni 8.885451665365288 1.9793040746513317 7.449244360659092 0.25562858937674043 0.23300982353596 -0.38123134968093053
Ni 4.147363487197543 2.6659486612316 8.70496869923263 0.3361699385659178 0.7936419531781429 -0.1452462455667305
Ni 5.67510170851613 1.8130171398780155 2.3680074486543763 -0.027304344241907814 0.26973880352587737 -0.8477611036200496
P 8.166019434263376 1.3194197146268467 9.731686055645692 -0.0742783989986011 -1.4778724110999772 -1.147897545601178
P 1.2293291528241386 7.6590843423397095 9.647375778239667 -0.5605740227107378 3.057435551773238 1.9887238697746072
P 7.276404613270935 0.4980967654228674 3.2220039081743854 -0.031859053492125776 -1.6330338588978905 -0.8919833066632187
P 4.698037447834345 8.696649164575527 12.015245511240987 2.148452882338545 1.2076211867140556 -3.418155668874694
P 2.17534136351592 4.842733209330895 2.2631275462747165 -0.7478914864159055 -0.9923643162861425 0.7837252082850631
P 0.5998148673296692 2.401779854421146 1.459990609337057 -0.9445968190938765 0.3913769227553647 -1.6639192356228374
P 3.2840278312330926 9.63047448322992 4.160297439489855 -1.8686484670465495 -2.3634382442726265 0.35807933704449946
P 2.3540415722220565 2.7139887859579312 7.411114103405269 -1.0354326082305265 -1.0919040609546937 0.023020629264889386
Ni 3.9097190924684644 5.3463763311918315 10.071425855440626 -1.9793887084166104 -3.1959429359542377 -1.9084059494501453
Ni 6.928502802887803 6.528212448870264 1.3226664083104915 0.25951815423913366 -0.09475646434729487 -1.283732010935705
Ni 3.88973145761767 8.029228173948972 -0.18474554857205125 -1.4833910269253614 -1.2685864135435185 3.2221915852381215
Ni -0.20049229591509818 8.42715095064346 2.8393562498741303 -0.29287847486713425 0.8227620104725507 1.0561467008494263
Ni 6.347654022105796 0.6247423437903556 8.097649272069411 0.17861247973200206 0.15495370266248154 1.5702207802264119
Ni 2.35367370164198 7.291779717002315 11.697607187245442 -0.4545178170799076 0.957310410005803 -0.8695036375034637
Ni 4.10187959137379 7.556448450498513 4.440066788669223 -0.6163440784925063 -0.22505380191367688 0.5527136461260546
Ni 3.425997577405489 2.125924082259048 3.5357484635685137 0.6636063539135797 0.4729739669025661 -0.6532720618671071
Ni 1.019275051600758 4.150127232837601 6.2296090692489035 0.2240346166205432 -0.18286585569171732 1.1467189519120444
Ni 2.029909860859219 0.3475480886715196 7.980799426968817 -0.7105202448562989 0.7858839064992788 -0.46194316300970123
Ni 1.35509372831524 8.350586707092775 4.94995993735986 0.2746904911041979 1.4282020404580436 0.14133199811398886
Ni 8.350822521567183 1.326399823069314 0.15628840105843067 0.11485812019317637 -0.4801594289074118 -0.3451772842708507
Ni 4.8935182145393314 7.023054974546305 10.648496888342626 1.4423749895243156 2.1300846642440026 1.1508458295962245
Ni 7.461207700574742 7.639719257701351 4.479660982180169 1.82396603653751 2.154651040729457 1.1823436430941896
Ni 6.813048036217806 9.077272591427466 1.179608142524229 2.8713992687733385 0.04434433044333008 -0.7993287191502749
Ni 5.277876942665889 0.9834029537538626 13.532722029891252 0.9010585294916096 0.3941264604760438 0.4243600625496046
Ni 6.071364351310787 6.551982547890558 3.40050980575361 -4.690738862282431 -0.7258717876117047 -1.3560057207994518
Ni 7.643869592450927 6.777600404424844 8.189455619987909 1.0986650338276112 -0.8742578643589975 0.3342130719498631
Ni 2.811370731309325 2.8354804031727654 1.032612718273256 -1.1188433085476988 -2.2997599893873746 2.0231933643063864
Ni 2.460667444970231 6.179216459325882 0.7729866414977917 -0.6362577866972977 0.9740796590443419 -1.8564886917555643
Ni 9.002094936986301 8.62987593800225 10.832800992218584 0.42117420862245536 -0.08998115444583858 0.32165194745540093
Ni 2.7026696911863626 8.057705129878443 2.3058410936531275 -0.5266819979489832 -0.770892318186453 0.6512596594227688
Ni 8.558339259045939 4.514885061851393 11.384829471196383 -1.097433475413355 -0.9559063305694246 -1.0329728338361241
Ni 6.925352321509718 3.051675113309722 8.055997833083731 -0.24788314110336662 1.8602682134026545 -0.5606647826523311
P 7.975745451153312 5.814307709048469 3.306549056796923 2.0967850216506085 -0.37512369412129587 -0.37704867905815065
P 8.460834690167852 8.499828971655905 13.262368281046033 -1.3145397403451813 1.0558073152321366 0.33664045044443314
P 5.933195934465842 7.710029701390743 7.522193096688157 -1.1778367563627714 1.7452913082434263 -0.8565964425234924
P 3.484838005059692 0.5921263722060813 0.7440059858509861 -1.5665988672031086 0.15920116508492582 0.872585104642265
P 6.256488146299788 3.8037912305645367 1.41671016396217 0.053744283600991316 -0.22582127620732076 0.4543869479289981
P 2.869626339066997 3.3077979302533858 10.965927695600694 0.7130823491565204 -0.9045621717694937 -1.1305158597896208
P 4.4801637386396065 3.7575810261596088 4.842732266072998 0.166563518987268 -0.35867480453665324 1.06300820385595
P 4.436651251821902 0.5929583256717916 9.238124474194636 0.16830672693061982 0.3439909772722334 -0.09806675966745046
Ni 3.719388513884542 5.741139193929255 12.436796898271124 3.01281611329165 2.333586965239149 -0.3425668432311971
Ni 6.841411801199562 9.473893672223225 5.962582191008629 1.7324746160947324 -0.518301487194772 0.5959876263233412
Ni 7.994478553000258 1.9262552504885813 4.525342962162424 0.7730250482587397 0.18689271746292327 1.842364593649356
Ni 6.884103653646326 4.894225657962555 13.393741467996445 -0.06384871902484487 -2.0334284117708337 -0.13266918023266827
Ni 6.195100922321982 7.007179944129181 12.69137088574688 -0.06941952824440303 1.274369852994515 -0.2718381092570673
Ni 1.8877325979493433 4.182301759725783 9.038095317907274 0.7767868292940171 -1.3499389457800814 -0.35090930165862144
Ni 4.900017261454007 8.768421658006247 2.0520962298693903 -1.2476481207289545 -0.2420801612683444 1.0513991588621119
Ni 5.34369747876256 0.3444815572463221 4.372695536588847 0.23147281806614328 0.26989024150207713 -0.5027170024929535
Ni 1.5408306409377008 0.5248098290837688 2.03040695777127 1.0097166915216609 -0.18608564818059567 -1.8603911121337637
Ni 4.375480977160551 4.326516459694542 0.5698466206640442 2.653716305402436 1.5625604354676765 -0.4496036676077418
Ni 9.083450930656948 4.610144676933117 8.24948266607733 -0.6786858739545215 0.24754041305196722 0.05453926869846091
Ni 2.744418285735498 4.0276734925671835 12.950666822258174 -1.7060855845782426 -4.328630092363564 -0.25447005029226494
Ni 4.1829526076751495 4.520195603815053 2.8384450627450186 2.080796359531836 0.1726115249535608 0.11823295020268025
Ni 9.084865817503394 1.951166691565008 11.590959619565622 -0.4687537581736314 -0.6440896240368907 -0.0029071463444659607
Ni 9.285260957855035 4.247631801715687 4.24219203342005 -0.8487548349918866 -0.3223201771670191 -1.809388910054284
Ni 6.355058596602196 4.698641132888829 10.002302030186453 0.1470251918440242 0.6499949337777321 -0.02480806018261534
Ni 3.429770608996012 8.193534267137265 9.101601099123158 0.360287914660044 -0.48595880919800827 -0.017678648226685682
Ni 0.9925053924659987 5.661188654526077 10.532075282327554 -0.43884257243649577 0.43396570396016876 -0.7624781259808288
Ni 8.592447464624264 6.440574357601395 12.64225073072776 0.8546953688460377 0.3497402210511848 -0.3627366333108527
Ni 3.9011543107579776 6.760150133318676 7.071497870394925 2.2707636021550246 1.8645614414613696 -0.5770794765649288
Ni 1.4785756196940747 6.397873072575654 3.7381517999842115 -1.2234409273551317 -0.7899755600701492 -1.5935334868104232
Ni 7.0029258510108665 0.4913892585128155 11.74761117491464 -0.030341845516650968 0.17305838268299228 1.5518150240257145
Ni 2.0375879801459327 0.2915025341679962 10.581153933999179 -0.16225177898579152 -0.41685166998770146 0.42430966892764344
Ni 2.0503502595008762 1.3507830397230676 5.5819219770986805 -0.6962835324316267 0.08941988262572986 0.830344450805499
P 2.4554229310594042 6.197732611856371 5.518292629098207 0.014119984341149876 0.07790056913222068 1.619757453503959
P 1.2413179607030247 5.248551054628551 12.613480421592127 -2.7779946904682475 1.97003452089522 0.41227202103681904
P 4.522808428191491 6.503159519109193 1.4836258224779895 1.2922148515957357 0.7276353072700307 0.7706997425596727
P 7.764917878453875 6.391789059135936 10.410324269190873 -0.18855956364238494 0.4886998622782551 0.3327843099231365
P -0.13115152134447017 9.647736102756562 6.373683223790914 0.9590245644834322 -1.4367841257001 -0.9814085886055872
P 6.9419159301921125 2.7482573453788546 12.40481007970457 1.2548716350605873 -0.4929537524586026 -0.04109394182683245
P 5.32193651906422 4.885132651829395 8.061036716772875 -0.09974980379682821 -0.5402890472094566 0.35524649558139465
P 8.007014450459769 3.781709563181002 6.054264972142538 0.5718305694611636 -0.4140586806235965 1.5236089939051438
