# total energy = -340865.04398326285 ev
CRYSTAL
PRIMVEC
9.35501645374523 0.00000000000000 0.00000000000000

0.00000000000000 9.35501645374523 0.00000000000000

0.00000000000000 0.00000000000000 13.69201219961084

PRIMCOORD
 96 1
Ni 2.8008825594921323 0.23515049910040475 1.079032851795541 -0.9993644017530596 -0.6618412915933569 3.1403891099483334
Ni 5.732305018032535 3.019630908312952 13.045763103392144 0.8378561858015118 0.439910608689694 -2.1838022083721165
Ni 6.679893340692521 8.146011513176754 4.0413343485170055 1.0480194437566015 0.46131375695581844 0.6492950794972302
Ni 5.302077168144982 4.8597626370498626 10.860134714938948 0.8361661996935986 0.6265413307404822 -0.013319342816725447
Ni 0.6990956991491866 7.541162926895692 5.0864870728657054 -1.0322179579479707 0.3296455071838387 0.6683788356015585
Ni 0.6709342932365443 6.212067679834994 10.685108906334689 -0.8694846113400703 -1.0045986535688054 -1.4024411294438557
Ni 1.042214313692898 1.4019146948313537 8.652762461833474 1.9873120770287451 -1.083489097418121 -0.5645409777782859
Ni 6.35647171320959 7.40109026612102 12.922849413724991 0.43810723693236814 0.5439271581826761 0.8198767185049558
Ni 5.092347055147764 2.814681208703555 3.1833109530096744 0.40708019242323445 -1.0950534052169527 -0.42024115528522465
Ni 0.2474121191149216 8.700099780392607 3.0156653168548346 0.4949486714014444 1.5279112208249233 -0.9508816236613237
Ni 4.8078516509656675 6.92971905404239 3.870471522217211 -0.666700162347555 -0.6749973693593407 0.2679832542873514
Ni 6.242583743379172 5.884904045786254 5.876351689780096 -0.4721694687233997 -0.03755070456026436 -0.17847775392635068
Ni 5.646781457970955 5.522565550018903 8.363176993220236 1.2212068958182904 0.3097032597339569 -0.3495021368984497
Ni 9.019040355012981 2.5901608147549746 7.183870526982335 -0.07968260073330793 0.7159221325981605 -0.5496769161822599
Ni 4.199934619300642 4.697958273144252 6.478978459662709 0.8629810058935977 0.1454043684111496 -0.011053429600684188
Ni 7.177879574470473 0.618029804409127 11.53016624909149 1.210628863192128 0.15215145732699603 -0.04558745882181181
Ni 6.820957633207131 8.102117776159806 6.590060860070411 -1.3538377666138555 1.9486311155187797 0.17454576586179615
Ni 5.324763082950203 1.0359277426623377 9.355382195666012 0.16062092825058788 0.35940422650351006 0.6717832332974173
Ni 3.380379051289834 5.210585107610935 2.9482465200602834 1.0938200470304837 0.07405034214819506 0.2865723301434484
Ni 4.962695882658872 2.449115232273193 5.866054623212629 -0.02788669910793907 0.5519657122164364 0.3339934997398893
Ni 4.45015324333992 0.3630298314803848 7.220112796073844 -0.049082102238631596 1.9622990999241752 0.629802003769625
Ni 3.006468400217716 0.5626995598254236 10.357774075485564 0.1563392701560985 -1.003964362418916 0.03362257315045177
Ni 8.18789392166458 2.415371688066004 0.8720372100962882 -0.33877780850241007 -0.8018417153801158 0.7217269122053956
Ni 8.948063845475987 4.501334538143782 13.652141234856979 0.6461634758467839 0.22067547034032314 0.9096604122280076
P 3.827848196429356 4.210805148374319 12.549153928030407 -0.4811914697163519 -0.5188943835837645 0.5049119532617433
P 6.222348842874557 4.081434626377863 1.0077784982710345 1.3357261446148094 -0.2396034175930777 1.5321699961012774
P 8.318555435926239 6.749625633046384 6.6681471820824445 0.5080772383636024 -0.88385630668071 -1.342831902421655
P 3.3653642499445224 1.8498796558408452 8.599541773451246 0.545122721152674 0.06265572715800823 0.9473003340679684
P 0.6687555099136017 4.059328722590342 10.028002262860452 -0.40463610175811604 0.6109025957619607 1.2115236070922553
P 9.333948917558695 2.6026871817340225 12.729066797209612 0.5608205915039052 -0.8187042954634094 -0.9061210316161814
P 6.11954656749535 1.1499186176733152 4.7025356826758795 0.4056902540542432 -1.8254680750043335 -1.4177535914312098
P 9.484583391865364 1.4857262868890762 2.9488489831173785 -2.3983191153102115 1.576541066017485 -1.3814784111492595
Ni 9.241006829480398 9.316052771157711 0.3756235545776173 0.35057685801986715 0.055605762289762294 0.23750694007536516
Ni 7.9808206333290865 4.201524972091111 11.587632243922629 0.11828771470001564 -0.388326308854499 -0.9434344233546591
Ni 2.9343412236617348 6.655242872440249 5.487799502517606 -0.9831880491035131 -0.4419731476456775 -0.7379040361858905
Ni 1.2699808983373189 7.864752944674084 9.074244306875089 -0.4140944189575384 1.5032782527675916 -0.19620139645835888
Ni 8.705198264338524 2.3542179457642596 9.962226206948293 -0.6097769667979499 0.09371002536065151 0.5077327105399901
Ni 2.6030239623249454 5.010256786110313 10.667665542728168 1.7401051360567967 -1.2965445893193412 -1.738444203414606
Ni 8.158313359761854 4.747801800600837 9.006975190343171 0.3340050697041151 0.35503566512216916 -0.2574268189277437
Ni 3.7977718186566607 8.967456794503295 12.894986432835973 1.9956686765235565 -1.566240712532741 -1.3990141060401777
Ni 8.271153567753844 7.334959655086749 8.711994683763676 -0.7266148364253163 0.2293776261000114 -0.3017179275356352
Ni 0.5630999545279652 0.5494088880053091 11.119187280978462 -1.4573640067339804 -0.6899845867967923 -1.0711933107699034
Ni 4.942255171793137 9.126295618205502 2.595717694505202 -1.1390002431115482 -0.7442757440401891 0.10199386263599854
Ni 0.5269119445316612 2.852400634886917 4.740804248322774 -1.5956078528409487 -1.1880098402410313 -0.24328523732003907
Ni 1.6332455407297082 3.78077375383147 8.215987971459036 0.42702835341038714 1.1049855767290002 -0.43018232565833653
Ni 8.411740754431314 0.4919316671544724 5.135791751376814 0.48734386247099293 -0.3983649240374236 -0.04167552536191532
Ni 4.2247067027663014 2.787925861758016 10.885670167744031 0.309103421366429 -0.6554824392548647 -0.3604372957537147
Ni 1.8944656640724675 7.052868490123187 2.7884740657199076 2.022157209732388 2.0379147296769613 1.1741875896459586
Ni 8.586080840332388 6.648993721475347 0.7495501091776399 -0.845736359880537 0.8196381201315884 1.3129993924412549
Ni 7.307296871549001 0.7381145371125255 2.7843662780122895 1.0350654546990947 0.21712349132300673 0.12020550054801878
Ni 1.7955924955873612 0.7483395700536005 12.846598545933489 -0.4248840533738747 -0.8081733140250985 1.5661211562357416
Ni 0.8503831536015891 6.137386583797848 7.406899731314441 0.058856150906259924 -0.7915976690546044 -0.8013226096518522
Ni 3.229033595735661 5.721032223253033 0.8507629672680188 1.0450297650006581 -1.1878206070483608 -1.4738540339692037
Ni 5.356439168529782 8.37016706148517 10.96185274391571 -1.8153687817868027 1.1469812044344956 1.0565094835054836
Ni 7.4403252049635356 2.6643273848893223 5.305285003273522 -0.5077113703837515 1.2312753357978858 0.4715732299002976
Ni 1.614572927966318 7.430792443237135 0.5687616104620353 -0.5777770168525856 1.8389080025593232 -0.8720228043808917
P 5.128681938901776 4.555191367642198 4.236431344838625 -1.703249400681028 1.5000306923645714 2.626688868970999
P 6.740710302403342 3.5897910937289583 7.594288194110491 0.11195765871692977 -0.4242934709777273 -0.5482034169605268
P 2.7555200848981043 8.685384339572561 3.949077983141892 -0.6047216637622295 -2.64501800629749 -0.9894011198927606
P 8.721064372177556 0.1767265505884182 9.325122459571592 -1.052355352127794 -0.8918051292141416 -0.3058507187570862
P 3.340928947069785 1.9704283973584042 2.173347122904207 0.918670843256734 0.7221909963260078 -0.8364883589197079
P 3.877513978574065 7.705511855266053 0.9478409081031779 1.5789797573659647 -0.06634243198097607 0.6008763218742104
P 1.176327829011517 5.501900318759218 1.5620117682413135 -1.1465993956150449 -2.52321533646568 -0.6962112844327946
P 7.1528829706108645 9.302385092176092 0.4844439120162872 -1.0051892359649526 -0.09022926590090267 -0.1430042436100892
Ni 8.238195844925476 7.572165451293425 10.975092898647187 -1.9906457693876685 1.3456575447959083 0.7081928822747029
Ni 2.002085772905154 3.352201741849287 13.86370960857965 -0.22250558157052647 0.3633138459705614 0.25834213165316156
Ni 8.883981983036495 4.299546834082495 2.4894952251248452 -0.5606514129158926 -0.24742702740255454 -0.6711366008523538
Ni 2.26524238464572 8.594575195236775 6.89488658592455 0.23571256717910374 -0.3811953542366725 0.07773730408147903
Ni 8.427878157746369 4.8529147650344315 5.504517852352002 1.068684942525753 0.21807814192679217 0.2327349726080185
Ni 1.6756986052188192 3.271299559896482 2.690576625446836 0.09627752897751161 0.45058840011851425 -1.1619473388260246
Ni 1.004681987837827 5.4433753360699555 3.931004091429031 -0.8886118190878246 -1.4032404854166993 1.592384975028277
Ni 6.485524164647951 3.1336685584060016 9.764526645060153 -0.46946338264614634 -0.21371935073746418 -0.5389595297647556
Ni 5.7104891197538645 1.4643313643490592 1.2432096478638748 0.12789078500741843 0.5899887284274291 -1.0287004317130155
Ni 4.346434176352091 9.212857585089095 5.096728009334686 1.1007052041860914 -0.0368477649559688 -0.5032394506553268
Ni 6.900428497648514 5.18650529535995 3.4616142718269964 2.365168853810488 0.21684118419589754 1.1418958194917883
Ni 5.8764658209803535 6.029906800211379 1.7786337218311117 -1.3666020082580594 1.3484898720383809 -2.1960733124299856
Ni 2.6191052355415123 2.327097753178554 6.670351223949706 -0.09043881080854747 -0.25091678572336784 -1.4312325997542512
Ni 1.9681177083040167 1.218565728123094 3.883602223256637 1.4337592228308467 -0.024365830438874164 0.8386799672543879
Ni 7.233223851578798 1.0544693851959248 7.495705966635877 -0.4496874855707998 0.008228815667695505 0.7133955095215649
Ni 3.829719199712261 1.8200090884292695 13.489767150451724 -0.5728947490596198 1.2682223453358805 -0.2508661349910905
Ni 2.908446538226331 4.086664080553582 4.720814449248218 0.11959820598132308 -2.1566690996007503 0.35564861611581977
Ni 1.734195522858839 5.530339568659372 12.68037767877858 -0.9806393145397306 -1.080917480036203 1.326999820485405
Ni 2.1847518234151537 7.715764953256372 11.895359895868554 -1.234330577684442 1.7884177071192555 -0.9612737655289252
Ni 2.0209174209475913 2.433295899516233 11.549800557542294 -1.1924411365395078 2.6317045770180356 -1.1217913354324294
Ni 3.1589551677744607 6.280864470547406 8.002501819371387 0.436625510180519 0.5886021324925476 0.7800986672760695
Ni 4.014003668061973 6.333289982534399 12.294194181672248 1.0851178912707957 0.996256452251697 0.03115971343225601
Ni 5.057162838412738 8.158968210910869 8.632676306089849 -0.13638493852135866 -2.347542656088293 0.05087184714920271
Ni 3.9893344897768723 4.00866195368928 8.69342778268577 -0.32289996092988904 -1.5197734222091375 0.696574067088852
P 1.0393142586043955 0.8263388904129789 6.189788708243806 -1.3255965123799751 0.2926545317817863 0.18604605319191184
P 8.390345831891297 7.077827673917136 3.194962625953964 -0.9503846294202472 -1.894536390556905 0.44804455065073806
P 3.055320295934362 7.276556287610874 10.008203306120755 1.3359266906613894 -0.143391708856495 -0.2535310834177633
P 1.287362518835505 4.253435958175305 5.980917385753441 -0.3624437846607822 2.3026205987646216 2.7551437540120034
P 5.135005929997994 0.9820054280490202 11.822546061107747 -0.4670966821861826 1.3437909239008148 -0.11027384325660362
P 4.585099355119432 7.451906715284717 6.487521460652453 0.9961520654633488 -0.29090129653610547 1.1515621389369586
P 9.529206820162646 7.14422958042743 12.59513102720287 -0.5990557237257038 0.2814203536288637 0.19458314412864552
P 6.1389862916047315 6.782882716400017 10.073815649245661 2.274219679024425 -2.071482538330078 -0.4860169161294533
