# total energy = -381173.4362805827 ev
CRYSTAL
PRIMVEC
9.19364855348115 0.00000000000000 0.00000000000000

0.00000000000000 9.19364855348115 0.00000000000000

0.00000000000000 0.00000000000000 13.45583396626083

PRIMCOORD
 96 1
Ni 4.500585180302599 7.785852760184016 9.75141621485284 -0.6197957844865326 -1.4696628787059915 -0.43443493028710345
Ni 7.419108924382781 5.110546989484339 6.846907268679339 -0.3252774600231301 0.044472885601394375 -0.1613387802532189
Ni 0.24246317483147659 1.173615210428589 11.87419473782618 -0.24588333706451848 -0.4514862293424353 0.04067356645996221
Ni 1.8807722724766582 3.548546094479699 1.0822836666313256 1.1031410673210937 -0.6219467693912644 0.8393142584042771
Ni 3.012547188183846 3.190646548619572 8.407554858611908 -0.7683207008045349 -0.3304988563230695 -1.372871643316855
Ni 8.536937075182834 6.227014480293453 11.37394717279227 1.2862635191083072 -0.48754543695883773 -0.039536624642041586
Ni 8.511571798730111 0.6075236535763544 0.7370658396327016 1.158505145913695 -0.028167977793783744 0.7104557101669506
Ni 1.3374276409594466 4.90024227804684 12.189734547819715 -0.11520547623026611 -0.4520901814750214 -0.48497279113565506
Ni 5.004415510191028 8.552796118996154 7.402256047157159 -1.5756908022020477 -0.6055608718340733 -1.4945938376197163
Ni 8.185638569008482 5.110307954621066 0.7260610422735458 -0.7269411094164836 -0.011529855016470466 -1.5891896080194308
Ni 5.680948528794363 8.568314997811738 4.179866588059761 0.42900553174141604 -0.4899363057885176 -0.4818419588161572
Ni 1.6805254125938092 6.7726299430117605 9.723279972715863 0.3822554200700707 -0.7838357657209986 0.7789468130598133
Ni 8.517087987882569 7.500564650867425 1.0979836603240827 0.27796761919357293 -0.013079716002093605 -1.0562405461148132
Ni 2.515023701226394 2.6606694821484864 12.327427822713679 0.21192317806898986 -0.8391702766272451 -0.20213498833397447
Ni 5.010538480150258 4.60288290813495 6.866888744519263 -1.1738032097233464 -0.4431162601111852 2.218525727896231
Ni 2.6411329789001936 8.798330891820692 10.701828024875763 -1.9737698195679363 0.13734344577988603 0.7973039754107624
Ni 9.33219687164426 8.806366140686107 3.6691364249064646 -0.21824320674974673 -3.4059118185103343 0.11722764886661746
Ni 6.5082757715287505 4.5121232092798245 9.211137665139537 0.9091299936458342 -0.6260294241010702 -1.0013312956714433
Ni 2.9449554837690486 7.273895244944297 7.585564528882524 0.7423394462494247 -0.699363456908531 0.7957487151085005
Ni 0.782249864345352 1.5553630807245142 9.688550045811983 1.7653078605746695 0.6376089014085535 -1.1956118209580053
Ni 4.279845677718364 0.9153168952701204 4.959847459933735 0.3211176722184857 1.6803071900625577 0.9465007209848088
Ni 0.7247077372014759 4.525647066351937 5.716307301261624 -2.2604717333107134 -2.4776993543117523 0.7918609500183202
Ni 1.5813902998755334 5.356136924200401 7.759104758983743 1.1142472045365843 -0.8970972308510162 1.4394012516079726
Ni 5.212293098401446 2.375225080805908 9.409771959060151 0.8670932282897583 0.6161180785246293 2.066914973564053
P 3.0923204769769903 1.9669443406866551 10.314165880443543 -0.28409867179197523 0.7579907796334365 1.156045628629609
Ni 9.454564334342978 6.801856551871206 6.569851152307932 -1.196338414711385 -0.5623568256427735 0.096386286641234
P 3.9461897831832937 5.550858401282204 8.83632548333797 -0.32295523964785666 0.11710243614266284 -0.8325671694884307
Ni 3.9133224894832255 4.609392011334852 2.025035328651201 -0.594775351182795 -0.8924173088768437 0.3994278180842992
P 4.02674453210637 7.294479824131557 5.71618594510027 1.5857885527576818 0.610155176072975 -0.9212745994281684
P 1.0641096621036907 2.2712449152820557 7.228406910463403 0.6639279989190565 -0.32563741446571015 0.196469562518081
P 7.0226052481040275 6.498190339028338 12.845557953615 -0.6437407253379042 0.5506081697472776 0.05193062743102025
Ni 9.344148614807922 3.017263529909198 13.162994413312123 1.5613913548602398 1.15173671684161 0.3660333017842535
Ni 8.27363097963879 2.59661733243985 6.085804634814797 0.21159253420244847 -0.304262805444676 2.0802520569925917
Ni 5.149197088145902 5.450969409379759 10.696674984842508 -0.41475673513188566 1.0743076880291693 1.0006923765358637
Ni 3.515522508753645 -0.2558665951070932 13.111634095478436 -1.9037481389631603 3.0941910141257165 0.05721424442746276
Ni 5.893790687241992 3.011609436027928 5.3074519581056565 0.07412593258113685 -0.7414107637875682 0.3523614607241157
Ni 1.0130205569033328 8.359674336768563 8.21665701997762 -0.7976683007287166 1.5257939173716044 -0.1320125204852759
Ni 2.7692280846688795 0.4137095896101312 6.747091825965593 -1.2716737942195906 0.4207995988918559 -0.6740108370763553
Ni 7.484567702325294 6.433099307029322 2.756131732256083 -0.7125038509452309 -0.10428343000112361 1.8528824624615445
Ni 4.693109375372004 6.781538588492982 2.727241610934938 0.13029399513227238 0.2579862909756396 2.352581761174097
Ni 2.092768615254245 6.179529285339369 3.1960432203403943 -0.04722576575618318 1.0047444351180503 -0.7131890499377136
Ni 5.51335750869407 5.74205871095502 4.9718497681646285 -0.37529030160614724 0.9785037562539664 -0.5920867486070382
Ni 4.700776878293922 0.5181990832657271 11.251337917135707 -0.554170176066923 1.4878899432369794 -0.500958367930634
Ni 5.980450018827124 6.609856394771283 8.160250308434291 0.6117353760759013 -0.16907960054090238 -0.22261099680013918
Ni 3.1010544431350504 4.266303433349077 10.416376268614314 -0.3542031419185448 0.2755052736960094 1.289038253639967
Ni 8.198040800952928 0.9119115678333356 8.238482741724182 0.816953888431206 1.449065257060298 0.1887814498452039
Ni 8.608049947006618 6.080357398026743 8.991390157237886 -0.551276913679528 1.77166285625842 -0.3369047598494133
Ni 6.044373457455536 9.401884727936993 -0.017290494898382733 0.05822931595553843 0.2776786271982444 0.2760760585978148
Ni 1.2624074684860043 7.267239043366997 12.746267468235596 -0.34859839413725774 0.7898452051398719 0.13735810106790536
Ni 1.556034217071397 8.54100066785848 1.428592779717278 0.5151315741072224 -0.42133053169466145 0.8704253779867849
Ni 9.474606488263577 4.674381913199406 2.4861804675130443 0.12408658076997985 0.37854094733296095 1.652794843574902
Ni 6.8548947105721 0.8637488009783574 11.274226424658975 1.1734393986260243 0.25580625260518525 0.1426563733523672
Ni 5.71124160088995 5.822595072580922 1.0347479066100103 1.1165128606423094 -1.3291868008343948 -1.6912567470955262
Ni 8.894422906856526 -0.02705047223880019 6.077125830548262 2.017951656291473 0.7619664764517329 -0.8612439685978329
Ni 7.077482136522407 4.234364698156339 11.584194883608527 0.6237606826715515 1.3268172721609537 1.3060383877423893
Ni 4.7182448106100425 1.7773713068138142 7.348876804093672 1.9110865816061022 0.6620917170412661 -2.861883358863103
P 6.712696547870294 2.935973289099128 7.618800487890948 -0.7038993971056716 0.14397972014948107 0.29778825346392584
Ni 4.19667073894787 2.0984227091355154 0.8313393509779433 -0.61943068783763 -0.3688466028633325 -1.2808968554797555
P 7.885842882220923 8.051898563007114 7.605358454291265 -0.9827365633883913 -1.1484899277695382 0.7663818319106092
Ni 7.729330208668487 1.1847854934623188 4.207827231508718 -1.4254226779406935 -0.08091364492693161 -0.6936502085738376
P 0.01113718589881472 4.302250599325935 10.513782975398152 -0.43166508085145017 -0.11332445715746935 -0.2962124243363737
P 4.184930449701719 4.060448447827895 4.24600201853831 -0.08886760966668567 -0.17013709527113924 0.3378244434502053
P -0.1546564759026342 2.8878261514467476 4.196739691312275 1.6246191524716342 0.6294065681034193 -2.6459202063967853
Ni 7.280762900439109 7.417270194665294 5.267124937941746 1.4756610052709553 -0.7629015866714925 0.611950834520817
Ni 5.496165385835573 2.0689294844670343 3.0068673520865303 0.710578351787744 -1.8036661486378938 -0.31878799564404453
Ni 5.071915278119952 3.1531088814370887 11.905735388035081 -0.30014904038661855 -1.0921472873137514 0.17840936258226048
Ni 2.0574466173813324 3.7833151048083544 3.806978636907545 -0.13262290037576516 -0.08418048860366147 0.1645305477176392
Ni 7.899651742399246 4.736457428461745 4.5834070829673355 -0.44052767344840266 0.37773902025695594 -0.5989333392152266
Ni 3.1495969076766896 2.856632101789592 5.933578959598679 -0.7277525495741854 0.8631303869872683 -0.24820401477789514
Ni 6.147967489738716 4.182714780392148 3.1806365040375764 -0.09002512030989657 1.881091835016225 -1.4153475530928785
Ni 4.977781510233238 7.61291103660584 12.181902478588082 2.7438360423086685 -1.937429590376005 0.01832476645111683
Ni 3.111912142116807 6.487746354233016 11.600018991557217 -0.41558694434266485 0.8305357408806986 -0.6887129191732203
Ni 1.9718537490323436 7.7525349777031645 5.30496231806818 -1.309039122241926 2.3803049381209775 -0.7390749165655401
Ni 6.655521247305056 0.4190327121422542 6.424905008043344 -0.3023267647642277 1.1022602073780372 -1.1087707548030454
Ni 3.20343491380469 2.008922540136868 2.9082765033646307 -0.15647939527838856 -0.9716111428991913 0.2470066520356843
Ni -0.2323685486824766 3.995881453798362 8.281594518045225 0.38560711015112303 -2.7180897865824996 -0.06748194490205797
Ni 0.8979280283318521 1.369872026824493 2.699792134347443 -0.2793498442530802 2.492012685610631 -2.6245111445933897
Ni 1.6763514961351151 1.1894650605933215 4.7367497864868255 0.31976064396995896 0.23013764419448748 1.5872450826985502
Ni 7.726185980851585 2.612807347602317 10.145147086717623 0.8965742684680108 -0.7324406990784741 -1.0043209744273864
Ni 8.08827783046758 8.381665544189701 12.254645384306418 -0.7862605731124072 -0.26730036928771383 1.566823581619405
Ni 2.4534354493391892 5.646343635511269 5.578936723433079 3.932791791402736 -0.5856134821778689 -0.33120590969242314
Ni 7.972097693268207 2.9395312311024635 1.8899125979022828 -0.001721610676797035 -0.8021674741506508 0.8779800504055912
Ni 3.666656897882434 7.180524549890341 0.7935332292567069 -1.2851006091484576 -2.527786243665814 0.48130742646892594
Ni 3.5704637527121363 0.6437843229700436 8.802349435618257 -0.6390633744668929 -1.5111831094369652 1.4424559792738965
Ni 3.6932908978402237 4.798753591290182 -0.5616776861654089 0.4858917034054987 -0.5114505257112094 1.2834101088199124
Ni 6.244454831663811 9.287883485452841 9.199296245758925 -0.3544162863706154 0.7037194198843816 -0.7446637235072271
Ni 6.879193523788681 7.422133634768046 10.264795987529036 0.20672877835224396 -0.40084860969122577 0.7689755607797144
Ni 3.232128291046064 8.680753320036029 3.6034992901813547 -1.0192212885779868 -0.5805970027998839 -0.6604256421927529
P 1.6139817841179784 0.9226469912888797 0.06783533610236454 0.08983408734501304 0.9739631880711356 -0.02564881091635583
Ni 7.407800736620239 2.237632936046406 13.135100883497856 -3.597552592181204 0.39413211690299865 -1.2820803342648952
P 0.06806241922247411 6.525899995870857 4.384193589185713 0.030572987690850574 0.1739860367035842 -0.8963084164011338
Ni 9.358950389033687 8.539658395164714 10.426266795764674 -0.2533765601177701 -0.725488436130357 -0.91687929857395
P 5.940476034768971 3.197817594517769 0.9852024150074822 0.26257365323600584 1.3177875578585176 0.2397134608083807
P 1.4608891478400665 5.652301119795926 0.8286603217795658 0.12114832407726232 1.074398962191395 0.601899363822086
P 7.09597975748032 9.370994068683222 2.2979874002931773 -0.820435162111587 -0.48306143304555516 0.3622902898020535
Ni 4.812213092822182 9.01440002092251 1.9834303913336375 0.48897368476493214 0.6981421829069202 -0.7605045471942258
