# total energy = -340892.18650028604 ev
CRYSTAL
PRIMVEC
9.06052799124453 0.00000000000000 0.00000000000000

0.00000000000000 9.06052799124453 0.00000000000000

0.00000000000000 0.00000000000000 13.26099856739276

PRIMCOORD
 96 1
Ni 6.539236543475379 2.1010457707980095 11.433659316383931 -1.0594947913860528 0.6883791899828854 0.6595758925979479
Ni 4.799660525689516 0.3817354353423196 6.170276452204925 -0.71792450774017 -1.6909032204108492 -0.06535949924241646
Ni 2.6398209905777876 1.3185785977154438 4.78466082206471 0.9875365558801961 0.9526723970131592 0.08498267278998267
Ni 3.5334698991964366 4.58815156681458 4.975606007247796 0.21346841106892267 -0.7071726685403047 -0.2538846101024402
Ni 5.165723966250908 4.521928169778216 3.060452365328701 0.23264318422516062 -0.7321951587265714 -1.2881607361310203
Ni 7.358036432677225 6.0924075589022 2.6325471989317633 0.0900469746867675 0.3684622229407203 -0.7700433399225964
Ni 5.195152560254754 4.365452856217124 11.523343137821206 0.4297979457357243 0.03136025947883631 -0.016419836118920107
Ni 5.8400899832189745 7.992255251359873 12.246425800183326 -0.5875922031707945 -0.9110778614008246 0.2740402591147087
Ni 1.7500590483469622 6.675823998711827 0.49752988553584077 -0.16160334676851523 -0.49084673341792884 -0.5669511298816752
Ni 2.8055018002927925 1.536964497122682 0.29750786369233306 -0.3431394279052155 -0.30460193395164964 0.4399599738703907
Ni 0.7345514783381253 -0.11784575366718836 4.764464905797909 -0.6532761756321653 0.573904935491689 -0.3209217541575957
Ni 8.608751677840695 2.6522792161797857 1.4895552858772614 0.6590624432966391 -0.9480022452309996 -0.36309015999552946
Ni 6.770089729012325 0.605592987433955 4.754373290033905 0.1933382159779509 -0.4795117680210839 0.38227650311599326
Ni 0.7871868019669876 7.714613500725678 2.5883879989761147 0.8695483746984701 -1.2484680455270887 -0.4412049020210853
Ni 7.708470462937928 3.8564052278556393 3.7610051194857816 -0.14343490338960457 -0.23828161345786059 0.5023655326908057
Ni 7.488770787012662 3.981712326092461 12.787487897157245 1.9570129118245716 -1.121264516394682 -0.686996450702746
Ni 7.971271069182253 8.90086309122863 6.95489006430212 -0.6475246178603687 -0.35719642021891385 0.1965040153004422
Ni 6.890875623921586 0.6277939984831006 0.4759024058907727 -0.18631961856827267 0.1683802604810326 -0.17625323547120614
Ni 1.895752333932507 6.568058082122619 9.135130283606907 -0.06698520777129754 0.0390339739740102 -0.48424722582354024
Ni 9.290030877451908 4.970152475618819 1.2792767466654178 -0.18096041113888836 -0.49936274130874 0.3640417252755214
Ni 6.415179798062613 1.925806104348381 7.07344253913073 -0.010707359115175109 -0.3254988320053169 0.22741201773320832
Ni 3.416552849619579 4.317305211963293 0.33298617204850955 0.9742570651624706 0.641478925886921 -0.42449067459019796
Ni 6.152832218203817 5.731816677077976 4.776107683905957 -0.26850724511162144 0.09860874821384953 0.8100864718874115
Ni 5.1103278998286426 2.80113462593631 9.571735368711511 0.746460924616966 0.12602802076706685 -0.562425988317812
P 0.2709433024977896 5.637152283558214 12.390917659794452 0.1665871731363518 -0.38973090251150944 -0.823538483627259
P 4.229889240611967 5.994843796515063 12.459888208832654 -1.2231624768827645 1.7702929724940868 -0.16547131436435375
P 2.4357507249532087 8.640708159075784 1.1327598591109846 -1.4911465025010642 -0.05282588555177999 3.1748015259899325
P 6.326413808082416 7.652286130604847 5.830622637814227 0.8972491830478484 1.0177686152918601 0.15189974632750614
P 4.753832376529585 0.9463993009494349 12.571677905778115 1.1348749080892648 0.8704099513678171 0.0941478842290185
P 3.9586714041245483 5.938387648350665 8.148989696013485 -0.11992782140659991 1.5928464880457276 -0.3023609604362728
P 4.848795767463795 0.9213197602466495 3.6923127286482935 -1.1257192097319255 0.8215474213391593 -0.18796281059865047
P 0.3823669541237445 5.471607381758867 3.530064046830043 -0.45887892226208066 1.081965718795059 -0.20553347249256212
Ni 1.3512961632782177 1.289657393263388 2.5412850335673105 0.5672414074285844 -0.4795763027104321 -0.10538643325731528
Ni 1.9079025015923465 6.697460538884607 4.721790726334018 0.3814090129093754 -1.10999974211414 -0.4898296050073241
Ni 5.7961736054059685 5.637949609996742 9.363816190915491 0.4245017303337915 -1.5844744619319486 -1.334720071947798
Ni 8.772846895206355 2.4628235817523136 10.31008139605481 -0.03902291823041667 0.43379009761425297 0.0817309986219044
Ni 2.215063451507493 5.374252011509074 6.789737483352639 -0.13496183292158692 -0.41579726058125804 1.0520301075778915
Ni 0.4487824343475729 0.29611797874153567 9.61301694506629 -0.031427365271345875 -1.419903033674045 -1.8835138141941563
Ni 1.4304851754683707 1.1326928112059265 11.481438197159942 0.34288051781687395 0.7080075057367742 1.4550063051350812
Ni 3.888651645977465 6.686316089800637 1.524856007890311 1.0912502294207787 0.9040152981270883 -0.36066663815570144
Ni 5.725302157654094 7.7867806039401595 8.179490150445488 -1.0143099673192983 0.5702326288464244 -1.7856206039900926
Ni 5.065170229719293 2.596738181314152 5.12306881389521 0.0886351819409054 0.45758385759974096 -1.075067191903013
Ni 0.694327265567166 7.451532018122326 6.752978016378193 0.8321655631746379 0.01737140139891202 0.7698831601956482
Ni 4.96382822727686 4.113905425389295 7.041298504972034 0.04319093356517723 1.3436687965006537 0.554939964353412
Ni 8.50236296146349 7.0538835779619795 9.209338723714575 -0.8910427971268202 1.2008471012150157 0.19350688034533126
Ni 4.77824143818179 0.3545891882687592 10.509181962230155 -0.896612577905114 0.011309511475548263 -0.5189954279380029
Ni 8.309935473946961 7.103888630396471 4.775524185921398 -0.6204557866680347 0.12381198695235453 -0.3336751971685221
Ni 7.34613995979328 6.024317693157462 7.07202366049126 -1.9774557530599557 1.0833651702457472 -0.9698967313112459
Ni 2.4108070921660816 5.003440854427358 2.567501670497769 -0.3605992752528758 0.15391960497101234 0.4233406201461548
Ni 2.2186604810085786 5.601707499154566 11.211882061454636 0.10511003966747703 -0.450725697027327 1.365081972069107
Ni 1.076417873595739 3.373216345580048 4.0228833640091715 0.45035417262052113 -0.8543045611655222 -0.9249703031122005
Ni 3.6590759948477056 2.685558534460613 2.7875809825341076 -0.1495055350637167 -0.34945868525502394 -0.2038691974162618
Ni 0.8730253354439089 3.3499942130579234 7.881514763523292 0.5745266282360879 0.3101323768515756 -0.07806331996233007
Ni 3.496095222390443 2.1902194845251817 7.088958692835036 0.10157117327628315 0.9066406515650773 -0.0647923138850368
Ni 4.307492660452775 6.88828431299637 6.146870390970278 -0.9131152035458274 -0.3742284360005361 -0.2650889634586918
Ni 0.6295988556030409 7.7600701682494755 11.625108266907722 0.5165209982555815 -0.8961346098274308 -0.6632093755854772
P 0.14206635634301415 5.607143815780893 7.752047977014561 2.3685948487729016 -0.8892872478882942 1.0951590775568816
P 8.576478078135738 1.643090458196282 8.143194582489821 -0.6071143323641222 -0.2587627641303479 0.2205037206491493
P 2.004614574374691 3.495977435530206 10.48594895707478 -2.6107922523454006 -1.2904014525360807 0.8614283166944972
P 3.9676232055025653 6.262319635058028 3.697498068657038 0.4021904684311009 0.6020883399044404 0.09040024426112818
P 6.972556281232138 4.03118280739203 10.251812236295534 0.47547539316818116 -0.8766209652745355 0.8217150572652753
P 6.443910731432748 7.572779999944824 10.096698720049336 1.1943306402527365 1.3125952150243008 1.3867594570425408
P 2.631793363026246 8.428148178986424 5.856561116543972 -0.35601396987503847 0.6048928992327711 0.861500050472697
P 6.934456762209301 4.021216226910433 1.6985345454154126 -0.3290965766589042 0.3339145668728379 0.11759043152267491
Ni 5.393297240756637 2.9020960862149 0.6157434966280773 -0.579493228212744 -0.6979575776999399 -0.6406718566045935
Ni 1.4632842857805395 0.9644025695102856 7.066016530619168 -0.9048151683205643 -0.24555834962493192 0.13498831528414817
Ni 6.767453115448557 0.7870726393178348 9.273217256179452 1.0270888642515215 -0.15132484766064264 -0.8116358186524022
Ni 2.6568276010904786 1.7007063539076301 9.380843640641917 0.2631544654401403 -0.5110849148416746 -0.12370554328147726
Ni 6.533138808326183 1.975222222481687 2.5943018054127864 -0.6597782384167411 -0.3054843365566029 0.7249014532786354
Ni 4.244322661254864 7.045457287191174 10.336497364594901 -1.559697512097585 0.04764845511589858 0.5187997669874291
Ni 8.26060996109076 7.071732817551751 0.2887898239292478 -1.173930993550462 0.7964436842929962 0.7609768588449539
Ni 7.301679950317642 3.888316406452175 8.08667591668422 1.2950399797493568 -0.3233439904458431 0.8404046632549785
Ni 3.141294017773257 8.268483559671223 12.498079239185367 1.5643103282792479 -0.7929449271111183 -1.5149631453046877
Ni 0.05461142472253189 4.8031397683303645 9.823813746463177 0.4278073976682568 0.04466468989722631 0.7516779500415313
Ni 8.5535005798618 2.003246434690399 5.900520984889989 0.6245255858620342 1.454555847861224 -0.5439099317914955
Ni 3.7043514518172933 2.582422547531493 11.651603968091665 -0.33304759088685226 0.33258504942813694 -0.8485442616429772
Ni 1.2918319199139185 3.4987046543710796 12.563190909471647 -1.3139769258631757 -0.02746812351328173 -0.48159333314046093
Ni 2.9978115009490853 8.439627867595684 8.159359469978204 1.2145641936907923 0.1939694218040466 -0.09853701443564966
Ni 5.579146785155312 8.001551352790889 3.1964844102164927 0.330867809626714 -1.1161549630822585 1.0011713730548113
Ni 3.0759223103416837 8.439899683427 3.48328001199665 0.715852969923122 -0.33060195755983707 -1.0654085857673263
Ni 3.318173639738494 4.208388608354847 9.173228896576973 0.8669158221716297 0.6083530898672297 -1.4616708616394505
Ni 7.353234352990636 5.982902020992566 11.305769967749605 0.4726471796907667 -0.04243631478733982 0.4744469519036667
Ni 0.32777002624554946 9.211023075815966 0.3936527474399979 0.6184166447508189 -0.012889711478474576 0.5892562211367787
Ni 4.676093048773119 0.32615362810198845 1.3467070059928272 -0.5951576742228782 -0.5015450936720395 1.085290155182602
Ni 6.00196537129555 5.472477192419079 0.35771688243443894 -0.7052805937239144 2.1084115501459433 0.7542943046184558
Ni 7.7565093808592325 9.184838150732492 11.307573918816773 0.58026121672702 -1.2153769194000748 0.24825955060617888
Ni -0.04040814148348338 4.806546526749529 5.6387750240711725 -0.12332553423423923 -0.18992044854565357 0.7684225164897218
Ni 7.903126840271253 8.848466059478554 2.650661005930682 -0.42799277420618553 -0.0035519790173164636 -0.22888011763830257
P 8.557577817331545 1.5794946141959747 3.7582733703810525 -0.035887715035544644 0.20947188831501992 -0.9705171385040641
P 1.9548179140775424 3.172879017372213 1.336005616713904 -1.4554734745794868 0.0887169430214343 2.4147826601828735
P 4.747453765021362 1.0918570128145055 8.329511650118361 0.5417306647519896 -1.4464494167040056 0.656091019373141
P 8.371809817682264 1.7597175708864021 12.64231921612614 1.1795036025422332 1.24443604154956 -0.7402815352791315
P 6.224999321418299 7.647918956248364 1.1449625778315453 0.9186397329084824 -0.7555765137649891 0.9190829910934882
P 2.047425567807011 3.1367003302240115 5.916261839681517 -1.0935927615110264 0.9442762025296642 0.152489300282389
P 6.8813620698255145 3.7892123543542464 5.9365510793837375 -0.37477299565009653 0.5035099307078942 -1.0212313770294799
P 2.431854698037675 8.526826386281959 10.465672402111354 -0.439104824958947 -0.0820834968653167 -1.7937748576661106
