# total energy = -340867.46203418094 ev
CRYSTAL
PRIMVEC
9.22388946052683 0.00000000000000 0.00000000000000
0.00000000000000 9.22388946052683 0.00000000000000
0.00000000000000 0.00000000000000 13.50009459051656
PRIMCOORD
 96 1
Ni 8.106885685538938 2.1309121709485943 7.278616383641199 -0.7998025734629 2.397040505708104 1.6461462279101327
Ni 0.08576649152731275 6.092895537605325 7.274539424492207 0.4068289956443768 -0.7840735927634174 2.193052523325791
Ni 7.765057565397547 8.875770664592498 1.9195651913539031 -1.3629795810141236 -0.4861084474019951 1.3211598167648602
Ni 7.018291473310687 8.61177372386105 13.202485068962897 0.9988584086509184 -0.3085442064288492 0.6074215791918958
Ni 1.8459308816561588 2.480635940482602 13.488781684894803 -0.10550984620905701 1.5341145214221579 1.7054482081045597
Ni 7.552935779086758 6.337780579339688 0.8692086129540402 1.6307445486430816 0.3833005735051334 0.767615190097078
Ni 7.966913162720037 5.442334612767305 9.326554134407278 -0.006986458620162161 -0.24305975157279433 -0.33745677569814136
Ni 6.186711717479527 3.100702686708479 5.665314761770839 1.1404732281126486 0.8423106220284396 -0.7871262635468121
Ni 9.222219953362044 7.599949943752848 9.74045311498 0.26089086621694424 -0.793946114682123 -0.7556122520989309
Ni 4.955082651125897 6.264044806857693 7.466659206471347 0.2167846199263492 0.4054228593254695 -1.33156867080301
Ni 8.358790107165568 6.259082354318874 11.98337282063004 -1.1064194809620496 -0.17268582983492195 -0.5301486163413449
Ni 9.140219575908336 4.22747457748351 10.92179261351413 0.2937670481196747 -0.8231042243033179 0.8000522275798607
Ni 4.615385249453777 5.75691536339258 9.630765388482109 1.2831779382044481 0.6313909455232998 -0.30275845298500764
Ni 2.2828111828617166 2.174974690981931 3.000962925011917 -0.055553311785272064 -0.3537997358325391 -3.2430550589506923
Ni 0.6526999448078199 0.3081129593237526 2.6036014558831497 -0.2568287803324287 0.9799021792633898 0.6814140715189619
Ni 4.768815427020141 4.152714953269528 12.720437225764615 -0.11946990793357487 0.20235816008837407 -0.09244401416403433
Ni 5.258290346025592 0.6523558937303144 11.086534046746577 -0.3757083629801723 -0.807800504066712 -1.2527011097718297
Ni 1.5455549208260135 6.712897716604861 11.27657476403752 0.03348373357974234 -2.0579058280869074 -1.8466241402566586
Ni 3.9588841397923384 4.929135850026091 5.50389392875024 0.34054132816073607 1.2629099319840313 -0.026407286348935168
Ni 9.086840927502868 0.04663782997541472 7.9823631775946104 -0.00756829926556116 0.40277667995187405 1.011317717460194
Ni 3.0782148441626815 4.515555093640337 10.674700295027836 -4.0500456655215995 -0.03615768086747967 0.4106517118245766
Ni 2.8615456803395554 0.37184542366755396 1.307381181075376 0.15011900027799951 1.4993832885885596 -0.27016200710622507
Ni 0.20561156511767031 4.615053189432593 13.463981413257033 0.5370206608708299 -0.46423247326451017 -0.14093553400651856
Ni 4.672001483065798 8.596019320633724 8.641370418027048 -0.745938990675225 -0.3598811661399286 2.5741679162541478
P 7.260058840401705 4.496470866311685 13.004411266326123 -0.09631943795904058 -0.4954960592644821 -0.42824551364693986
P 4.123429104178918 8.963471405743213 12.966787021147983 0.8002496883026476 0.462682355168571 -0.9007034601450359
P 2.272858606115648 5.928267558213449 6.807570795811509 1.6285308288212148 -0.40658654061626753 -0.4005542183792586
P 4.102998188986572 2.942909609419325 6.226243463001586 -0.8318578021262318 -0.6002931956772307 0.30164336554395793
P 2.241266784655699 9.03517792254019 8.968639551017377 -0.09202389590748024 0.3365571467020074 -1.3210844834422344
P 6.579953797567708 7.712859574845181 11.356603996309916 -0.33307870123510375 -0.35314770407083695 -2.299608294300859
P 8.884053717343166 7.9544793597045595 6.399854588355461 -0.8862980833529832 0.5300295742649774 -1.5883398584246258
P 1.1416961439493951 2.505116143155509 11.399547658549649 0.28418197553440094 -0.9034095462222893 -0.08162995426766587
Ni 6.057512697570181 1.445337361654525 13.108200315503245 -1.6919041508715378 0.5728759800065424 1.1632416321574162
Ni 1.6771890475573816 3.0021823232008242 9.249360325760222 -0.757735726199837 0.6257244912661417 1.4925706365421003
Ni 6.28454028927638 5.098301983040827 11.017751502913923 0.8093305675579933 0.27772387861388304 0.06982627676451846
Ni 0.3337599840155451 8.907593083289383 0.4247887044896902 -1.327693761228636 0.8849899060645211 0.2726809168733368
Ni 3.8327751228579072 7.248528978555007 0.7890465566731699 1.254825098093368 0.1615465253886508 -0.5992866087895873
Ni 1.6036193050859788 7.11521610393876 13.446904304278652 0.34202459757448195 -0.42707591881887097 1.3861171954728515
Ni 3.327628815630427 9.009461718677317 6.835381744974691 -0.5057444764653677 -0.21780431944011522 -0.2077515631898035
Ni 0.9593121773136064 0.026278861120991363 4.949904359573309 -1.18523921947443 -0.4358888891248106 1.7450591376279623
Ni 6.056110666369624 3.7959625799537737 1.172968818833428 -0.9316292031896148 0.747000856280836 0.8433897140252314
Ni 1.6991972478503565 5.480078768508651 1.7978753398680745 -2.2416566574867396 0.7928837348558797 1.0849057752599895
Ni 5.818420258427599 6.461491385010006 12.90233786059179 -0.5584145531655738 -0.08071438443193195 0.7647383827699152
Ni 3.0383215221731104 7.289141763923812 5.095070854556908 -0.14517374045758222 -0.6227949763241726 0.8988468665522713
Ni 0.606977124668559 3.6457792114834398 7.183778196812906 1.1146657801312416 0.514706570754662 0.37040083472432983
Ni 3.4409074023018538 4.182129936812821 7.937015769757078 -0.24940112040978982 0.3389372168984098 -0.3523717451367609
Ni 5.880939781305128 8.499574332258476 6.833815528541435 2.04537092884469 -1.6901131204093862 -0.22578090988768856
Ni 1.8771445236475364 1.5012986991136525 7.513193728884616 -1.266304045267245 -0.05617911829472906 -0.9145287960639024
Ni 7.691552390152485 0.7515256190571753 11.316049321444819 0.3658049878235313 -2.4649610808094775 -0.41701647770033984
Ni 7.250521338682116 6.3947934401992335 6.149522839884718 -1.455105549717107 0.6347673181947003 -0.3508735633246796
Ni 4.42622172405213 5.975254051211108 2.67601544500304 -0.13870895866884497 0.0495623843091598 2.0386791186468116
Ni 7.701966161372422 0.7254229342252014 5.783602842817418 -0.3229943204159082 -1.0774377490177185 -2.282044831495799
Ni 6.4480060585941095 3.466974113964866 9.030996733440103 -0.5770709919244965 0.141386248390692 -0.6951627885636221
Ni 4.619489880271201 2.5260267006006782 3.8678314372055524 0.09195293346022873 0.8269377391167951 -0.4045412280514646
Ni 4.593902810861012 8.121404087576297 3.559407632806413 0.4029250326042803 0.795287716311682 -1.7955556037156173
Ni 1.030963350773719 3.928482200074968 4.076177885553259 0.07833457134584575 0.7260317102283367 -0.3549117379497952
P 6.465337746922064 1.3115725164538874 3.769901402624448 0.9804331120661953 -1.1905585748048142 -0.3778742602832395
P 5.970365389788109 7.426697627699643 1.7794072683565092 -0.8066617624765786 0.6615620697900413 -0.5419463803072215
P 4.747406779543194 3.4952453352129664 10.51240227011794 2.2214501006318774 -1.8878898317746646 -0.9565061689369526
P 2.8278415881892913 9.177318059386268 4.019707389394981 0.2989817595513948 0.6086240841404292 -1.0284312372120288
P 0.008439858871782063 6.743207417427457 3.1123257098388972 0.22914725525676022 -0.553774226180085 -1.0344252500119346
P 0.4014255148324915 2.241866337471727 5.367772379788137 -0.09030974142985092 -0.35639757846670234 1.6944086624609462
P 6.939417994389804 3.699849651599709 3.5272909720352015 -2.3940780806456705 1.5041028055514163 0.6029530018975809
P 0.3956947123002093 2.3235992221305914 1.5414945646780809 -0.470768474610815 -0.09671101697050441 0.6986672021724548
Ni 3.8077968301532232 6.311916793245178 11.829674227879886 0.22870888216776095 1.15423582911438 0.726116299522343
Ni 2.6863010041592412 6.672801469046788 8.785389461159664 -0.9828880013645911 0.6171035823663502 0.3751961992304441
Ni 7.0126649007295 7.472752507860089 9.032103600177386 -1.7818801631110537 1.479973002382748 0.11042682389470013
Ni 5.052855879585886 0.5830319075853391 2.1485537819629883 1.7699458735673133 1.2044656718042095 -1.2494797746210544
Ni 2.102973009721679 0.29746121175530027 12.660766962346642 -0.35590624065258064 -0.1368971022710868 -1.7787603865351498
Ni 6.72997113602745 2.7357318278684 11.286807747023701 -0.3601724721281023 1.3210325471583764 0.6298683382311862
Ni 8.426456560371463 2.13766405804602 9.622624383629391 0.35558768097089727 -0.019809321416443305 -0.2876107987102917
Ni 8.393398140484614 4.296432375216234 5.459559303977322 -1.1610636506694907 -0.06784627022001219 -0.921706287648948
Ni 0.9346474968511527 6.113224990013421 5.1306842918289846 -1.0103795219166405 0.5483031757631848 -1.291639181597924
Ni 0.7702731744199043 0.4674787097687959 10.589406989030712 0.7030074814190216 0.7810944555304354 -0.5258893268443589
Ni 2.597511844050198 1.8021911977545297 5.1364621361976015 0.18064133723657277 -0.008490039748882152 2.191515517855974
Ni 5.402339827993483 1.7408154371721936 7.327324976804281 1.5477375115222314 -1.3418721096115471 0.9198075279643384
Ni 3.560458233817884 4.528154926666408 1.3379805120275616 0.6120660199424426 -2.216942442569511 -1.5773483924101288
Ni 8.288882248816677 4.570501803256955 2.094364353672461 1.6966997724879682 -0.7863009394320393 0.5700279690347859
Ni 8.548580857051675 2.424453229676018 3.486642213497435 0.46323925611330546 -1.9801500120626674 0.10790868545853674
Ni 8.647719221154313 2.063623897211272 13.035178472066796 0.9244964487995756 0.7099761994273708 -1.8046408538463374
Ni 3.1298778491253603 8.378344752857567 10.75503944998667 0.9464701248571893 0.21879213727468125 0.12477923596163026
Ni 6.735404006929612 5.943505423630044 3.334550422294236 0.3165400801501323 0.8249736734118889 0.8904553000544665
Ni 7.985526971685344 8.08021019717042 4.339618625749222 0.21442203323144363 -0.7907006111616317 -0.24909387358201612
Ni 7.414549765257964 2.0145251335232985 1.3404598935190755 -0.19110007067605153 -1.0758179540261084 2.3590542562723176
Ni 5.08544388110939 0.54026995596831 5.298692826714312 -0.8431351748122641 1.0294655920138143 -1.8814669589674566
Ni 2.156960434832652 7.808668114846493 2.3193433195257387 -0.98832794143324 -2.1777686005835264 1.9356532152018728
Ni 3.7379350912517184 1.7350505062488448 8.859437001105993 -0.004406356597811766 0.13995157282669446 1.9176698912505747
Ni 3.485541803482786 2.3062583099131597 11.999316313591653 0.8739241351686626 -1.1483019801284482 -1.5183356613213463
P 0.06309786074775908 8.118378651827724 11.950823559442341 0.3788654205519153 1.7620358746916167 0.15854861910259146
P 7.406478861965276 4.5786280498865075 7.402804064397497 -0.22804065245614275 -0.4718406246290712 -0.5860670247755198
P 6.520791770459937 0.6193970918498208 8.875083484826435 0.7361508009402097 -0.07096733234749714 0.6156907611792235
P 5.2640829486173715 6.8840469858572275 4.98266853738583 1.4878986849877278 -2.023636365381076 2.779622712989974
P 0.9199326259679242 5.1432407725745115 9.215488358821469 0.7978953291378581 0.39263187820838835 0.22775911665998197
P 3.0571567044858745 4.113633333553964 3.6994714721311377 0.7946354274396638 1.4332861398491703 -1.5664484576681732
P 2.3445743468021023 5.073342138115097 12.923100835805322 0.21123309398050072 -0.013145022022390266 0.46579133311119786
P 4.007890664585538 2.414371518477266 1.1207671387252711 0.7752194848068972 -0.41313411192679816 -0.5378058757762867
