# total energy = -340871.1973578513 ev
CRYSTAL
PRIMVEC
9.19668278904216 0.00000000000000 0.00000000000000

0.00000000000000 9.19668278904216 0.00000000000000

0.00000000000000 0.00000000000000 13.46027487670352

PRIMCOORD
 96 1
Ni 6.587859854267315 6.9022484588463895 8.640338754824267 1.9336045602029601 0.5576974724938911 -0.09155621224244233
Ni 4.305004047327276 3.8858284379047325 4.340238378813697 1.2985392511518667 -0.7203259180928111 -1.9173847559099884
Ni 8.003220154285303 6.900491892414486 13.313302084562212 0.7461397938321215 1.1482125057384356 -1.5686210398394598
Ni 4.345910892819969 6.976088625766541 2.795564440354115 0.9799811121304413 -2.079775117356173 -0.5482532963618558
Ni 4.309179341359128 2.4859645485556268 2.08249319483527 0.3443293344482586 0.9040638919768365 1.2147549695453597
Ni 4.779617261207991 3.3114496080382394 6.679984866108458 1.7889517252458547 -1.11960101264933 0.2645516028979831
Ni 5.653394102543601 1.4747156913871073 11.211157417728565 1.1645066149127685 0.32010748578641646 -0.6249624162891365
Ni 1.8974964005023516 9.141714315913557 5.6326004025303416 -1.764453225883858 -1.0084259977346954 1.0892419407414984
Ni 2.7456052998932434 3.467075875895109 5.780515251784329 -3.684251990551977 2.1661071050851985 3.0554576021112605
Ni 0.9616603430280961 0.849557376945995 0.9688539883842976 0.0945669740443081 -0.5158638242875567 -1.841020678026952
Ni 7.188072166370538 3.33383433419139 7.502353169759804 0.009279111309080794 -0.3194901639173917 0.40609443147119734
Ni 3.632257497274215 6.545095278830933 11.559684109193627 -0.7466588995603851 -1.7904424508587684 -0.8754590837559504
Ni 0.4055470450485268 4.725448798988575 3.4672322195042313 -0.5086385101837111 1.1657661983514827 -0.4483456268309246
Ni 5.279751270107193 4.628773268453685 2.352815893349092 -0.05873967993305367 1.4505518689081534 -0.499752777658307
Ni 6.320539872716928 7.776098873645115 1.2857440907093276 -0.44424934527436394 -0.26937807775234895 -0.23224054947010322
Ni 0.6475172898821728 5.540504820074444 9.89145825412275 0.6901990168004436 -1.4962339443263004 -0.520173250296188
Ni 1.5581388018781643 2.8141941608834653 3.918635764776604 -0.0935606442669808 -1.409035751942238 -0.3605105721938114
Ni 2.0418935185510874 2.9887655954927963 9.464026782470263 -0.7108226065880662 -0.44218937742154174 0.4062363563657004
Ni 2.9131504687749628 8.416500689975647 3.5898286007633025 -1.1734705089742758 1.1738960265474687 1.3794534102994307
Ni 8.351185848094103 2.1950090919791116 10.855671596320983 0.39352199412282546 0.08684029482401173 -1.1390868892880834
Ni 2.2901579731543373 3.8581004389927562 1.7999076393565292 0.24557069092010608 0.7092493485636754 1.1124626018323356
Ni 8.998328832982672 2.9492566457993137 1.7199939830561226 0.5693738803905549 0.10359771678800869 0.02354333453757881
Ni 8.544996743308362 8.69577635928244 5.209813255737075 -0.4900473774450851 0.34453605114242597 -0.05451047234305451
Ni 6.443913373680166 0.9207351041696236 6.304348192821596 0.5212420578803346 0.3696477586083892 -0.9356815188821177
P 6.5091546420985935 3.9672466715258685 11.534069508009667 -0.42510131159100334 -1.3912745713040748 0.9939087779551271
P 3.2452886713308575 2.142983456872959 7.779150333027865 -0.22990444513775887 0.7369380727281953 -1.1180130993369197
P 1.187558464843974 4.735647920313079 6.729491529771164 0.23397527277302282 1.2376251892753136 0.3124021467223588
P 5.065624902389931 7.5755284165070425 10.320477073241971 0.09637754489048564 0.7276407065866695 -1.0547423643027318
P 8.182822174435215 7.579574956978441 7.060748690106241 -0.1838981536109736 -0.3078404954936053 0.8971440249285516
P 1.2881701756555897 3.2749755636983062 13.462159593812377 -1.231033137880093 0.15260037193895654 -0.9048650477218932
P 2.763272127724058 5.251526650319181 3.570445671905299 0.8511140792526826 -0.6391384506792025 0.46465824794801913
P 6.810263236585166 1.6143121409675014 8.724035006797145 -0.8392962606821481 -0.7340934041905487 0.07535414856128313
Ni 6.122728420445719 6.40022912995483 11.834004605759533 1.5375942524406423 -1.555239219215915 -0.5660916100948573
Ni 1.953734116371915 0.5075235436009505 8.173213480152219 0.18721796201282595 -1.67560104283614 -0.9483938242424634
Ni 3.457051491545506 1.540830644680042 5.181680602777959 1.5235406025610536 -0.4932239754008538 -1.804174198622564
Ni 3.552614223450761 0.8987522730587457 10.086591632336523 -0.6739105640530653 -0.8550638079290499 -0.324451364577409
Ni 6.607034938092014 2.880189557298835 1.5644743967207717 0.9341707386645459 -1.2152928443267006 2.028802482963048
Ni 7.322205786314543 2.119044491311475 12.937989134513062 0.22159592527206354 1.4417283570792527 -0.5606609259975893
Ni 4.471105336995336 7.278806639758783 8.11180814816702 -0.8001154767176285 0.2600496012625715 -0.31715303114378285
Ni 4.867666303192489 8.118730491377981 12.64078637124968 -1.7461351443009605 0.7550234694749965 0.7992055633088495
Ni 7.849957433931046 1.8818436462243469 3.6222542652952576 -1.308476821980553 0.7542012306840172 1.265100511877447
Ni 2.9940812782029527 5.033436512276526 8.166483347613651 -0.685381283696826 0.2657659349210584 -0.3969117365306648
Ni 9.245241375201159 4.371367311058227 11.837598669432769 -0.10804932480145907 -0.8738534298317274 0.9008065613818035
Ni 8.383089141037932 6.8334296807839285 2.185935644640287 1.5113291480965263 -0.1892067103080806 0.6938759514313986
Ni 0.23390935228096033 7.548094711447532 9.040432166919295 -1.6531439993842045 2.134748645378575 -1.6619955362375636
Ni 6.396568850164791 7.051740539215932 5.8529989079782725 0.005416028809248737 0.6824772226761536 2.420989303214218
Ni 5.484037187132642 0.6773412128246762 0.7460772207411308 -1.3362750751397436 1.9294964515718578 0.4228755075842781
Ni 3.844792838851586 2.973489905213263 11.358412864819371 -0.48135833431151936 1.4687809903216704 0.969801343383962
Ni 9.13056793625143 -0.09913196453468766 12.00925751457098 0.732422701356345 0.09620553808899561 -0.12747632317781918
Ni 0.28560390680308917 5.160902537125611 0.7379878184714875 1.107722001823557 -0.30413913538261816 -0.3038357452095864
Ni 8.329812757058802 5.419779963783395 7.709776075318877 0.9324946365137037 -0.009525937212564239 -0.0922151859826799
Ni 8.477566664362222 0.44124396968429325 7.656298283984466 0.3419153256901273 0.06920278424790663 0.19601833391327533
Ni 6.686071230844759 6.347863217581765 3.5955627325449333 -1.1241112418148573 0.39091078175222355 0.38571252538073575
Ni 0.7944499334035562 2.4008124616813356 7.35940544893446 0.037327789916180874 0.8304002437440989 -0.6852591562966649
Ni 4.897619899363734 5.36496773376171 9.592411555940014 0.32013011149423576 0.3708325229451097 0.722345262515685
Ni 7.473776317017124 5.107948037047614 10.062336300883638 0.3548410326128599 0.04090368019289729 -0.27054150193283083
P 2.597437541859794 1.240181884337947 2.6268126666772877 0.03918695461210671 -0.03628649313586008 -0.11145886470364029
P 0.8531367259266057 7.6436850334014546 3.912256025856127 -1.8514529291038695 0.8045377741550402 -0.27389396334483157
P 9.019058156215705 3.5065664322228125 9.161965411636334 -0.71302192823223 0.48403305293020515 -0.29984719287548356
P 2.498637577577419 7.604203673756641 7.496821365001744 -0.7995673175236423 0.021811953668768886 -1.2830529825908097
P 0.3810985832549621 1.4328064074594538 5.285796249770491 -0.789707136900111 1.6701338490739819 0.32820260408972507
P 0.8052495981207481 7.443482443578964 0.6191455231679284 -0.243281123554981 1.7198358442847992 -1.8707359457031976
P 3.849124476492561 0.8616142282141876 12.267425876977981 1.2367451006632055 -0.6182328108747868 -0.1012551846977611
P 1.067891227085223 0.7267954553949121 10.006974109225162 -1.2502253945378274 -0.11858442000482805 2.4918645900685408
Ni 1.6360071159039364 6.551008745928911 2.2467891756521134 1.3937649418260964 -0.28076935030842615 1.1275436645351742
Ni 4.100184722694232 8.746771965904964 6.073034144452065 0.9731257797715046 -2.1793701407426918 -0.44552358400109726
Ni 4.520565097575306 3.13461578943808 9.228001273456417 1.2308529035484868 -1.3364105722763435 -1.290841625397293
Ni 8.870816824719139 3.810627161916928 5.6821337365734275 -0.39745038264295424 -1.4638133619037499 -1.0619368251686423
Ni 7.3145173594188835 4.737726370646116 13.529460919198064 0.32722275667495904 -0.45625845392009806 -0.12608227104376996
Ni 0.487410398121517 0.5213231662767118 3.144346799603507 0.40112423195011565 -0.5556015091968108 1.1100928160485786
Ni 2.3637682230022503 8.462980725299404 12.355496071333125 0.9168294191726211 1.642003923606985 0.761678770007985
Ni 3.1780241326767293 4.692570657658454 13.088380650469205 -1.5166780711132652 -3.3827495214612586 -1.9823385350735534
Ni 7.513846264366868 9.20385630219821 10.05276623266878 -0.09863394502483012 -0.47799147472181547 0.04753069859111169
Ni 3.173821248596208 2.2071211233446415 0.22097329812852723 0.8862978262426672 0.44960263916647736 1.3951322544872682
Ni 8.764944611294704 6.2222825127250365 5.357296780563542 -0.7456160601181675 0.2854464440691213 -0.3766128770723127
Ni 4.823292308250438 0.6664146338836086 7.871595389433566 0.06923466592710657 0.7909690343316701 2.053950700093901
Ni 4.998415543833142 0.605528914481669 3.173232660891277 -0.1927653741936164 -0.1698121078315527 0.6227507533497985
Ni 3.452342789906059 8.665979106720316 1.377618952775876 -0.2640558942084872 1.554703401317103 -1.1475810428020234
Ni 1.8027153866427073 1.6118290365873245 12.066477436173148 -2.5417085101738612 0.020272634206107025 -2.4960061230407398
Ni 7.123971286630414 8.691407934909908 3.111760193120985 1.5063854309380056 1.322366949699084 0.8332055744033778
Ni 3.198302818448175 6.560637672914263 0.39391783953469794 -0.2163873844879306 2.9811892304149885 1.5700780840009605
Ni 5.2765968078760785 3.8345477341126335 13.50523225812556 -1.846900790956813 -0.21938194833988023 -1.4654938349299664
Ni 1.8666323327250407 6.529939145428964 5.331292240025066 1.522834063412332 -0.6252336676726522 1.3168958992821835
Ni 1.0794790475260487 6.768537886315303 11.99839531241014 -1.2051416148253116 -2.146255360466594 -0.32979488827750947
Ni 4.062018488702623 5.656061140581569 5.693252526186887 0.17221428951514212 1.5874420292007045 -0.01913697793976704
Ni 6.6815464628631025 4.821940395865675 5.482773562903619 -0.4706754006763765 -1.9804719141784604 -0.04816396129973641
Ni 2.3610827915985038 7.285777725389057 9.685569355269653 1.4361058686861528 0.2533431357766734 -0.13614402615514618
Ni 6.860670255502759 9.056654195868163 12.632346575361945 2.068977512520037 -0.7332356841759436 -1.2807042798529749
P 2.610515224928726 4.804852959056901 10.552088174468835 1.2812074447416388 0.7373936722083752 0.5181125111124173
P 5.357086176525371 5.271005224679237 7.292884921926097 1.3097029810781702 0.6113152578193471 1.9213085164444264
P 5.3997219984013 8.079322705196281 4.417177827867626 -1.083896874379501 0.5834439853303758 -1.3304003615265216
P 8.357853443189024 7.2243622770526805 10.928343784514164 -0.6862976248635084 -0.48122489405744867 0.640283105806607
P 5.707406221153895 2.251412348140687 4.631330865965267 0.28664637791449343 -0.3657247694048992 -0.08494179224971823
P 7.672985665087544 0.8298847525769706 1.1231605322465177 0.9077639665362431 -0.3238031894704488 1.6436982805902725
P 5.3672209210696495 6.129423605589308 0.49642682602642635 -0.6772103178502595 -1.653088720666237 -0.054351578167687035
P 7.47587316071594 4.503845528082114 2.9705883517616116 0.41654493738056003 -1.3470950485733832 -0.4724867428535024
