# total energy = -340887.7913182443 ev
CRYSTAL
PRIMVEC
9.10957035999242 0.00000000000000 0.00000000000000
0.00000000000000 9.10957035999242 0.00000000000000
0.00000000000000 0.00000000000000 13.33277703133557
PRIMCOORD
 96 1
Ni 6.4268109327147105 2.1647800590338755 11.36277874620903 0.5153367481394932 0.16091994754824543 0.4021133353362623
Ni 4.549656445281065 0.34701814782494655 6.22248691546113 0.49381481490731727 0.7178365760120541 -0.12534642131900992
Ni 3.1174862462343227 1.7111690076044248 4.612673719514895 -0.2652036346596852 -0.6211574407207496 0.7755205609870838
Ni 3.510782832928069 4.116086448438316 4.657552017433705 -0.7145944149256725 1.8156474893694858 0.24958135474139595
Ni 3.6942860163801194 2.642659005653768 2.34876878258114 1.1542126891859283 0.29241824740126415 0.629658021992593
Ni 4.851456508216254 4.672480781186745 2.5627462114463233 1.033432289971046 0.2729861068185815 0.017591744939834217
Ni 4.958676150255105 5.178462752079352 11.154574052021843 0.4110556321312147 0.013958519062621123 0.5382666174627891
Ni 5.6218710848101185 7.847767250763166 12.36872399491905 -0.42084562163844297 0.6625707135602137 -0.18976489680439573
Ni 1.7359834770108675 6.84308185562103 0.365403082537165 0.6609411483765907 -0.2421925184764926 -0.6282801678084599
Ni 3.038150998781785 1.49255754034458 0.23433731841121844 0.20069902721839628 0.7776386357713511 -0.06549859592344204
Ni 7.849425192551703 8.882104297123353 6.996574470786522 -0.09978605635140234 1.50930131903322 -0.5923975949792378
Ni 8.786344494479989 2.3307108814414956 1.2404884434092645 0.9007841927843002 0.7832516110827542 -0.09781376311637993
Ni 7.10874425330829 0.8720591616295075 4.495812508305785 0.20771762462807453 -0.5507848045344579 0.22168694232397304
Ni 1.1930257604057957 7.628590990146788 2.577945529436283 -0.33456557019327543 0.5494835692245311 0.7315066172999789
Ni 8.236718572439706 4.150693705881443 3.24686491794688 -0.9016743086987374 -1.8184834161563845 1.2136990174770195
Ni 7.972878088805783 4.080304056430787 12.36483056458707 -0.6346634456269844 -0.9336436625164823 0.1438449943438297
Ni 8.32690331807986 7.19784496008671 8.965492392387539 -0.6575974287153384 1.587120641305544 1.588190220220639
Ni 7.357599493853519 0.5759188747010089 0.2659529929787664 -0.613486297328737 0.4679747139157618 -1.567032098085785
Ni 1.7329773188228623 6.886880669463239 9.077074607627106 0.5139015583548634 -1.6381318422460884 -0.10024859781011766
Ni 0.21612637649109362 5.066169079401958 1.2611862980121935 -1.2204173100374593 -1.4353206537806957 -1.616800941978796
Ni 6.115892189942572 2.181723859729905 6.898485351025966 1.3802831052895776 -0.5678397031342156 0.15797269199446343
Ni 3.530067793182636 4.371555236997157 0.14501251620423736 -0.134978030871503 0.6624670981028139 -0.08314073448523747
Ni 6.320921287934794 5.772069679367179 4.492385487971459 0.033289358180749115 -0.5959919971987155 0.12176975971134513
Ni 5.44341460328581 3.2159698103874264 9.337943549440036 0.005360235870648833 -1.3690530409017132 -1.2005719931767582
P 0.42910721836910176 5.4973250401240366 12.480905619882162 -0.09234605513358933 1.8551512038910631 -1.237376049378985
P 3.6725961295751492 6.39375230221692 12.65776519373872 2.0262468064207293 0.4591902828549124 -0.06331547222919418
P 2.690793974942918 8.658373251373634 1.4893382182123345 1.6586042511678276 -0.9730884987756659 -1.8262157518036355
P 6.841633433948627 7.85764202493225 5.263340262082139 -1.2709569706582242 0.8131075181019223 0.6197297071352875
P 4.999332162355309 1.177247984703902 12.540969571435534 -0.7667119615565182 -0.706239358092758 -0.9891692063876127
P 4.100381549298556 6.1890147104732325 8.00583924690172 0.006498463240150098 0.13976002564117868 -0.7943844877711222
P 5.19271922954671 1.0615473327467684 3.3825118849599405 -1.6770017798384085 -0.6763032326549578 1.5939854867461776
P 0.5677056861485681 5.726713129009366 3.2339047323284706 -0.5891096682565855 -0.0012094469270688846 2.4935710312366863
Ni 0.541441884112696 0.30568256178284847 5.012484559906345 1.3857950362467424 0.05793569597451957 0.9908805326517645
Ni 2.0403888770423273 6.626383398117188 4.77497437817124 0.09932197223079024 -0.07026490696383383 0.6938443268625146
Ni 6.166058593401193 5.809182068633642 8.936773561164797 -0.7779947335591892 -0.36354910190981904 0.8556669887306877
Ni 8.466416386714101 2.3957714322861414 10.186894464174049 1.716639705945005 0.9549815047623103 0.18831196640795309
Ni 2.2805809162639425 5.198859079906454 6.923151334437061 0.4610898138704705 0.5698752455070056 0.7236927776825149
Ni 0.7009103773731317 0.049610719672352435 9.175310391468955 -2.210720115808883 0.9896890834468245 -1.0703641300003888
Ni 1.7411941512034101 1.2911449417482321 11.429922655773666 -0.48960489059102774 0.3198079522681266 -0.060587531775069856
Ni 4.053458152854874 6.8846852630289685 1.6163055866753007 -0.7654161255632301 1.4495180283270004 0.505354954336433
Ni 5.951755952877489 8.082748615792239 8.141700288816049 -1.5460716937840342 0.562718065636934 -1.0808807132609966
Ni 5.3541043763912555 2.852989873541199 4.6545522359448865 1.1765298646258897 -0.37124389945091546 -0.05234946013599372
Ni 0.757358740487656 7.686136145521421 6.997827947655217 1.1675795974111374 0.7697242660202808 -1.1088877399968837
Ni 5.369709070258083 4.48709191668949 6.728066243347951 -0.6843330449379698 1.2563525904814878 0.3453585470437213
Ni 0.9599482955624594 7.501885977307502 11.273369224998568 -0.5117480023469703 -0.3863997812557474 0.932383050636504
Ni 4.423242938690313 0.4330507513375486 10.453963379510485 1.4339919076669432 0.46596668234679745 1.0188675047829938
Ni 8.710024514785724 7.388344293503573 4.58718149808061 0.3212439133837048 -1.3856554253450846 -0.9464649826508668
Ni 7.272680079827506 6.435993379543526 6.963322717399078 0.21406644966423777 -0.8712231912977318 -2.0861241995026525
Ni 2.3600254785596797 5.253234104828281 2.15561674230262 1.1006149584651304 -0.7248276626179065 1.1182241869064613
Ni 2.3276318466913573 5.415411784286028 11.333193594853926 -0.2988118096324338 0.21451382161430152 -0.7883161700898553
Ni 1.4314596525659413 3.2544850734749597 3.6261282116448017 -0.47110271802178216 0.16916573249680544 -0.20482667623352466
Ni 1.8719802515221695 1.1231006990387415 2.3996466434775883 -1.5725972508783883 1.3511108546009958 1.4082952742317874
Ni 0.8549823612075848 3.3686644271975568 8.30661357222488 0.8260494229745708 0.6627360354934844 -0.7142925674145376
Ni 3.740808591732067 2.717639878518831 7.149354717557159 -0.6147677351443219 0.6031306651260258 -0.6170197644032922
Ni 4.894098406634593 7.0725246019279595 5.900060052571093 -1.1999526144252044 -0.5638272395407128 0.39818443259550135
Ni 0.847251979879278 0.18535151525916044 0.25799578335081935 -0.2836631269164534 -0.20821873263420915 -0.28882075985799294
P 0.1440186620881423 5.806977552629105 7.692865385077419 0.6404602548144195 -2.0821281909693816 0.6380300481063722
P 8.59537146340926 1.6698024490234198 8.005479418876186 -0.232833960079728 -0.09493078514163004 -0.22918942134860526
P 1.8200648105723465 3.65595294469792 10.19002815634579 -0.03879897514506866 -1.3911362459539978 0.67939858375083
P 3.958827936924577 6.216598489240746 3.88547767713725 1.0088142343120496 -0.023536649669359463 -0.5663201811658957
P 6.941255694385067 4.234264903507986 10.303716504231012 0.02330807859832115 0.14880876610700824 1.586238752921223
P 6.479737535964135 7.942871164347331 10.165282008716346 0.03574604725135779 -0.213357082302039 1.3724088447478238
P 2.598559575992759 8.581625121876835 6.050161174726299 -0.8958132219322701 0.4522565318495566 -1.5357803391603548
P 7.092638533076794 4.257630951242027 1.1544367097991024 0.0014845549653264756 -1.1824673131562475 0.9208629658120463
Ni 5.357739094927662 3.044955847770997 0.2539893943475324 1.1421197625771362 0.24779983736094097 0.4272569244814255
Ni 1.6151450274233254 1.4171120793959164 7.174567275184256 -0.12204126820517693 -0.7423265907336183 -1.3961025888203376
Ni 6.970825359470718 0.9022692295049065 9.272946765587257 -1.1648825101949487 -0.46822385381209036 -0.473133889519198
Ni 2.8617897184188137 1.7710644321078617 9.349249437098015 -0.6584978290424208 0.9381914297881649 -0.9299204480286244
Ni 6.597132567990871 2.2653497147780497 2.3601411701020663 0.9669214507330058 1.3295997200020973 -0.3389187049556486
Ni 4.280514191751933 7.28079670693512 9.88776077245592 -0.1172163360127078 -1.478985441658498 1.4445200608917768
Ni 8.456851337934086 7.3359278261890815 0.07930063108552375 0.1182836009349576 0.29800216924694484 0.99916976924375
Ni 7.630394685059591 4.003601474785321 8.057263682014169 -0.3837831695685068 -0.4914134045546762 -1.0810627473648156
Ni 3.075199621056383 8.547682863063176 12.497438578959164 0.7323702508518548 -0.8838339380832068 -0.7423597579643989
Ni -0.26789606431664975 4.989466497756492 9.861294737960128 2.006346467952377 0.4865177670252718 0.9970390960539924
Ni 8.450984774682343 2.5767239360635212 5.931752247528881 1.9730044021568214 -1.3005789072897151 -0.02519963919407918
Ni 3.8672676461741524 2.912174751563834 11.396684566741621 -0.26857640778666003 -0.12735856665303227 0.12406215528994761
Ni 1.4728808685685462 3.4647066265191895 12.555836390110759 -1.5233642248841894 -0.4319435313238174 -1.4389366532667283
Ni 3.2560154812797624 8.478577663020124 8.143780003707931 0.3092944543313125 0.8778720640728171 -0.7680890444097029
Ni 5.772069679367179 7.82447407959126 3.161881736928999 0.005614517973300009 0.9558119710834055 1.0208020028015454
Ni 3.412426802758699 8.538327334399295 3.737591091513875 0.2661168905025739 -0.3122000580138817 0.10453616944187803
Ni 3.5521585010793406 4.372375098321159 9.157830948041244 -0.9019977534764273 1.1731336944601471 -0.5031607748985916
Ni 7.5247418891066085 6.492673125742824 11.514986001009893 -0.2540064803922852 -1.1211084504327917 -1.502589197120367
Ni 8.373435003002076 8.91161019521714 2.182149276661359 -0.2412880043843522 0.06310104222554294 1.2915350519198918
Ni 5.224784916885432 0.6415487736873223 1.2465062255274348 -1.0886364459470155 -1.7401097640424872 0.4926670744561193
Ni 5.642722891150554 5.775285357671317 0.4671934206970743 1.1847903048624693 -0.5418841596107183 -1.365277375909365
Ni 8.232528170117032 8.969118912310705 11.27748948363019 -0.7029735428572925 -0.0749132043691226 -0.47796113570451226
Ni 0.1839149360281046 4.98598664191462 5.634298360567927 -0.5622287847053414 -0.2068100252121406 -0.7105629251687763
Ni 7.345228697431365 6.111091446412031 2.378900508152246 0.29657597832337956 0.9016627387345116 -0.7668132630210729
P 9.086031137113308 1.5364747786002562 3.435470371705299 -1.668760879985855 1.1517338886281328 -0.4652022933769472
P 1.9801290697282232 3.1912646558241837 1.1848080170682216 -0.38542353338540714 0.20184291101485238 2.3459884242272953
P 4.834339625685158 1.2278698666758558 8.381197267826316 0.1871526559925293 -0.7028455019198605 -0.5975470003906611
P 8.856315103698376 1.6341384814293582 12.27782050418485 -0.4042072417508136 1.1789485013697114 0.7033993175408015
P 6.591439086574195 7.784719914947458 1.1650129208787205 -0.1774518837649976 0.09609369510147966 -0.6761399676042162
P 1.7983749237673756 3.3654214201826176 5.903113580524485 0.32133878709035624 -1.3328177127187626 -0.017446991831853824
P 7.097439276607336 4.050670624353269 5.540115424537724 -0.7304961737575936 0.5731598297955484 -0.11903230617552404
P 2.381123243297316 8.75751270458594 10.17916226093169 2.0191580178947484 -0.992988837244019 1.0973704833859035
