# total energy = -340897.1627064628 ev
CRYSTAL
PRIMVEC
9.00419371115587 0.00000000000000 0.00000000000000
0.00000000000000 9.00419371115587 0.00000000000000
0.00000000000000 0.00000000000000 13.17854765412985
PRIMCOORD
 96 1
Ni 6.280353017552842 2.117228079807855 11.4212802578668 0.2615758080991108 -0.7700150577878223 -0.04522081951101244
Ni 4.685764352320119 0.40860490403436517 5.869935569342438 -0.3286389202961953 -1.1318626036255022 1.229427998176502
Ni 2.802771365385902 1.5780479615497502 4.813082749710906 -0.34708889947126675 -0.5678494733262285 0.09920755814011302
Ni 3.5676596051579406 4.251807240724632 4.880028929287883 -1.1013844896413032 0.648719152389102 -0.31198074291422395
Ni 4.636826559986443 4.522761435187364 2.425972874900658 1.7337509117039946 0.9224506220141404 -0.1674747179476277
Ni 7.350627488196808 6.063523030949856 2.5799382828953608 -0.7303089974474519 -0.23799570678632562 -0.33740329675238667
Ni 5.320695065550863 4.498225007568364 11.515718041409402 -0.8924211655315858 0.2524890153064942 -0.4115659961087299
Ni 5.649924401132923 7.706833387869335 12.2934894814153 -0.49027774828833626 0.9959414921144396 0.43287375644757065
Ni 1.844238937586629 6.444148303724301 0.5276574516804772 -0.16317094836595125 0.05906029649726603 -1.4784941038443764
Ni 2.577432415810455 1.6677567426022626 0.3858756180752307 0.6045005488903589 -0.8497534514597301 -0.07353252197151207
Ni 0.7246187846379274 -0.06362093087250194 4.719594008176024 -0.21095335795655284 0.17008850142139093 0.15588135668307349
Ni 8.37388205974851 2.1709741115354917 1.3796756714517873 0.6205252064533894 1.2217409139448894 0.8147779638258097
Ni 6.77756458934043 0.6789080952982521 4.793420292099306 0.2827953795995194 0.03916484312491964 -1.1070033784899773
Ni 0.6651055668956228 7.274244913704339 2.4628594544911144 -0.3462229519265456 0.6039978982223275 0.5503759991318135
Ni 7.6644416442986 3.69126917519597 3.6817175266021223 0.4985345889804898 -0.4437479801579132 -0.03317005899406545
Ni 7.453140232579308 3.7968343412162104 12.707216871201021 0.8145810173236553 0.45182072986371863 -0.037170695513026306
Ni 7.872717646961018 8.858586806595623 6.798628099479559 0.879097451839486 -0.7767415778783784 0.38212480802947735
Ni 6.707710055223658 0.6984345895861653 0.262833312235365 -0.5214197211087794 -0.130571160053059 0.1654808274460505
Ni 1.8330197123340515 6.535540868984063 9.253277530226452 0.2406524276828823 -0.30771682543154744 -0.7005307377437548
Ni 0.10773067458624755 4.888547796873328 1.3461359506304982 -0.37395512773449147 -1.0451410937675418 -0.0066936099700916985
Ni 6.395768771395169 2.0966534973823814 7.065941898461057 -0.332559338396524 -0.5776749440570825 0.23448049454421555
Ni 3.1837387975179703 4.452186565580861 0.5744054241253667 0.005520672707913073 -0.5627201225194631 -1.0263697266973097
Ni 5.8746870823165835 5.258007869556926 4.495821788290745 0.4972654924600791 0.6014437643419062 0.5292659566260756
Ni 5.0048459616905765 2.6948561048304107 9.359378445767181 1.6032016060278067 0.7971054862467112 -0.23596504950954197
P 0.11895260109691162 5.478115382638194 12.369990911263574 0.35159347220983966 0.006691810197878798 0.6280060882114669
P 4.004056853224895 6.166476980819818 12.499970948288922 -0.6855892859425742 -0.7589868249981186 -0.16622387625966212
P 2.2871102008675503 8.35120049601557 1.3707002912497253 0.6247230465848209 0.8281561849049286 0.01994019056735275
P 6.314172768795764 7.674265219539823 5.810816735280762 -0.168525013589013 0.9361353185900845 -1.230477779597255
P 4.483683234869397 1.2175920824878037 12.445872852590679 0.5198886291762337 -1.2834342771896283 0.3311778846679651
P 3.95768525607339 6.108823129060384 8.177763519314047 0.5457765526865891 0.6154382788487853 0.08898742307400158
P 4.657329108862943 0.9612246816921464 3.7103940824483574 0.6177741260708135 0.5201457394923623 -0.33319208688451646
P 0.16874038930847057 5.475171011323913 3.719039008744505 0.2838785853613692 -0.40881774393963144 -0.7142185196434926
Ni 1.4708260239031261 1.0472957685215116 2.531335446564411 -0.24183924890213185 0.5169660562128 0.30327061673473577
Ni 1.770485587631683 6.611356179278368 4.776274506604957 1.129368633559055 -0.762688699329738 -0.6967756415766968
Ni 6.019411486397386 5.564438586888965 9.155123715976194 -0.21942180043888018 -0.061747613521442035 0.451017517236133
Ni 8.553002483464022 2.2896763960497215 10.146414300590395 0.801022304802614 0.7416002540905551 0.08278386536645098
Ni 2.4255496778004404 5.169208512060201 6.936370651826132 0.5602433788441965 0.45691922743254854 0.7209180431508553
Ni 0.4811498912052858 9.039219934839572 9.189968144453259 0.4965651239589448 -0.03450369020382445 -0.29104862074724713
Ni 1.4073284504832406 0.997880753925889 11.503580388407414 0.02814663763754507 0.6121025296073328 -1.3498785248557914
Ni 4.213773526866776 6.927439392172816 1.4823892093520508 -0.5771568667700834 0.5170056512014838 0.2158327975360412
Ni 5.79565727489935 7.80179161380327 8.010540336630823 -1.4418250305581168 0.5483448276343976 -0.10935184566296652
Ni 5.248139273347596 2.7659622218605913 5.026588388028778 0.6563134197965922 -0.5203812525419361 -0.7497449946848764
Ni 0.9515901945169795 7.327324635103975 6.836292641398926 -0.7830276679974063 0.47361237181751337 0.9250096409905683
Ni 5.139620731819454 4.6487030913734015 7.0382143846225445 -0.005091812700610585 -0.7646306535474573 -0.4535366841135608
Ni 8.059410597512338 7.110512656888231 8.953505414077624 0.7489407536160263 0.919450401735236 0.09070594842700508
Ni 4.87274543706733 0.33830016023651144 10.436368244014174 -0.8961618635209405 -0.49280437136493194 0.29190556943090373
Ni 8.115596765711441 7.101949668754042 4.701393831608581 -0.08891491796485332 0.6331416096658193 0.22287479198448712
Ni 7.184076918777123 6.091787194728219 6.888466540920223 0.7423438171247989 -1.359267165159543 -0.2729215721292332
Ni 2.180023326125251 5.245483036229209 2.66109127916858 0.16495632240114816 -0.17721379961226255 0.3513240205985369
Ni 2.1740535457540964 5.206701974300757 11.43213931537451 0.4748760690212854 0.007322501803342227 0.29359067044281045
Ni 1.2671061432132642 3.336729051343448 3.9272861979873332 -0.8768289675202834 -0.16822959383578123 -0.6550283824365816
Ni 3.536811237810163 2.6550215522482246 2.686592055924459 -0.9838079420756992 -1.1423223655062456 -0.06971674776984768
Ni 1.1723009885708973 3.3190538192641466 8.091285442932984 -0.4912316275611734 0.13338703223529932 0.8895628701471842
Ni 3.743439473039818 2.6673122765417787 7.103843250672675 -0.3209212399369634 -0.1342043859302721 0.08766433338720386
Ni 4.334735863980041 6.731562164127413 5.787412134800004 -0.5766043367007231 0.5398329335086445 0.5886977775301474
Ni 0.8304009517244495 7.31705085018167 11.336107789560874 -0.07088557126696825 0.21176299834204174 0.5466777243446198
P 0.17128047232913843 5.567770138528976 7.98786057373661 1.217276964636265 -0.09264661709314367 -0.729481359339834
P 8.480122540290374 1.578858338975699 7.898602002365179 0.40046448687892966 0.6085528645828616 0.9160454898187449
P 1.740834778035585 3.182910411704778 10.303198921608036 -0.07098430162836161 0.24367398811802551 0.15955572021086714
P 3.962412457724757 6.116035488151327 3.6804911554308535 -0.6042493521115013 0.4227415531095752 -0.13672663813149355
P 6.877340058861948 3.785921258546769 10.185515011392415 0.03397918515892213 0.9151921406795142 -0.3109659284964644
P 6.462552875486957 7.687699476423326 10.176592755932722 -1.0845355364047644 0.44256475848308946 0.6948270024907581
P 2.6675193729950766 8.393412155713872 5.7075629457632 -1.1551927937110105 0.9333837239868763 0.9770364276798205
P 6.704315474228296 4.005029306136033 1.6469759641428534 0.5197443902888855 -0.08854545044057653 0.3914280877082743
Ni 5.093240130474329 2.955842656953975 0.4390417797336333 0.10946574553301147 0.18083185598082405 -0.0698221629994604
Ni 1.5678642185636626 1.0624858431612374 7.072293456641771 -0.1236554067698322 -0.12052971665665696 -0.5033109273232106
Ni 6.892575154469782 0.7085462990232797 9.2787648006919 0.003825544393677282 0.030865065009972648 -1.076848195062836
Ni 2.9689167460926127 1.5487843322793833 9.33643395958049 -1.8827522534377834 -0.7637515933766137 -0.10061266601775576
Ni 6.132017931829758 1.97799623383626 2.457364195123821 0.6386460844238162 0.41478630281824047 0.8897731863857773
Ni 4.1813584298288315 6.953254415286091 10.379990286490928 -0.31558594376697907 -0.4292472154385769 -0.47985552451374774
Ni 8.129688328729326 7.180610304232787 0.3593825791822459 0.16770508879087892 -0.42187406290295726 -0.3765414004044289
Ni 7.697351971985737 3.9028137001430467 8.069541215756058 0.18955200946264128 -0.29224881170293543 0.2575607734024467
Ni 3.0799474576411954 8.282084305775776 12.380560033736668 0.3924796689012402 0.26474006475970535 0.12928432292083541
Ni 0.0288782497833602 5.129752135610124 10.152845095674978 -0.3470955843394861 -1.8797078101845044 -0.29479188983976323
Ni 8.539946402712626 2.2359843894838143 5.731719396411366 0.5936972876272678 0.6283454738287565 0.21897597115071318
Ni 3.5607083676820257 2.919807874080126 11.561632225524928 -0.8047210938104399 0.19657009265168726 -0.4039848413273623
Ni 1.0446125188222595 3.218585026833761 12.495095177442796 -1.0476142378983828 0.9282109215366854 0.02402207394621024
Ni 3.1000268094174777 8.180489989142682 7.986635102984702 0.8717901195447952 0.43059241661256165 -0.22858546921601924
Ni 5.613394387609883 7.748621850467419 3.5125179234189474 -0.03970066102373163 0.1201317098872899 0.42286265206847173
Ni 3.0937238738823214 8.330157695521772 3.470517862270755 0.4192793055925876 -0.3178176613109752 -0.028100357780641926
Ni 3.44840806483279 4.485673161659782 9.4787497418675 0.032331879363486256 -0.3994028783836347 -0.23592905406528403
Ni 7.187858680098216 6.107490508404379 11.439295848465 0.6552399842267553 -0.6754599108180561 -0.20779989992923567
Ni 0.47957775899894545 9.104680422468977 0.3317604144091061 -0.08778131858104238 -0.2683329243172863 0.3680246211826694
Ni 4.51996113097103 0.49925642415906446 1.436751453980711 -0.6708524939530317 -1.1310172249060713 -0.0057266180711320735
Ni 5.916187410718774 5.6116835908217695 0.3899716257537199 0.4502166186013924 0.1390401167560186 0.6324350705170979
Ni 8.094220810053642 8.828548816673795 11.28131096843759 -0.9284515767925817 0.2848034111684837 0.3928087701058848
Ni 0.38556137171783506 4.822060831171054 5.861000708011674 -1.6976770487995732 -0.33925731924198993 -0.1494163177840201
Ni 7.82616596593708 8.929359768461804 2.4716367424335 0.2823048131163461 -0.5336944247110744 0.15941122421320286
P 8.613600706537735 1.5338193624801988 3.6536604592770567 -0.45418923009589524 0.4955158567588241 0.0313664301264234
P 1.5582567439693606 3.147839077548446 1.5661390150657541 0.5064404740911278 0.4580304582188563 0.5958287321479739
P 4.6972266908004805 0.8562564937090213 8.165678090635065 0.8342345298885245 0.5965483839228178 -0.39032508445208264
P 8.310591582781923 1.7197199439928126 12.41436267701171 0.6315477828161381 -0.2527438116297776 -0.820870964097425
P 6.326778639866077 7.819340787171869 1.338861462603566 -0.8783865418153904 -0.7432053937941457 0.25791815674186547
P 1.8670195474494071 3.1955072785814687 6.019090937104455 0.8045804544675175 -0.7342319866509419 0.0029475126640981495
P 7.0232350081135655 3.954695863791002 5.868565131073224 -0.5032579625980881 0.0792334290110313 0.2323397940521289
P 2.378214631931419 8.487911167773103 10.189719069394366 0.41970405183483206 0.15834344507032086 0.13608977587844304
