# total energy = -381166.5433845279 ev
CRYSTAL
PRIMVEC
9.31061786874617 0.00000000000000 0.00000000000000
0.00000000000000 9.31061786874617 0.00000000000000
0.00000000000000 0.00000000000000 13.62703038258646
PRIMCOORD
 96 1
Ni 4.714347586998354 6.425071212554038 10.410124615501978 1.0351107061147335 -2.3592193210952725 1.2909092454104347
Ni 2.496549088416183 0.24891285259358828 8.177077186894419 -0.5152732418914093 0.12522403680853275 0.6778543791921615
Ni 3.912759248003415 5.960303787344971 6.428783355917771 0.3467217459398351 -0.8309833699410785 -0.36363189143161245
Ni 3.2184292274188384 4.927430388659772 8.889893439354323 0.254814063895245 0.5582952539788901 -2.584216301629085
Ni 2.12407781862395 5.835280809947894 10.620920729402842 -0.682919709530211 0.7667428147944537 1.4248053560716687
Ni 3.283975977558504 2.5221905301611605 9.080971526629364 0.4415810544135814 0.6108583727875866 -0.030101447371070737
Ni 0.9650921002453176 2.412232132554704 8.613127873260336 -0.5161631006955304 0.4653431898301857 -2.2863807398669915
Ni 0.2601088706394616 7.403617155690238 9.635496101749144 0.7490513110519615 -0.3033451787264131 1.1672774927896865
Ni 5.261532602013716 0.6983168271768787 2.7212766799071018 0.8086260852918009 -0.9448472445417856 -1.2893064196996893
Ni 6.833639748012675 5.192782999310407 2.9416394537182655 -0.11766756461751346 -1.838379897969995 0.46050848744570366
Ni 4.395579961354643 8.624136747886066 0.8101569006644749 0.9687711023472347 -0.8512614034638243 0.3999746917267047
Ni 9.16086593898 6.384523471523037 11.945781623415458 -0.6035145308280058 0.3703913216426331 0.28885495553003804
Ni 8.153000860021384 3.78106986817736 8.315296103066062 -0.7978626761277098 0.17579043690217466 -0.35370717611873276
Ni 6.498997518819513 6.267982467048862 12.990048425246384 0.09823182449040502 -0.6449673986561538 -0.278297748839482
Ni 7.964442225954834 8.829342766789223 11.14498934225247 -0.7007829629638769 -0.29126536474374354 -0.3219609940553875
Ni 7.50781228080572 3.781470224747815 12.983152981616634 -0.7027161754308479 -0.4891138098872221 -1.6837853784191452
Ni 0.9251393076992496 4.302427229089393 12.583827096564765 0.285693784193237 -0.44495794130561434 -0.12022092716698649
Ni 8.169955495249273 1.263264639055373 13.017589233046543 -0.5257689992164106 -0.4078376394145492 0.7200289556776825
Ni 2.868219645067506 0.7453903803063012 10.552758626690133 -2.480840985264527 -0.9546084376936076 -0.01984685952259808
Ni 0.5689988617344274 0.5925174825941995 9.984375196800057 -0.4702586248539321 -0.41088516799162145 -0.6983519849248812
Ni 5.02170039507513 3.9219953809776404 7.655883692857734 0.3572439856273976 -0.06083204368570814 -0.35611372867769636
Ni 7.486071987968204 7.04520491895353 4.1928328766435135 0.3901301948324572 -0.0009240544761661503 1.5495519390231507
Ni 8.886305127208892 4.308348782084965 4.24096318490658 -0.8809339908275926 1.4354371247539022 -3.1177392337593015
Ni 4.984374127843607 3.8643905879216587 12.500933734182881 0.9487964589975209 -0.06498051863644293 0.19046989329122035
P 1.0888953866951945 4.801904637895146 8.220915300297486 -0.39247246981238865 -0.37406542806011067 -0.7684268873650959
Ni 5.246663545199362 4.114213087885793 1.2752501975006558 -0.2544574518867747 0.7980855907717933 -0.4352574261883988
P 5.297425034085933 4.894750119769115 4.514743766896196 -1.2650357200777826 0.14053624168557088 -0.4694811232579592
Ni 9.159311065787767 5.0642871614300775 9.993383219635302 -0.6930483133237806 0.005695764833196643 0.24263397688928534
P 2.3728295975275646 7.994878635927358 10.00968052523821 0.4146456634753181 0.018967542241438304 -0.03537580839613263
P 4.489738240354988 6.342355682974381 0.4568366408668834 2.1117483278286597 0.8219842517662618 0.5392634341584197
P 4.115274498328396 4.325331349166605 10.671450383903267 -0.6620780901945114 -1.256444635974662 0.4237147156561219
Ni 2.7092780865967345 6.740179765356146 4.284051793567285 -0.6120415944624105 0.5740183211411017 1.0993520325923067
Ni 4.779493980567564 1.7102394734239703 10.675388775282398 0.9268919456149456 0.9074214955951597 1.814695666979178
Ni 7.552140132711253 8.689506596285296 6.143365432592989 -0.22531039800917327 -0.8401074437295337 1.3999078214990408
Ni 5.891051411274114 8.609835638764684 12.685089377036213 0.840402092151817 0.45696345040692266 -0.4509167299922105
Ni 6.697462650350352 4.22551221447238 10.480263362398588 -0.4927457502128546 0.9779771943265352 0.19856295471199994
Ni 6.167846771345438 2.2849839174753277 9.099367445510893 1.075389094018806 -0.028418660352009118 -1.6167060682721446
Ni 6.9687833670861465 2.4973684227929294 6.657771486167768 -3.8827889771220483 -0.3913422128626873 -0.270883715763598
Ni 0.22437192588646745 7.124270686309502 3.084042561582064 -0.8361947389386889 1.6816783593784717 0.7660990105628677
Ni 7.2174141079568335 2.6516360510690826 4.261908350973937 -0.9677364904351332 0.013757201685092438 -0.5272682094697564
Ni 8.219934892230766 1.1527289831380279 7.836209878561571 0.326754815899605 -0.7274895257207858 1.2938418456761975
Ni 0.2982014017255999 0.12182105589522704 1.575447795707782 -0.9170579902436593 -0.5556426468473914 1.1999970945098946
Ni 3.258911794124416 4.39283332906896 3.848205009733762 -1.3381846334576308 0.13814383019399434 0.8356607208120899
Ni 7.9169580745752475 0.022633181095811517 3.4200441409911906 -1.799770156017597 -0.9943708051932101 -2.372047840318509
Ni 7.455011766595203 3.23693873583896 1.5317595832531865 1.197280724019996 0.29112343984924055 1.9685309397665003
Ni 3.7062776744455506 0.5387598368617561 12.622704512741354 2.01953442739756 0.2385348671192473 -0.704352168372374
Ni 8.911825530920941 5.0850219075324965 0.4945958518315729 -0.34080512334508406 1.5160193544833438 2.2615114874291375
Ni 1.4434344063781954 9.189756786378208 4.0371714488651005 -0.21888803942259719 -0.24885296121580364 0.22375076683153725
Ni 5.9992594127120675 1.9721750872988586 0.39617051663960606 -1.1779424287027003 -1.4948108387265286 -0.4205103497862113
Ni 4.57197892842085 1.498013248610968 7.337992196360066 0.2648367382385697 -1.079933775966695 -0.27638536230811755
Ni 1.3764072679896366 3.344895350593139 10.605413895261137 -0.23964172703018083 -0.3713801679184636 -0.9911101321640673
Ni 5.902289327100617 7.231985224997825 6.025205311662949 -1.21600349724048 -0.7028568147737702 0.4527195875289042
Ni 5.944876093455564 0.8117061874859578 5.046880030171395 0.04278495637601018 -0.38524535593633 0.5671886998137781
Ni 2.054490260308061 0.8354305730017081 0.4027391575804489 -0.2638005836645715 -0.29450572605791214 0.12098300214399164
Ni 8.375496696397462 8.161864568278908 13.46447375442134 -0.31145598075900555 -0.8995343795375993 0.8501987665272649
Ni 8.334958265984378 2.3964971882740174 10.221812712810245 0.01071430109371058 -0.2892758451175405 0.9883917047916397
P 5.95258528509131 0.15203866634668795 8.378334572738735 -0.08246633412603216 0.3235519926915912 0.005576979867145234
Ni 6.947555158234096 4.984141362395667 5.756371460972937 -0.1313455763252383 -0.7412927501524653 0.5278667622857038
P 1.6111279456914789 1.0347727647403826 6.290673373975762 -0.08638289557161896 -0.546226238629498 -0.5859742079513972
Ni 2.5406162430200236 2.9672846197104095 6.761922851379039 0.6897336471282508 0.6144072664811097 1.155255785738462
P 6.649801597230331 1.8687992965601217 11.602871565511498 0.47273999651488907 0.7839427236125079 0.26450532304108
P 0.48289985360352633 6.924362409001439 5.285311920175179 -0.12082282241704355 0.6140930776748005 -0.09214499486637678
P 1.3924680838974381 7.674286129171803 0.5472557757115352 -0.284826036876303 0.524266189418639 -0.19737459083085362
Ni 1.8888636781724766 7.102223143080705 7.1761987956211435 -0.21249627696364046 -2.192858405037114 -0.11029852584695198
Ni 0.907142814326386 8.813654375598125 12.000767339651228 0.8160432036914785 -0.2492481397716933 1.1515878499685714
Ni 3.138004109846902 7.5024866073568734 12.290532390481722 0.056787184192373164 2.155578951860365 -0.5714893840716609
Ni 4.648093229896953 2.886822259666803 5.432307024795922 0.6067312379930906 1.4347688950422839 -0.23869504684619536
Ni 4.523796480697445 2.6960197666821197 3.012527705357239 1.0085694652910953 0.8832253579649305 -0.2766437581758268
Ni 6.244296255066574 5.9603968935241465 8.334673361076101 0.053939430330932917 -0.6198240666213068 0.042914025754706736
Ni 0.25025916794446834 8.507986789364427 7.669578680752681 -0.7722961405125152 1.4115916855948722 -1.062942640725337
Ni 1.1907442360954505 4.91125784533696 5.577202585076253 2.1135128759282504 1.8814335346263598 2.166465773976198
Ni 3.0208579152080848 5.462911956952754 13.008690144440934 -0.9327219220331615 -1.7961698402608484 -1.4554752743516999
Ni 5.313858274710437 8.056598722102905 3.797921155546363 -1.0518755842778982 -0.5020091777926515 1.3049194436465976
Ni 2.8648585119992647 2.7592295517244763 12.181843030097431 0.4426292931724377 0.0019856629714610965 1.112992763304193
Ni 0.46168002430760136 2.619486487399726 0.9717268465733753 -0.11449122377206089 -0.09981202449333133 -1.1404693714579068
Ni 2.907789771217162 8.231889725636922 2.400224228626419 -1.102757715839746 -0.04165084277156698 0.35719667732923
Ni 9.310180318524008 2.061901512170443 3.2832013341477624 -0.4071889500869568 -0.08686909117941813 -1.4618228138362823
Ni 2.4339910466280563 1.829778496867602 2.7564754709444608 -0.6414866391964049 -0.4066387340104416 -1.116242123479426
Ni 4.35584224408247 6.012499111390847 2.6240617250444185 0.2124577104162212 0.8950439478664135 -0.5184500969574942
Ni 1.6736021919183477 5.900259612394587 2.069319281465368 2.711153207363666 1.9332394635540575 -1.2870690457287384
Ni 1.562284444095927 2.8819714277317505 4.7522092147601365 0.3365594606948526 -1.7079393499575295 -1.0238258772295334
Ni 8.647869512957941 5.894198400130252 7.075481186297871 1.0156988772470248 0.947653089421697 0.4355466752940435
Ni 8.834435674790132 3.2687158747916127 6.133757805963853 2.374280586303769 -0.34740103139504686 0.9807527001891432
Ni 6.528093199811907 7.248250874499812 2.0368326734273965 0.13534904105767656 0.47469429202778246 -1.6562249523023735
Ni 3.3513941618996 8.585702517122352 6.28877959429133 1.2226320583005912 -0.6022947994882918 -0.9036466019337598
Ni 4.1582523106358815 7.411000475698868 8.46481159195709 -1.0311056987203984 0.34973996394086865 -1.9510548944689239
Ni 8.858308099130772 0.742526434234858 5.128314418725596 2.063903697541555 2.805574142748413 3.010670784813873
Ni 3.515791742470065 0.9254307300400694 4.7457634739758054 -0.028188546619074033 0.5665572368773663 -0.6491554685955724
P 7.114680749854409 6.721930954237717 10.616587567824007 0.12416474230608295 -0.66959342473495 0.5382540190572987
Ni 4.874769533718019 8.614258182275528 10.28287546936081 0.8458947398352721 2.281374030681019 0.6883740477765629
P 0.8018546226673811 4.168819861972319 2.415336292568421 -1.4381174997995425 -2.1969066069645584 0.6411775925964184
Ni 7.4412041202234525 7.955019880622258 8.83306794501804 -0.526963533745144 0.5922312446047027 -0.9436048874942523
P 0.7225672626049715 1.845550683619959 12.278636213968447 1.5847559977281096 0.49556445060857235 -0.752153347016053
P 6.86743729105344 9.19161890996172 1.1739208805802002 0.034403160070218174 0.9466251623778149 -0.3353731536962353
P 3.7567412235587594 2.144225995797563 0.6991864388903793 0.8532735487978466 0.5451286346899451 0.40261161512891946
Ni 2.6163022560719185 4.028462296865009 1.011267178745695 0.376727548273306 -1.9118409432736236 0.968605523303648
