# total energy = -340874.5154550872 ev
CRYSTAL
PRIMVEC
9.17115521860677 0.00000000000000 0.00000000000000
0.00000000000000 9.17115521860677 0.00000000000000
0.00000000000000 0.00000000000000 13.42291269700556
PRIMCOORD
 96 1
Ni 3.346517913910262 2.52883604244987 2.34059349267688 -1.5553914285230632 -1.8927355899027405 0.7617867563407589
Ni 2.0128943541802 5.421363422689208 0.014371200482047984 -0.6254866642237228 -0.035339041620926236 -0.2606772075442414
Ni 0.2802549174796215 3.8376791403404344 12.131548393956688 1.133647206329751 0.68779246424148 0.8440299187123915
Ni 2.1125297862395294 8.106503466297688 12.746599089966818 0.9302528916673785 -0.7666204302839764 0.13665181902950016
Ni 6.344018338640678 0.1883425153666434 5.997223020409652 0.5107326737085784 0.0728861466367648 -0.7850634674805125
Ni 8.322585058229745 2.4790733533524913 10.427201054490997 1.7506500014521784 -0.3353862663223579 -1.2413134367601784
Ni 0.6025660021899562 8.302023327865514 7.003941663699031 -0.5268982277248474 -1.1661644622311658 -0.3152085058229023
Ni 6.34132201895866 7.250220201838611 0.5568963997391237 0.20360000291527516 -1.515911625260886 -1.7003093442160977
Ni 4.013132513934601 4.216282776779429 1.157817096653726 0.9155857765735071 1.5976243690503453 -1.0009682559050699
Ni 3.917504876776775 6.546737557182599 1.0094819124056773 0.28955995201686263 0.6230127487619336 0.11902716396920146
Ni 7.3082644442450455 0.7138698952405488 3.354009830741012 -0.5063756822914635 -0.643846140567517 0.44859245273440806
Ni 4.8930957015874545 5.508966298888647 10.85741811918326 0.4493725254335422 0.2571969623051248 0.08548043836200762
Ni 3.3531761727168776 1.028682643311367 11.933103850937858 -0.11786939621567441 0.3637280506898445 -0.3038851103902831
Ni 1.983519143494814 3.9220354275349956 6.831444153484164 2.3711947482895934 -0.827079406900982 0.873763184110766
Ni 6.503092028724356 5.863981723687676 2.714609717194292 0.1129220795127281 -0.102106734064779 0.8076115279843575
Ni 8.172820090857797 6.730389943687392 9.462388171484085 -0.8477821866659723 0.8647357838011753 0.028448742258996164
Ni 2.9577984930860093 2.310929390596992 9.059687324281477 -0.6992701258637763 -1.6294217160666002 -1.1497225146250587
Ni 0.19063805555851104 2.9992154307866663 5.86190720834049 -0.8863865293017315 -0.4092316915485984 -2.144611139994952
Ni 0.26676231368307457 4.662230207181205 9.933693846514362 0.2232969671235703 1.2073165109894435 0.44256064471803136
Ni 7.6794486159808 2.5524976233328847 13.240294306628765 -0.12019135948063173 1.3906371948303922 0.7776309224618672
Ni 9.078948584812682 6.249316988176334 2.6666363205117487 0.13511198534620603 -0.2813419349824445 0.8200826638681749
Ni 0.20035397756915663 8.440351864477337 11.494738214689567 -0.24213852531010555 -1.3340670117448314 -2.692366413674467
Ni -0.051854629639787805 3.454673349318553 8.125184192693276 0.39473015549831375 -0.8016414264438517 0.49871276642956686
Ni 5.2198456255022 4.408666103206947 7.977384603919478 -0.006985944399529903 0.5268599182877443 -0.5232963693062019
P 1.6949303971204657 6.1755258719807005 7.530603515493567 -0.38077189354600877 -0.2526556227913455 0.3827644984960053
P 1.5358750493475506 7.780844909873285 5.130116875485441 -0.8980020020534728 0.517483876389483 -0.8629270127272105
P 4.830979466191851 7.257052712597466 12.306408393797703 -0.9013557490170541 -0.6571536563097005 0.11917114574623347
P 3.9131852625923176 0.35980001656130306 6.324339790539638 0.3287811023010144 0.08098974958050568 0.5998651070008766
P 1.5385530267188063 1.7118786922645783 1.2562006660035472 0.4080122173192005 -1.5647247901088472 0.472491885059825
P 4.4028240772292415 5.252540794435513 3.2329625022136304 -1.3558475979550328 -0.07172683622134099 -1.589869664805591
P 5.761209756488039 7.389254917414775 4.712543165601444 -0.24423294594528905 0.45710126153636765 -0.34982866699993304
P 4.829603792884699 0.9877976326228092 2.4054665773800163 0.4833126298244128 0.5763428555092203 -1.4586194764076363
Ni 2.5359436878701556 8.931448892819844 2.2332506216353467 -0.053802647642752506 0.6777505066244457 0.14510843443728558
Ni 4.803053298056666 2.0490378775367737 4.481400702302688 1.0358645535616224 2.0005635427220123 0.8300616294577575
Ni 2.9471782951547962 3.744958759438389 4.354473746060538 0.03410799742730255 0.46940296172185614 0.6642195620175464
Ni 3.207345631003384 7.079810963704002 3.914872755182424 0.12795917635150866 -1.0068236862445823 0.15140969406496504
Ni 5.046721725374811 8.231561341073188 7.668268977571345 -0.12410817803653464 -0.2703656384765989 0.47284129797944374
Ni 7.876619285517208 1.2389772361980038 7.824484018522761 0.40505056358771535 0.938001682374862 -1.2042396718363326
Ni 4.233231071923542 9.183536440777758 4.223667391092221 -0.7408106683097241 -2.689568539214355 0.5807654100569482
Ni 5.724222486836413 3.158784363260918 2.421399625623451 -0.5433723141204707 -0.29274554883369586 -0.6098296744127562
Ni 7.360824335733634 4.823266524516419 11.090936828841238 -0.5920553811484707 -0.9065102966348001 -0.6221892244193736
Ni 6.439765200818458 6.261395399813129 6.404823098816798 -1.5564198697875775 -0.029924555473574272 0.2137617739396254
Ni 2.1456009725434635 5.142578641417162 2.507802914699054 0.720853508461507 0.7014771608174243 0.29447435859934445
Ni 0.4902762099359043 8.47013977715487 3.340841885844953 -0.8671611054132162 0.43287375644757065 -0.09801379494232798
Ni 3.2735155170773953 7.910598416203862 10.22318595169374 2.0305899138807737 -0.9954689233533952 1.0681735501069731
Ni 5.0939348332762675 2.0306221975316987 0.09031570396114366 -1.1720977969964652 1.2054786864497562 -0.11953701372608445
Ni 3.686125797669188 5.960920836064987 6.5616030829396825 0.22842837481286468 -0.3067254080525556 -0.16760995797391134
Ni 4.012068659910404 -0.28781653509126703 0.47065177165161187 1.664811922640436 0.7440903675022604 -0.5199914733026851
Ni 8.034216419584542 4.982881312767577 4.753093429118596 0.45010503272419256 -0.936766010195548 -0.8225316396292996
Ni 4.638486085899761 0.6512400751436085 9.845947900290978 0.6033108994576318 0.3650855931590035 -0.3316669084892417
Ni 8.64190634628587 1.4176313430201448 1.587997476724464 0.22513504877357354 -1.005061452137837 -0.9066169974159936
Ni 7.197889589234549 7.093659408329333 11.64681981591076 0.28429150452907165 0.8350189734630328 1.5199575131954854
Ni 2.418782177877709 3.0833424390967017 13.305972618774355 1.2837826616679826 -0.49244493114298415 -1.51230848129066
Ni 9.217102869472267 0.6628727686288858 5.34383597779135 -1.0987159416702046 -0.23787743604090641 -0.21048310318835362
Ni 5.726230969864854 4.307526601665131 4.591173012404651 0.14048764783582257 -0.23554056037761373 1.3771982957166669
Ni 0.6616364968835252 3.699552369146992 1.2976845531384849 -1.1925761194554751 0.056086301470606635 0.5224041965092358
P 7.173026586996621 4.522810303079039 1.1810549701581379 0.4522735011304211 -1.845697514677331 0.9578210310936343
P 7.225008695696205 2.1333116243329058 4.954236126050519 0.2549662732023932 0.7856980157407178 0.9111603938123016
P 7.918476438676152 0.6387159453552965 12.26195213520378 -1.6972157928924383 0.031139144606965725 -0.009655263701576919
P 6.363387818805379 2.0167737529063685 9.184668161351777 0.9985593893532609 -0.512827094343762 0.9935295402388373
P 0.6911987991386839 4.188310752867338 3.8891953543466626 -0.19820659981384572 -1.1975141801870408 -1.6278410018430416
P 7.537625869168809 7.841649670049403 2.191974919727558 1.8398994199383152 0.8687541609319489 0.6326875528475362
P 1.4996214721264045 2.9481045818482787 10.369549337534872 -1.4836368243875804 0.5875778049930913 1.221276315603645
P 4.196628990797917 3.6940955316952886 12.103709351797622 0.06221966806185414 -0.32211988823075494 0.38308768616337896
Ni 5.800498986140301 7.443502301493469 9.879720679981562 -0.5344035349629571 0.7993562299541007 -0.6309404882494425
Ni 0.7431726537984248 1.486974448855987 12.532074760218457 0.6114903499446308 -0.40484796065860595 0.029180735329014263
Ni 4.897195208042768 1.8564802991570164 7.6821742833600375 -0.2742390053890761 0.166375571346178 -1.3749059001380646
Ni 6.370440437293379 2.3182938283679455 11.40442893053719 -1.7007461746431998 -0.45440957363681744 0.7437250137430417
Ni 5.725524790900517 9.172531054320544 11.949989782225382 0.2143983790823598 -0.07795301963671092 0.5039048521534677
Ni 2.5720413554498243 8.934429518318673 8.203574643312487 0.4427424217115343 1.1060052762427661 -0.25615412286290723
Ni 8.644510954414077 5.935131547133577 7.130801670506898 1.2085791797519507 -0.4855841994674089 1.451766972262177
Ni 0.8660266999358658 1.9264195300926246 3.410063932429766 0.4782480708173118 0.7973448559510268 0.03055010487271513
Ni 8.28153496674433 7.081901987130873 5.188693962019513 0.7163813316227662 3.27347480889313 -1.154028083978948
Ni 7.3841282415567875 3.9235394970174817 6.696825349223959 -2.219726175962235 -0.987988298705634 0.0895929178684844
Ni 4.8664534952056115 3.3266073355780823 10.008781764080872 -1.121948429835584 -0.11424028410351939 0.14236815268798708
Ni 2.6695215659946157 5.747709815767188 11.237313971415439 -0.7393232851309203 -0.7278453663983078 1.1575180994100776
Ni 1.371197783326074 6.725070673566403 9.65079213359178 -0.6272892646501003 1.0592759905070273 -1.196066906217553
Ni 1.4123579286760621 5.532728762480853 5.340117991399887 -0.12836566776130795 1.921951292234748 -0.32544663861114276
Ni 2.659460808541644 4.595088178636805 9.088251804831181 0.6400884732972977 1.4200513863264512 0.012178287233746768
Ni 2.32883148590073 1.5227786394634633 5.275271503047354 0.3003549857498376 -0.19807341667009112 1.006025615823319
Ni 7.91501891309751 3.2494779188237595 2.869563724280818 1.156095765141254 0.3205656563697576 1.2752921076984682
Ni -0.1471933754031125 8.436738429257218 0.21023498037666044 -1.159810237878364 -0.5600590307475322 3.429589878853564
Ni 6.520425512394471 9.648972576364189 0.9960360815015736 0.6987510201355127 -0.33300439635374257 -0.3185198295843224
Ni 5.364841592076021 8.050706156959603 2.4770914666746546 -0.7563231621230265 -0.2350037140375372 1.6364302861739495
Ni 9.387869782666737 -0.17857615200140223 9.138104371251293 2.2865051812599972 0.5119639750125182 -0.21454236085939182
Ni 7.391254229287835 0.16104182002844275 10.003157094485697 -1.9289994573307814 0.06522811587087476 1.1924262241411723
Ni 8.72463933897799 5.702743640934079 0.4489243874384531 0.032425981739189313 0.940125156475768 -1.6162993197520292
Ni 5.894099797958924 4.771871369761221 13.011983896111664 -0.3712917219697154 0.37376255210771114 -0.5679152935671573
P 7.2373805843051935 4.873469429072086 8.80500158800412 0.9400009721930779 -0.3270363516957658 -0.4590748403229707
P 7.523749911077336 8.273464350009037 7.926981768176503 -0.988474494313433 -1.0428852078538298 -0.43924880673597905
P 1.8567187491969228 9.440512214553753 10.538087659971756 0.3905829660991596 0.26538464032223974 -0.08482737815904101
P 1.6594471969513247 7.055773365450366 1.3576602408681602 -0.2569879316181123 0.8944001436348273 0.5027355144357148
P 0.036785504233244705 6.153084054763361 11.761116256962175 0.5861665264678614 -0.2818155321847533 -0.8833947936632593
P 4.301785458396616 6.351446974499299 8.66379239148712 0.010599115672084974 0.09663491231693036 0.25549412068140515
P 1.0174571491250066 1.589040237091285 7.433702921968856 0.3268520035991016 -0.5829359353457058 -0.23360657657969444
P 4.258506776153615 3.4904958822367913 6.176097234960938 -0.4806289123446626 0.4502114763950698 0.27876491828388766
