# total energy = -340857.75746406405 ev
CRYSTAL
PRIMVEC
9.36155022788621 0.00000000000000 0.00000000000000
0.00000000000000 9.36155022788621 0.00000000000000
0.00000000000000 0.00000000000000 13.70157503851250
PRIMCOORD
 96 1
Ni 2.2270378919748715 4.103991253960116 10.75787405276328 -0.3206636154002026 1.3880041280829192 -1.7366410887675963
Ni 5.497785650352928 2.353746473465127 11.055458073269676 -1.7876291497796892 -0.7510889103072806 -1.457901110184373
Ni 9.213637672900596 1.7988873951550088 2.9696381780793253 0.440212456200829 -0.9960191394299104 -2.3032695452025305
Ni 1.7787413391988192 1.5922218137010835 9.719801711869767 -0.33735470290263836 -0.15542112921720327 -1.007893779380309
Ni 2.217863572812666 7.270460705044493 6.7212251099188 -1.3125371080928556 -1.5540405709221234 -1.2349239882940668
Ni 3.0622379515415243 2.4162909901209377 0.9019572737969455 -1.256448492629404 2.8436904900041604 -1.5197487396187892
Ni 4.199207580693577 5.968624815927543 7.032936645779977 -0.7140349428777768 -0.7953321963963722 0.0030182180010335114
Ni 3.3789485551910876 0.40390314573616026 10.717083906382094 1.2890279692273219 -2.011549352309555 -0.5914959091005748
Ni 5.040530094068477 2.466609322260585 13.38427380248902 0.4605162007551875 0.7560714511235366 -0.5255514838889658
Ni 2.345957663727418 8.588136337041496 8.424221210573414 0.3964206558268592 1.3396735592983315 1.8073999046487133
Ni 6.975908890636705 8.949173880724775 7.216523197610857 -0.5970438355019976 -0.2041479049989452 0.969773061249188
Ni 7.207288964527592 9.175657863879099 11.988877644862887 -0.5924886120311474 -0.14709204052621763 0.5207862012898385
Ni 0.5916555873906943 1.11958523049469 5.211503829361357 0.8858111164142358 0.07222460179336594 0.3503202619243709
Ni 8.45134536602298 1.3855000629461647 8.74068654160864 5.468865236323478 -1.9239508391632802 0.3026198705246143
Ni 1.9739764679006497 6.433294719943082 9.629014334519612 -0.14050590266826768 0.5170606728091354 -0.08497110282575689
Ni 9.503003188516686 5.536121198280715 5.602848455550478 -0.9129542524879309 0.38011291980577117 -2.1046142878870397
Ni 8.45750526603189 5.396465592911551 0.6636880351392552 0.04952844574743084 -1.6466074838172675 0.0012395288340559297
Ni 0.9559640567018057 3.2416988682144607 8.512308716855836 -0.16471669558651633 0.9657659969723238 -1.4459007432893873
Ni 3.250124263363425 0.40404356898864296 3.708851455333895 -0.49330239404727305 -0.6567474220102173 -0.5440814243723533
Ni 7.182209371634175 1.874107450734928 4.177267851725674 -0.8347667482429107 -2.0651100591448306 -0.0345625684662179
Ni 6.320740802303086 8.699070706502857 4.619033787106263 -1.1146434115337385 1.4477671070741647 -0.2980487062141641
Ni 7.862325991158894 7.567165675990349 1.2256075945842053 0.5092172655053167 0.36594665560771816 -0.11005247127441692
Ni 2.9142973742758786 5.358392168388398 2.3233073931019526 -1.2392550115692529 0.8210717672543214 0.24560437237151897
Ni 5.818942990331111 8.250465222571343 0.3573069659423222 0.2968675414218694 -0.34178831319395975 -1.4505739803953404
P 8.578297347817537 3.6082878111458916 6.7627136279423326 -0.13455559862210376 0.1742817135671321 0.41832954008480855
P 3.7037194535331595 7.712765865714615 0.30676582890873577 -0.636292239479659 -1.1070190622192613 0.43482445241603823
P 6.8295784999995295 1.0197630210797957 0.1914455731948301 -0.7363909419754737 -0.1414808649870273 -0.18997675570488573
P 8.404724846198711 3.0154302007139453 1.1706843159181413 0.8806660818781865 -0.835837098488954 -2.401945656319205
P 5.971807742983818 3.5702518328234016 4.305157860846818 -0.870973537180771 2.1324264250033016 0.2827501281838808
P 5.519036369228649 6.7836039271366815 4.162976509242998 1.4071079387919057 -1.2504609075874014 -0.64785526172691
P 0.42318419445705646 5.408204976819108 3.3481443743714574 1.1952508380741609 -0.44369707231531974 0.26126624727849196
P 4.931898665947832 1.6013118789117993 3.5012319319181033 1.5987607966476336 -0.46934716878325616 0.3650719663122487
Ni 4.880934386846764 0.363213167941746 8.874674664507602 0.8997138425382569 -0.8454404259066729 -1.1465891112023994
Ni 7.7822940987939 6.213214037101972 3.0963505041896466 -0.9875915774878475 3.5129712685946988 0.4820489326206408
Ni 7.769300267164165 6.698001912423205 12.50868801550833 -1.1724718925064324 -0.12124576888707507 -1.2280316320496076
Ni 9.346637216102078 8.581836013780103 10.112557123668832 0.35251341292094773 0.378998860805986 -0.6715736883897725
Ni 7.243443271266814 2.5633890278716867 12.335582655242764 1.92689758049643 -1.1087085341065421 3.1447103630315065
Ni 4.636204742419852 7.782415798946052 2.3420510888433483 2.244936870899908 -0.4513682157073324 1.1456676278293947
Ni 2.171701768946508 7.23566382307927 11.847505131193369 -1.2829367687279196 0.23522688579193682 0.0638183800075417
Ni 6.77333430660511 2.4161786515189516 8.274559044232332 -4.579457146586604 1.8716060070129765 -1.194533500292162
Ni 3.2489353464924045 5.516789597188925 13.556187437418517 -0.30078975929441104 -0.14224473973624532 0.7961559778492482
Ni 5.2706650817873495 1.159484157300118 5.964199611164303 0.4037339016588209 0.052078208752478046 -0.025284742708717743
Ni 3.5520248946511424 6.940185215205097 4.6630021797686405 -1.2737358189549417 0.6813469657264524 0.12245598714509233
Ni 6.88452143792094 0.07250146141185324 2.21373606534469 -1.2146685804791404 1.2517883681495732 -0.5085678048467758
Ni 7.996149350774942 4.186943949976751 2.7729248606063597 -1.0408044140654011 -2.54293389794053 0.33551919235579636
Ni 6.8371332709831005 7.8991824141605305 9.860598490204108 -0.5706347493808495 -0.46668530568037697 -0.08775226511531985
Ni 6.008093111425357 2.819586571251356 1.8449172011638333 0.9438280592486521 -0.7650487149214824 0.681150276334614
Ni 4.130493802478691 6.1276869147898205 11.394079385081628 0.9951501065613958 -1.0746023364514525 0.16109632522510964
Ni 5.130251190854779 4.948917964148739 2.141528556608034 1.0395340319934097 0.6949995235128804 0.7520489602277048
Ni 7.681095741504675 4.944171658214824 8.24314168187686 -2.932133610538918 -0.7684986211432958 0.49285142255278347
Ni 2.579940248564318 2.1399473907850783 11.939333512921927 0.08374185840434611 -0.9600972287223207 1.8672017072976939
Ni 1.0223561704756434 3.570963310635981 12.925750692312157 -0.700724856032432 0.9471175286332012 -1.4322463857307461
Ni 7.3962893008191894 3.522994727587878 10.288115210077764 -0.5206795005086452 0.7483329448286983 -0.6437515239711816
Ni 1.1667861664292203 4.066002083388454 1.366058931717438 -0.8440972816152171 0.3491545237510439 1.212234774226667
Ni 8.900315950410949 6.3961855350869765 9.879081934850902 -0.6195399597219846 -1.399542724850138 0.7760882605650957
Ni 6.983229622866139 5.475991961567607 5.245798932237707 -0.45331479791074186 -1.685674625022058 -0.968971648393815
P 6.229493772839803 5.9976456214406415 0.5559206780988877 0.743311580354707 0.15217485436576372 -0.20109986220124076
P 6.903019861048 0.7244576018836841 9.925982365025119 -0.8852166773633465 -0.1711431679381504 0.37512060879750236
P 2.001171771131473 1.1991303222510774 2.083091888164852 -1.1222765025989638 -0.6528414020875918 1.0187993705492195
P 8.462934965127888 7.125225615776682 7.656440226833756 -0.16454083213028436 0.8301585600469381 0.14349455298294642
P 4.201070529176515 2.363257808433291 9.328388746364437 -1.0240061115611396 -0.023627923831585115 -0.13361740307855052
P 8.317830937562395 9.179196529841663 3.649359740187059 2.468575280523297 -0.7588513278615189 1.5511586213886381
P 6.871930152948322 5.602035872996111 10.601853521549776 -0.6052705942871641 0.5471178972058319 -0.647865289029239
P 2.272132479122161 2.8201389027111214 5.526133360409126 0.26047768993892556 -1.2365928913560575 0.045327520292205804
Ni 2.928508207427132 0.01862199558924392 5.939947579305518 0.7450969543899039 0.5516196417309274 1.5660406807067933
Ni 8.113290427996041 7.492245190015725 5.2600069569239105 1.4474611457979716 0.6807471273589244 0.5787977448076161
Ni 0.4443197662657414 9.129486698462776 1.622568214717619 -0.6823370975538636 -0.9216633502261545 1.9082316286558108
Ni 2.1471183382118637 4.8074649411477965 6.179245652326398 0.8187441475624092 0.15895511051239075 2.035648045129972
Ni 0.3048588811400202 1.36880841900105 -0.02682739430931847 -0.9088047490959316 0.8040356377076412 -0.6409950442719671
Ni 5.699601948821116 4.095004165801221 6.750368551739067 -0.03865679314024956 -0.5770200840819031 -1.1058142432778826
Ni 4.170720383539913 0.266010320263163 12.875794652163915 1.2971032900362887 0.3062284138114791 -0.8600237230374866
Ni 1.3208211128526164 8.369918602683324 4.51588822738261 -0.772142131433154 -1.1120124016687944 -0.5729615977418132
Ni 4.343656299747485 7.067642720708594 9.338047993825217 0.3585917579045437 0.8162344937666781 -0.9923728009265746
Ni 5.25313089832734 4.382881194940996 9.023281784145032 -0.6011984811003195 0.41264534521583773 1.029722702329943
Ni 4.588357859523901 0.9056260653068111 1.3101676687642594 1.0077425985144257 -1.8099185573055085 2.471892260711672
Ni 1.6893853428689714 3.2452468957271914 3.5784675292486585 0.6177664127613296 0.11232249825551623 -1.1549351691742498
Ni 8.951139806259535 3.22335022989005 4.6180611220440655 0.31066253832343266 2.1325680927874884 3.145622847543447
Ni 6.418157093325442 6.705303921552307 7.059270686395573 0.1644503292990071 -0.6894927347620383 0.654337269906828
Ni 2.0838248975428115 8.988220906465141 13.48748770152888 0.5816717239213015 1.8511526242546312 0.6731248349269763
Ni 6.141373501131804 4.566339493534608 12.430095929558792 -0.8983323888096981 1.2401461559249545 0.10197997867892761
Ni 3.549375575954301 2.4113012838827177 7.22981379038084 -0.357718611270971 0.08445919618634486 0.23837931537798948
Ni 1.1709614178030403 6.771593058274324 0.4636476227374652 1.8581449964120644 -2.649956067029055 1.9724079062234032
Ni 9.42717463217601 8.225451160529085 13.241421227738332 -3.4491518601458924 1.8720418089988147 -3.362877208017363
Ni 8.734878635885956 1.4238449724241173 11.00029607507439 1.406571092451829 0.8641367167645956 0.9870886697094998
Ni 0.3551182355136246 5.390052931048173 7.8243396290522815 3.599731087889762 0.863791674720351 0.2543304393906072
Ni 8.064058035675593 1.4371383736591496 6.605172780981951 0.379332847106637 1.1554391053938617 -2.86432822085917
Ni 3.580961446212752 4.55658475826214 4.48093594368464 1.8339041215868288 -0.8954046736399418 -0.40439673205380033
Ni 2.486530701012802 7.804761819191138 2.334803376705206 -1.8719695609999825 0.2698133655175547 -0.2969338758834305
P 0.31772820415255476 5.651380603918544 12.435288781435606 0.8498678655504074 0.7393924478059588 0.1061845036785784
P 0.05791054932388039 3.6787053914909014 10.469264014245544 1.606581578243633 -0.7359327713921325 0.492688414612358
P 1.1006280914095206 0.572608577423936 7.351128246665725 -0.47768011412898376 0.6598497150846249 0.32263308042174754
P 4.785034666951221 8.076621235997715 7.093634128588132 -1.1218892944628744 1.756766912983194 0.2368659640572566
P 5.014870085064799 8.267746644176885 11.367771556806497 -0.10446366433272976 -0.6726448099667641 -0.9969689049376894
P 1.243073438728008 0.2790181942181471 11.398271487245747 0.5009329140093373 -0.49827799288499347 1.7859759304469822
P 2.850264371143751 4.878247621949261 8.507115864979024 0.0025309939519698346 -0.25223396187289465 -0.43125396145596057
P 3.8221898708777613 3.8796791504441934 12.187715098068407 1.1482374454390998 0.6969275937735288 0.5718503669555055
