# total energy = -340862.46944144485 ev
CRYSTAL
PRIMVEC
9.34373447334923 0.00000000000000 0.00000000000000

0.00000000000000 9.34373447334923 0.00000000000000

0.00000000000000 0.00000000000000 13.67549988090204

PRIMCOORD
 96 1
Ni 2.784909368671926 8.911577298722301 7.40520100199229 0.16878032413292868 1.1359920524128435 0.09779447984267027
Ni 3.9052978678841863 0.7041223305124572 1.0933262413956968 -0.166681532622371 0.19774714367892393 0.1343465679350912
Ni 1.697934063518303 9.321739205767042 1.2311463231532178 0.16632054973852647 -2.886501928742732 0.09491844384645588
Ni 7.071450285767663 3.2921059570083164 12.282048221404663 -1.1737080789063787 2.332392173600099 0.015224273148922166
Ni 1.8340535856229514 3.8665026828362383 10.082795712833606 -0.5311999404239948 0.7386411714622311 -2.8890617190501082
Ni 2.591643567243277 0.17496609769155663 3.230987656209393 2.405939607969947 1.7290823025837316 1.5216426142073924
Ni 2.9210756094483568 3.607363554194673 0.08589508119190098 1.1810732610221981 -2.2186985060286695 -1.5987934496577823
Ni 9.38269772870847 7.445919127570793 1.730771683540583 1.5456083809943701 0.5675350274096032 -0.20729802059215266
Ni 8.299319761282076 1.4928577818631117 12.207735633321008 -1.3822654258269291 -0.6819403763360772 0.9829862175053522
Ni 7.126802568095226 5.204319880522906 4.093391912346544 1.5800439369644206 3.2238594598588475 1.0783846863120201
Ni 8.491483002056665 5.2569624798871 1.5438820464367708 -2.0685885046117343 -0.5437001297735347 0.6863364485212438
Ni 2.7886375186801464 9.117429110329077 9.815862975365333 -1.2021084844259424 -1.0633748431667491 1.222523814857501
Ni 1.9426558100478784 1.7148275352347502 9.021905310882863 1.806998041224604 0.3964034294356786 -2.6875594792041264
Ni 7.397640052151057 3.2612529461633444 3.1121334864485783 0.3620069542336798 -2.183716847747162 -0.7054610851658366
Ni 7.848839640489289 5.1200207091590855 7.585813518355445 2.3590917943784726 -0.007114756667910328 2.4256219168902224
Ni 9.184563841680115 2.568994355163262 8.583373023211658 -1.3346267409030435 0.6204881825678668 -0.42961231208747946
Ni 9.101227074955007 3.688196200112254 13.462558044960014 0.5301193057653064 -0.7985759001446504 -0.7161918413197795
Ni 4.913131743038744 3.89388916823497 3.5087908942279515 -0.8193743249472406 0.16893227632976068 2.234274763200371
Ni 3.9586692785281836 4.018179522644363 7.864027880685686 -1.2280087492314724 -0.2040319482463712 -0.6360675250633625
Ni 6.334958456324183 7.028366326650108 8.916124894233583 1.7434678818814426 -1.1655152586829414 0.31296136165993843
Ni 5.850457798739591 5.507383904374106 7.028482188956128 -3.472581294813426 1.170189781340475 -0.7051255562032889
Ni 5.884674553952881 6.775833218198548 11.593377624397455 1.3539861192662617 -0.3849404231014016 -0.04859487818956792
Ni 1.3979160970673032 5.050148263641612 7.346328000559219 -0.05875407811075688 -0.5320772008226256 1.0102355401396086
Ni 5.648492980625095 3.0797509062894566 1.537864681511222 -0.9931754993335281 0.17935167189087176 -1.6376559310509347
P 7.6641981058716375 2.4496842111658528 1.0128262324212054 0.8381999422941757 0.46147676489624395 -0.21481258380164298
P 7.480098507846658 0.7205205843080132 8.210455241311697 0.4477853834520804 0.11841626985807994 0.7102916737852606
P 6.627716341180228 9.279113089632952 12.690029300850608 -0.6609113235799198 -0.20377689481277161 -0.27772516416546367
P 7.430315091195535 5.538078071735018 12.52316141772578 0.5186349592747906 -0.503101639525882 -0.03862362590946897
P 3.324089559710418 2.7730988884453835 2.0942522937405377 -0.24608388311109877 -0.14915586503378184 0.7932945971410531
P 0.5297551661931486 0.4883129012020209 3.21106214269428 -0.3362930944073434 0.31606699716845565 -1.0223600913172843
P 6.199380870812208 5.112872752376407 2.160496567207405 0.3332777046197873 0.9556451064882382 -1.180316842472148
P 6.6448434062555854 1.7649660137914187 4.918981855119313 -0.4092309202176501 -0.24192075287234463 -1.4544188080627274
Ni 3.8525805186451394 0.959489393594327 5.5030213148030835 0.7090071506458822 -1.3078181053506317 -0.9278987896129052
Ni 3.3645946481455944 7.806353680370547 5.1777491031334915 1.2519192373004826 1.2597567310670303 1.7399585831766036
Ni 7.046502515035963 7.4957959815654815 0.196366052488116 0.5081248037720862 -0.5012429890505884 -0.5685709248732853
Ni 5.852522764032364 1.9475052081788717 6.973533555952764 -0.6926893873224651 -0.5474644819119733 1.5063527779278574
Ni 0.40310178136501146 1.4620047710181399 10.567003911532844 0.9843748703227627 0.8473677248363728 0.3132110157768993
Ni 3.2732596448113727 2.48792811588677 11.121462976990987 2.6052340415313324 -1.2823143046525722 0.612232627427294
Ni 9.146329280693553 8.66243596584213 9.521484886971884 -0.9727000050879957 -0.008350943067856586 0.8222673302243194
Ni 9.354386213608448 4.944190316039558 11.14499890946143 -1.20242678699731 -2.818092072709766 1.69495167944861
Ni 2.314723312121403 2.3845210077640253 4.303037280102036 1.7933205437375115 -1.1800497048536902 -1.3716573112937795
Ni 5.235378453523719 2.06587163500628 13.104848125098597 -1.4147096623985635 -1.3362305950550535 -1.6009794015655072
Ni 1.4249848954979163 4.903974883369431 0.9456784198420699 0.24853131621032684 2.3697145641996413 0.8210059470133925
Ni 1.0988698789893738 2.475052449943593 6.5098526072611955 1.3643957446353596 -0.5618739724690839 0.5787542931641904
Ni 4.692049644430968 7.822807996572242 13.287593816015328 -1.027188108833547 1.5790705173075579 0.43285832982860295
Ni 6.2846050718773165 8.689878513647 4.080673221140555 -2.8624669992807155 -0.6235832765534228 1.3712976139615158
Ni 1.0825930937404515 6.7129218547766225 10.853040848266298 1.4903710577876204 2.144961581355835 1.4072874017925636
Ni 7.312247663867533 9.32360795263833 6.053897992508969 2.1863373160891446 1.4031417550553063 0.21672291345047834
Ni 2.322880392214577 7.349304914325182 3.4309641276528384 -1.7919663437024624 -1.194923022421097 -2.4644070080782203
Ni 7.328758042475365 7.365899386542224 2.5905223191205047 -0.8927908901661785 -1.2468027420095238 -0.23855954970959564
Ni 1.3198305090505167 7.113543809043435 8.754836154892985 0.6654056119058475 0.07767971137066622 -2.774048561336306
Ni 1.1737225349188316 4.156102385479805 4.640876814481041 -1.44694589672445 -0.16223018171923675 -0.7279381832224303
Ni 4.753475354090218 1.5044533561994562 3.3437142049792534 1.110649459882997 -0.9298464002575793 0.1343275417716977
Ni 8.467198636464271 7.540730000085611 7.267133311274323 -0.6969975277795157 -1.3899280845785094 0.620808284911447
Ni 3.764347635117257 6.685619462987099 7.3518389350826485 -0.7162872292470632 -0.9817222631912641 0.37761997818058834
Ni 3.49749058189727 5.866005772708711 12.387896847314746 -0.030433891009825007 -1.3101428968290663 0.6357854750465696
P 5.89901718619002 3.8382565738767136 8.66914570148349 1.5149086379176684 -0.8998208004297664 -0.000671315035411747
P 6.905524251065964 6.993523541234936 5.735477541242957 0.303083183314278 0.424598660922972 -0.8725604220519165
P 4.870449564498516 3.9710964452222517 12.336175540158095 -1.2793943027922998 1.1692395016120636 -0.5021241061039611
P 4.251399132181159 4.515938939280747 5.608157948155205 3.5403020951991677 -1.4156720263118328 0.16672858381022254
P 8.517981832691534 6.117613851458984 9.445270848946691 1.1839312992962836 2.1336253304074093 -0.8874764199318006
P 2.8268066735262125 5.564502152495036 9.225533313712805 -0.6935939014146055 0.7698181112856678 -0.6291705408332132
P 3.8746784503981253 0.3194230339624586 11.922533092065581 -0.4921330563295202 -0.05492930504802798 0.3461152227040878
P 0.45211901179890673 5.56948236290702 3.1762445853618697 0.9850860374571745 1.0102273126094923 0.2724541455745114
Ni 4.557761494260181 4.791280103296383 10.210702092438943 0.844376760528849 -1.0070329740419108 0.7917815029306364
Ni 6.850489655706521 2.008566512198221 9.99368638702309 0.6818056505304257 0.6836005376473194 -0.8448323600090288
Ni 4.770125888713397 0.8478355055285863 9.939189056389141 0.6573110078231712 -0.11669131674717322 -0.1503696828362249
Ni 2.882280424400409 5.224380878186187 3.152954393105002 -1.209047377637621 -1.8008021968265373 0.28467768422389683
Ni 7.773837484810128 0.4547679604889581 2.956547228185718 0.9281718407686338 1.41023568578761 -0.8903827949453182
Ni 2.071328375870442 1.238549363883827 13.075911514170134 0.01287094242539719 1.1298052068758413 -1.320128033066236
Ni 3.9707040083792804 5.301597498907825 1.2258801944699271 1.6830114763675985 0.7340612654010326 -0.6024642351866205
Ni 3.9283021418697466 7.1050877294508545 10.485497582368161 -1.603402152074387 0.0781139706946074 0.42088393107554617
Ni -0.06653206048504601 6.285782382406228 13.263319728530726 0.6683382121716103 0.9160406047227386 -0.6870692129222102
Ni 1.160417057195258 0.31717119398255594 5.285184295137299 1.4021984173054303 0.21789430805076024 0.2706512880378178
Ni 9.171062145535055 2.2447013668542257 4.366258855504594 -1.0543656976896034 -0.6609524612305004 0.7943454070030708
Ni 0.6130237236574536 3.0399559416653696 2.136879344248062 -0.10487838327264519 -0.42590272444637617 0.43307533093541545
Ni 2.6730742121596704 5.548739272635719 5.412434744590812 -1.9132910454565888 3.184114575860742 0.47870238474591104
Ni 2.103975383711851 8.229830408873216 12.528617224216507 -0.07565445341052132 -0.11232892601341944 -0.4618968831527981
Ni 5.156797647586042 6.3695302734430195 3.61403778364548 -1.3412568446250515 1.1065220679781846 0.2186245013485654
Ni 9.265480581206903 1.035575422458835 0.6265114042009778 -1.3212269225573696 0.4931273019219895 0.1735782597422043
Ni 7.315938438938327 4.547623542483442 10.166025026613616 -1.795175337558063 -0.22366951997164058 -0.03301810679723346
Ni 0.13559160111350962 0.2696751235018895 7.388516829925427 0.7340748922477873 1.6422067836464105 0.47416335922497693
Ni 0.013601674102672774 5.926814795900436 5.498152294829941 -0.8264849678500926 1.8653170886804713 0.07795790473271734
Ni 6.855311022634444 8.902345689178137 10.420703456473413 0.0902629473523155 0.30403037771889574 0.27743231551539316
Ni 5.415254683619587 8.500695924132117 6.747477787547053 -1.6776034179781496 -0.9728259891428989 0.7321972156091002
Ni 9.225237117333707 7.941576203976978 4.204518813794581 -0.6759515057424939 -0.24037551987241182 -0.3332813041642131
Ni 6.229598507720942 0.812122818444829 1.0475251243272887 1.4153709501316463 -2.1719177982297047 0.5703920372424242
Ni 6.784719109571524 3.8621485026261366 5.819622540989896 0.34088534176371615 -1.8987445151009819 -0.8296322552298229
P -0.011129321991958192 9.020497210115348 11.72887391942053 1.355126403518292 -1.8256519088803653 0.314402207871523
P 1.4931380938938048 3.1525385969261404 11.953207637584347 -2.2339132660958945 0.026604489961405797 2.759194269932293
P 4.510753166712922 8.307729122202874 2.7104295277432904 -0.1827403858574466 1.017274706374577 -0.027763800376829604
P 2.6269628831106284 6.914204580283098 0.5075385690138362 -0.5039909841093707 -0.21648380085647875 0.2630783607865663
P 3.35410163446331 1.9380586927445085 7.177818423307965 -1.1741171414193392 0.3961370631481694 1.5430789297042975
P 1.1558386273606014 7.773024579921119 6.485714938298199 0.34509860851411533 -0.7186644712299881 -0.6326525858445428
P 4.606722662287939 8.084264371334204 8.828136816545838 -0.9778121295035807 2.9213720011470397 -1.1531809054873043
P 8.979637059774626 3.9787489636601774 6.2691365196502264 0.0220063290677621 -1.7146535287529117 -0.28738042786704054
