# total energy = -340872.08705037355 ev
CRYSTAL
PRIMVEC
9.20051800442653 0.00000000000000 0.00000000000000
0.00000000000000 9.20051800442653 0.00000000000000
0.00000000000000 0.00000000000000 13.46588810208863
PRIMCOORD
 96 1
Ni 3.7670692236062977 0.22062289741512175 10.628328718878262 0.7113273141386266 0.6789046748335469 1.2016222888181434
Ni 7.886085856022684 5.717155781181747 11.96030700719539 0.7479560211052538 1.5500959844520787 -0.12229272209435069
Ni 6.987876101689854 4.447631527992419 1.8909207875225105 -0.09174955920017103 -0.18802657395705039 0.6993714273283311
Ni 0.8128445896878967 5.875662302473677 6.6754044347102255 -1.2991902544723044 -0.297256806440488 1.1287757371700624
Ni 4.495336212976088 8.729497326119693 3.871509821882214 -0.07832685803636188 -0.7912490274659341 1.7257167285456088
Ni 9.119222061167575 6.324951189996828 2.884231694475148 1.6662563683964464 0.8558449090694488 0.5703051339555727
Ni 5.710190989179309 5.376644616042767 6.145615616374226 0.7160455455499023 -0.1668828499998997 0.6412413559548182
Ni 7.4611691402491465 9.424458440920365 9.490164859103466 -0.9770683093590206 -0.28176359590089545 -0.8665399268894495
Ni 8.634722791883092 5.296912928469289 9.117361716460978 0.035918825383796205 -1.647934430158807 0.6571174037551263
Ni 6.422890702369279 0.4914208188530867 5.142810695065822 0.02914808231886593 -0.9945898631825515 0.26714327488455925
Ni 4.624511483404386 7.520015652333149 5.9446505453691545 -0.1936647460794342 0.9329399515812384 0.07957744261401134
Ni 1.9366998041229433 0.9136758248164464 6.393711260049953 2.4541573053257544 -1.1374591238766731 -0.2766303884393881
Ni 7.1485079426020794 6.967736168145158 2.1607360936555082 -0.38427682137547364 -0.08885423993024698 -0.859988756034493
Ni 2.580478438197645 3.4771333050160607 1.098867528042154 -0.016918115911577315 -0.039250975080822724 -1.8163802537704525
Ni 2.0268372773698116 3.2134280627784646 5.964889844506488 0.1263005577021631 0.6897940680525411 -0.4643096063593487
Ni 6.693919556804947 2.7334094456804907 5.5498848465985064 -0.7038441183877039 0.7580519718886751 0.5233861008065309
Ni -0.19008269850773646 3.0515357509226013 4.704213729320786 0.48269196552127835 0.13761701115624686 2.175987597423704
Ni 1.5273319634935523 7.114199211588752 0.5842117214440802 -0.34234907079343624 1.60357595864809 -0.5552577527041469
Ni 7.647093204694661 1.8987568685640903 3.302414551243952 -0.9689999305285892 -0.21485577833475256 -1.3093060027500676
Ni 1.6274611991111558 7.268418291568746 4.8391687650541435 -0.08703081356826302 0.39607767066514366 -0.5294035106452044
Ni 8.499245166736605 7.458712601986727 8.324989199011686 1.9237585206468157 1.3981322176558566 0.8491348440391246
Ni 4.585262074312711 6.8832386123322316 1.4646580359894523 -0.492010671819043 -0.13751776657422124 0.030564760160734457
Ni 5.098687771676008 6.537004725098779 12.181282284443661 0.7667561845308923 1.2720232071392092 -0.447138751007017
Ni 7.14397208730855 3.7399736985770007 13.097326322551293 0.37650900450459673 -0.596079157595883 -0.06616374031126669
P 7.6761852420945385 5.715343279167902 7.203994425572092 0.4964134288724289 -0.6082638725875331 -1.4057257137323984
P 4.874526355100864 2.839666226177386 1.3384784541688086 -0.9989309137600667 1.0580506027403584 0.7290283309628154
P 8.659748200399115 7.644149038986894 0.18986004597608652 -0.6829420781277141 -0.2511641258474836 0.04671283067550665
P 4.645221849054963 2.521475517310418 11.272900437590494 -0.5965704954100047 0.6538698433521062 -0.8463243711735231
P 8.51579689832496 2.279419093542749 1.238812924650178 -0.03909979421493911 0.45764530696529576 -0.038025330203837734
P 4.549932085819502 3.468337609964105 7.065914893981366 0.2982819052708927 3.7490612737178783 1.3422274360684368
P 5.7946333418852145 8.697129904369925 11.593820020047847 0.05974909503417452 1.1414263360545374 0.7429325997487335
P 1.4770971361047698 4.094892874648368 7.975225993136047 -0.007607894254244962 0.8600635751364865 -1.4272335058971872
Ni 6.287385475669282 1.4488331453102024 0.8168219735487338 2.5121955883164087 2.231123362055583 0.12397216667930262
Ni 6.403799627857975 4.17275685710098 8.276754564200617 -1.2885713413058777 0.7682577087770833 -0.28306637387271893
Ni 6.613323020554813 1.6813762336346474 11.915816063092105 -0.790893186788412 -0.6705473040077872 -0.7928076302023056
Ni 0.21677064059686477 3.859433222169665 2.7454786849787705 -1.7584962369694748 -1.1488038594655314 -4.658080452817462
Ni 5.204180909192451 1.8184087462955492 9.084289535044913 0.866050903068173 -0.3332087990550649 0.1390293181227412
Ni 6.40449886721357 8.49047707323816 14.055424087587248 0.19451758099803274 -1.756463265699846 -1.922903371735372
Ni 4.840576444283171 4.514859711825721 -0.1112232200251851 -0.7001329880847038 -1.8526796024221188 1.2017937813990014
Ni 4.518981543816596 0.3756838247771806 1.8940176818263685 -1.2112924649180559 0.2320934823692777 -2.0234985542516313
Ni 0.7192964844789368 0.8749057627040674 4.55460778898415 -0.6099980816698205 -0.6622480401134724 -1.789308594364641
Ni 2.0237919059658394 8.076932197510875 9.676385180223324 -0.6447848503317024 0.18278075217707876 -0.6841800642998733
Ni 3.8947540101450375 1.7369289603330849 13.341072881445575 -0.6059051425473694 -0.3093029389717447 -1.752262597354937
Ni 9.170432143447053 5.25636624636263 0.6748487828094849 -0.5466445571138392 0.008272524421437366 -0.3832139273285981
Ni 0.29150736703675795 2.96887829867703 12.812953957096951 -0.12219244907106051 0.2942103063046804 0.2094649463364844
Ni 3.6197321309682104 4.729921816260298 11.377396238973429 -0.6039924989056887 -0.23367393948252013 0.40285792681177074
Ni 4.51643300037581 1.6289148809293663 6.4527730642513355 -0.8968941137012747 -2.514368684708328 -1.849726433331066
Ni 5.6465878093736945 6.270051700064801 3.8240425102587325 -0.5219761078328816 0.5176458558886441 0.800932316191969
Ni 3.851649584079755 6.286014598511604 7.795752411745894 0.5304820884213638 -0.7821678911002723 1.8177061716707277
Ni 4.760789553602672 2.2681116571213544 3.403623927655593 0.7588690684733317 -1.1031724347796612 0.7340558660843939
Ni 4.024352504393827 3.7773001994407895 9.342309777311167 0.004630813903792025 0.9269325690448939 -0.9610320818317643
Ni 5.993024107999558 4.636858578341336 10.822493687150175 -0.44394801198386125 -0.7471055001795004 -0.3592553596304716
Ni 2.8339251030472394 5.482229758737577 5.728321529628454 0.964628540933771 0.5181438785709851 -0.5784557880871651
Ni 2.1899808596514756 2.8226360676615183 11.387522328904582 1.7889044169476869 0.04433636002353009 0.9915122526984923
Ni 1.6150497005493487 1.2718611847198678 2.365201961697472 0.3073177902209159 1.974038499848291 -0.05932203479908493
Ni 8.047242126451605 5.283636581230826 4.868833994715252 -0.058739165712421416 0.2804469339720008 0.7235889051147989
P 6.534198567158563 -0.18942578153419082 2.7553094382873624 -0.7790406583252003 0.8516018175223785 1.027130001902102
P 2.956163183026609 1.3224548323042842 4.361870741080504 0.07567296535328256 -0.12466456476063692 -0.17342887864853357
P 3.308092190801025 6.531401609736184 3.5896289566580712 2.660920536460359 0.10964906518841115 0.919808556405603
P -0.5730625339294783 1.498037514701266 6.279655200582826 -0.1593132651827579 -1.6557181878692842 -0.13205262969459192
P 5.875349484867226 0.26561986999942894 7.477809196808735 1.3367774686974592 -0.9211594140065427 0.039445350479815934
P 0.6172250195459902 6.535891462440529 10.510461804923143 -1.9643613817698427 2.364692942615334 1.1514670081199911
P 6.381479171585963 5.896979902301481 0.23423414350284416 2.0324704187329385 0.3962270517588144 1.3249701916498857
P 8.025556505910332 3.852891653987719 10.854098385971273 0.5592331924121272 -1.8326656211940373 0.12725855074005826
Ni 7.313482427933262 7.551950649744589 5.815216740389643 0.28573749294697887 -0.5028992937070887 -0.8055996397606513
Ni 8.537758534401338 3.410153535164351 7.011620798122999 1.0890357382679632 2.3879714535273004 1.0457974964046182
Ni 4.318658668956531 4.111665418664805 4.75993574554742 0.38069810288527983 -1.6120446582407333 2.007475439350497
Ni 1.7000716858789708 0.6083235185389119 12.261525520808862 -0.0042423202161217255 -0.7078403840312907 0.12026077926598643
Ni 2.758085234518717 6.93285700502595 11.831735290737186 -0.4512463454174874 1.465334940754599 -1.3695384651785638
Ni 2.3865039206449534 3.3115791870611617 3.356736248655829 0.4862331459053175 -0.54413078955305 1.925494529501316
Ni 8.760549073818803 1.3920383487038006 11.046148155192514 1.4990022511000571 0.5820123950901718 -1.4306864974427942
Ni 4.380614956069363 4.588197039502641 2.620933115125937 0.4276919551363151 0.40013281457112376 -2.2131793759826532
Ni 7.700999038700316 2.4941039767460174 8.967487121003508 0.4527234441836462 -0.6060681504877949 1.3718809972688113
Ni 2.0878643121811287 5.586149607703931 9.466007059419448 1.2441431928994895 -1.285401171108012 -0.6209800346026209
Ni 1.2496695356975707 5.193885529733102 12.056332811857793 -0.6716508214846111 -1.4658537893725465 0.32327019978511423
Ni 2.3169572063167845 8.172056351425272 2.6375906526694153 -0.06013861716310932 0.09775359930240585 0.2910190530608924
Ni 3.916172815669046 9.11692193170838 8.244503068975593 -0.7119168680935094 -0.5050096551818721 -0.5325492553630377
Ni 6.546223643971225 7.325213088175148 10.221511261793225 -0.3494255180242434 -1.472619133120838 0.4592759005901832
Ni 8.655681571515261 0.6629359523144309 13.174499346114363 -0.637552080028689 -0.013724548674944105 1.9457003150252299
Ni 0.32953586741149304 8.470300337622117 6.356154746240244 -0.8485365483334936 -1.0048297957430048 -0.47235458815101233
Ni 8.322310008217618 8.19341995384226 11.526018643953314 0.4723044516393672 -0.4852712962126804 -0.44138462213205915
Ni 4.010432120906788 8.532873059430012 13.035612009057568 0.3510288579556213 0.35056708782785434 0.03323099413898793
Ni 2.0901736421581587 5.507328771396295 2.1465700563422283 0.08466411310829935 -0.07283549590448746 0.37491543476523176
Ni 6.336221824346874 7.130511729713351 8.023016242935599 -3.079846572478586 0.8415935413567571 -1.0788145747605873
Ni 0.48884467385879016 0.6102105447472341 8.121747919893796 -0.7284932843949518 1.1680570512681883 2.591310489471705
Ni 0.7263753629025502 3.1774816395901913 9.693136563048737 -0.8360417583005924 -0.11392403841468123 -0.0728807473201261
Ni 2.5815180967132005 2.232183634968755 8.11953979561297 0.627264839170068 -0.23909176806398177 1.4784971891681697
Ni 8.902494663004543 0.02380173964373253 2.214034693483936 -1.1312295980271938 -1.1338341255295765 -0.49449590013474193
P 1.8189331758122453 1.1478106027266535 10.066936121772947 -0.8033555809214808 -0.6572271898601132 -1.050309268232043
P 8.891288432279351 8.128832318628112 4.124507501461373 -0.40503050898305726 -0.541503636342848 0.9454272854149718
P 2.957837677272902 5.592764780028572 0.0702441135801968 0.08113604535038285 -0.6884707212554272 -0.350134628276126
P 6.427049336431501 4.139865005834515 3.9730964195251626 -0.6160394027678939 0.1942527573724203 -0.09546120372380333
P 2.376374150506666 0.1136668775626321 0.8144261587040381 0.6193815797672494 -0.0723798964243076 -1.034004360424432
P 2.595272870879177 7.838491577253056 7.076377722865344 -1.5567453714477963 0.04862418876560658 -0.8325468577734565
P 4.2800348950777565 6.462425327513894 10.073763826059617 -0.077323356472512 -0.43948457689586895 -0.9395091201583239
P 1.0688241570979546 4.965841494630838 4.1995524452487984 1.0515842782897245 0.8236135598395686 3.2083485087074424
