# total energy = -340859.84971457976 ev
CRYSTAL
PRIMVEC
9.39513872663638 0.00000000000000 0.00000000000000
0.00000000000000 9.39513872663638 0.00000000000000
0.00000000000000 0.00000000000000 13.75073520161096
PRIMCOORD
 96 1
Ni 6.0871760846464635 7.958405845675494 13.382394126619484 1.2423431635762734 0.13368168065758268 -1.0530261529425735
Ni 5.924226800239738 3.4927837129535453 9.015999690057019 -1.2320168419496007 -0.7166214726580303 -1.2308104803463253
Ni 4.3843823689843475 0.6604763666937221 12.364523867881415 0.5728440983273424 0.4503793694315018 -0.2388104893781371
Ni 5.299064880630195 2.146479137485663 2.6289890301857297 0.8980228279890792 -1.02358702174585 -0.6464393552159899
Ni 8.146712609245835 8.426715925849482 9.768219585477196 0.43167279416093396 -1.388951322487537 -2.6646121263793336
Ni 8.218500863521193 1.8272793025157315 1.3877239836341346 -1.030990513298773 0.2756446274873511 2.4775340323784816
Ni 2.342677817505592 7.271536655541079 0.02769029208555938 -1.158026920725696 -0.5035700945218683 -0.10875534972954817
Ni 1.46636505202655 5.7580455881441335 2.1166646045557567 2.081245788364429 -0.4712559557701948 1.9437311071140007
Ni 0.22021735192870392 5.0550449449812165 10.827658635085744 -1.5657668582201163 0.16316991992468674 0.0014164207315523994
Ni 0.43569203787675087 3.583540752123804 3.405617495767849 -0.5853622853990113 1.6434044034989375 0.40275122603057734
Ni 7.977196122936417 8.802963042583576 0.4692890536192814 1.9324568197517622 1.410537276188429 0.8150507578712222
Ni 5.511742633807954 4.978596701945151 1.0005381069925938 0.7063483728667964 0.5498802904423176 -0.6953635917205185
Ni 4.097201166467029 1.5791724815625023 4.593089736576873 -2.7098054350865204 0.6596936491227348 1.0724824618949724
Ni 1.3411090638052368 1.5793040135033287 4.966862173795704 0.6137832597438656 0.01015482904581477 0.6675159733806311
Ni 3.9730725948813705 7.7327628011876985 11.257768081588274 -0.6796947748350101 0.6828312635814627 1.1922200216676369
Ni 6.642954905470048 6.630797596082231 6.449672476481013 -0.1178629684577712 1.239575371023149 -0.34786125886091707
Ni 1.8004937622802855 3.395121246889897 6.96158445552511 -1.379813621852327 -1.0089042229226945 0.5285686734487349
Ni 6.154717736260852 8.310310158218062 2.240352544139646 2.136590326573004 -1.961339050003751 1.9938830453780434
Ni 7.489626008569984 1.9357931536975626 9.630478397529863 2.3385129417858566 -1.4102901931746292 0.23412208276353227
Ni 4.952750675572751 5.0461759341140615 7.3450376435887685 -0.07962963600818544 0.17492963156377617 1.6501764321154486
Ni 4.872722884718479 4.191612914564537 3.8669676572443903 1.2270373864571384 -0.03275919670889197 -1.5169269538992778
Ni 1.8387695570607858 7.013959534848345 4.699245407962459 0.2939323700529454 -4.931819378641667 -1.0507586970646356
Ni 8.561554955473865 9.38316922384636 2.9959274435647636 0.6466077624730542 -0.3517371968765555 0.7030419342013827
Ni 2.4165799779728028 8.168528121145767 2.3089135682954396 -0.771500384084097 0.8255002353393203 1.8884588169042575
P 3.1876390053747836 6.075479137051539 7.166910512724533 -1.532079236159684 1.1127006859850705 0.2700835884598058
P 7.167776744506262 6.330453804343636 1.6719382013719537 0.21259243622187257 -0.6600458902558309 -0.8766510471815225
P 0.384950773161354 1.5049884669363778 7.419676382924608 0.6948863949737839 0.08975206915416802 -0.495593761184611
P 4.311457302934706 7.161613533564679 13.475871997937125 -1.027294038283792 -2.4451437889732337 -0.6650019487095256
P 3.2254262529465003 5.451162779918738 3.540883064686056 -0.586737568479983 0.961741449193963 -0.7570088753361415
P 1.4826280369958793 3.766144666545455 1.3290165808739696 0.012478849193301089 -1.0962890773962668 -0.1768538451696825
P 1.3168414207227543 8.855716745993618 4.160794041315034 -2.459983167978912 2.909088041573364 -2.060492872087793
P 3.70702105914396 0.745187634155279 2.671368621520016 -1.2624839001902062 -0.5027254871333858 0.28739276916221473
Ni 2.5165818335554357 5.131831413007979 11.282093035016404 1.4221018410975765 0.8862438330762801 0.3733789435160473
Ni 4.358883962741275 6.9913924118579756 1.9607861014823165 -0.4208340516742172 -1.865742349143348 0.3742225224632652
Ni 5.248246575778029 4.600404791514551 11.931059417373945 0.6202876365212866 0.5867820485646733 0.014846063873897013
Ni 9.168960063071836 4.090239368741857 8.422352823469495 -1.3957884000140284 -0.9471877197495043 -0.2256551829431017
Ni 8.442433992778243 1.1444124414378931 5.409593989048259 0.6988525787103835 -3.4722763619784973 0.3789340690063216
Ni 3.517859337958247 4.845072991729031 13.736062846196853 -0.830290457639112 1.16442948181793 -1.6094763832929246
Ni 7.208157050339985 5.612308197708414 13.012623078943367 0.3903466817186374 -1.333412665990284 2.9148889645258573
Ni 6.787207864002155 6.213136708265061 10.985063848186634 -0.414529449612428 -0.2351685217501756 -1.9102556010643745
Ni 3.0071302068677257 3.92705520586937 5.169905212307924 -0.34965357487464943 -0.181769537303745 -0.30127158402683596
Ni 6.989325481359274 5.647502387018123 8.578959449786796 0.9035265314161278 0.888792824750379 1.3426483256559392
Ni 2.4031637200085036 2.0986766721338745 13.921106678120836 0.6087798929920032 0.2978730998682483 -0.38867597888443384
Ni 6.94098749310555 5.078297913091609 4.77953532318452 0.731180858529444 -0.5617163638452971 -0.26889651013024013
Ni 6.135936854138559 1.2469603795893813 5.22983116454846 0.8558752480867519 -0.021008483930867045 0.5391343647797231
Ni 4.471860504772575 7.940620848248031 7.071975455405308 2.038168240448664 -1.9096274805620725 0.2898556288804105
Ni 6.333845449389233 8.586668161033089 11.005194811730124 -2.212345824337764 0.9236271588207446 0.7908443358283477
Ni 1.7955613144992932 6.681747432875224 9.119817850951344 0.18553286100091917 -0.8727843651372647 2.0277375320336435
Ni 2.425195320096936 8.742749599100947 5.8746439561174775 0.02269615604593511 0.7375391966473039 2.165223931149297
Ni 1.150942062786064 2.829336603424871 11.480062698668174 1.490632281868807 0.41690514893345615 0.40846781679938043
Ni 0.9454421955219781 1.6861173445930462 9.600680775849492 0.12781416613321214 0.6854116227141293 -2.0410082810006203
Ni 8.608596414596587 6.619983791518569 3.256875539998107 0.1305354217191171 -0.4367728343916607 0.4849771620110292
Ni 6.761549740402365 3.841681581134366 2.3888323755415977 2.1241557003540774 -0.056176290081251634 1.5146384149754173
Ni 8.45419670634358 7.338467623144488 12.340651760135275 1.488304919287211 1.1188206828398795 -1.1425380810614774
Ni 3.9216905817113763 9.213042053525962 0.751785840015452 0.0978628711867605 -0.16667201954067423 -0.2569182547224414
Ni 4.397112781828623 6.144984372639693 5.268786227851944 -0.017236418482944507 0.5151637128967387 -0.16647430170757135
P 1.2861381076784058 7.080834131619969 11.445396516149495 0.1717977708030138 -0.37924517248883716 0.7254976921017375
P 7.5035214186044366 4.0759963385780775 10.285810925823407 0.5892405374074948 0.3909642606979783 1.107920748097924
P 6.041572081734203 0.38146235818786367 0.9458320937751422 0.5732066238730837 3.5227000658466885 -1.7913171401542376
P 7.257876123972388 4.307727432898412 6.965462768751766 -0.8356262680297286 -0.32340955357645595 -1.219330504731184
P 8.201223203579772 0.14192954074879377 11.53327770338497 0.5339890731333578 1.281311831529987 1.2135156978216197
P 9.167550792277268 6.216556538726549 8.665218096580789 -1.5526465187880745 1.418139514015719 1.488438616651598
P 4.018723573486784 4.148414067141675 9.726445041070713 -0.11544381749331731 0.6358636365826725 -0.3598667679622254
P 2.96142285743053 0.4411149118942533 10.723689212459467 0.05902610082522093 0.34501041967568324 -0.9733764623297301
Ni 8.999631479535028 7.392997007755687 5.628354154975379 -1.563462892677288 1.769088153552708 -0.2789793482875389
Ni 8.797513862177908 4.42249844640813 1.261754904390769 -0.5016798194776909 0.01695591112804822 -0.6788344837172438
Ni 9.43488006686842 6.870298470049957 0.9006029568942372 -2.317237063126216 1.3183354599421877 -0.39527908602324824
Ni 7.254174439351987 2.932373088785143 13.304125105716835 -1.8045701485094017 1.0628904473311631 -0.05963390961254891
Ni 0.39488425323534104 8.651720100910406 7.8826086857465185 0.02813661033521606 0.24092804994177217 -0.7288948907087447
Ni 7.147633567282552 8.970299856730726 7.116514049596874 0.2642443560702094 0.3179924963259427 -0.20618010493762554
Ni 1.7157402166948916 1.9537660538976356 2.624630625375059 1.3081518345409666 -1.8273166981772981 -0.5337049662340357
Ni 6.008454218061826 2.163691031456669 11.24071684448785 -0.15808659186450838 0.002138643609557607 0.8105464422429655
Ni 3.5653047880420776 2.1413118112389093 8.417498355339136 -0.1375337074138212 0.0723475005244754 -0.12358598698447748
Ni 4.88760478430913 8.471173721848825 4.165578985419528 -1.355905961996794 0.2972768610451461 0.7994778431336296
Ni 5.417810037780598 3.521965013539759 5.875510187899206 0.5955855057889162 -1.8702518069779273 0.3020442005268024
Ni 1.9426328146205385 4.081182455102092 9.222026624598273 0.4900486629966658 -0.5105398409714821 0.38673428177703073
Ni 2.901491268106816 8.512061365168595 8.682777610681121 0.5023814735304057 2.5692547952232463 0.7528480590902324
Ni 1.2425352692944338 5.303302088152533 13.450377349749504 -1.4958914733852173 -1.5374844663356553 -1.4426835219036702
Ni 0.9697662094362431 6.045809289256541 7.054182002353077 2.007209844393937 -0.7355764164939782 -1.990530841076359
Ni 0.8880369589759949 8.979046730795687 10.216438161689942 1.1367780386492488 -1.125795828606132 1.7779466323846023
Ni 7.755846656802742 2.2007454582152093 7.369032827650968 -1.2172605095760327 -0.057793771080016605 0.2519506263045209
Ni 4.318343939550833 6.365835896425954 9.514147791007488 0.8463210287394134 -0.7593321241526794 -1.2280465444479431
Ni 1.9782779705845097 9.288212557708286 12.75229412214577 -0.27197540616587995 1.2570539874238866 -1.2532680380188934
Ni 5.3559712353149 0.5140822560677331 8.995318171389783 -0.1406462849008739 -0.37797119087242 -0.2937271960206748
Ni 8.761220441648435 3.3768101216991275 5.494325925814804 0.9213869566363164 1.8167350660067096 1.3693178645273256
Ni 3.5841514361347837 3.71535454710918 1.9491802867321073 -0.4630641639880219 -0.6531941574413203 0.8078010182873443
Ni 3.777672501645031 2.9129627323746092 11.428070941001064 -2.067677819872007 -1.828889956201689 0.12769358139494782
Ni 9.170134455400644 1.5754801920807309 13.161185587565267 1.2305220025716292 -1.8744697017140168 -1.5590724769190762
P 0.10569155153724047 5.386665153220618 5.218582365066209 -0.3432458715760927 -0.32602307993990304 -1.8431333534945804
P 6.236756086782042 7.79242193149113 8.767207023983765 -0.770182436603622 -0.017807203384749976 0.01647434350593937
P 9.205413200958027 3.7089940382563573 12.82279430291489 -0.8814281568551917 1.0240264232761138 0.2921724499390452
P 4.65147676510974 2.95959080539759 13.521743762300353 0.7517393994070859 -0.1202191273947736 -0.3637671314578961
P 0.9679153671260422 8.85677839665886 0.8830847814038786 -1.8093346597775808 0.8029241498110172 -0.44234775737627685
P 6.96378949456168 8.74320056575521 4.566481764461543 1.3864475822290767 -0.8965855813219203 0.6559557793468574
P 7.965828005193559 2.3623418426591485 3.8168051330686295 -0.8948050923827299 0.27821830175179824 -2.8985915129174145
P 3.9147475742634654 0.4617400597297056 6.695906846305193 1.1432081105453085 3.8328514688616573 0.9257251790003541
