# total energy = -381176.9524822715 ev
CRYSTAL
PRIMVEC
9.15583000596628 0.00000000000000 0.00000000000000
0.00000000000000 9.15583000596628 0.00000000000000
0.00000000000000 0.00000000000000 13.40048269922083
PRIMCOORD
 96 1
Ni 5.377218888454854 6.605272038583701 8.274289182970428 2.551018731831194 -1.0231105963300637 0.26826170475971867
Ni 6.585193303657119 6.615920268734005 1.8871492977769928 2.3977370175544963 -2.2044813339880225 -1.680499251468706
Ni 6.064949894052329 7.644083340925264 12.27452069897234 0.5316545114629101 -0.985776892876612 1.4323307179144364
Ni 1.8370897979087364 9.444787870891348 7.876227576363702 1.4368484032791318 0.4823250691001629 0.5591658295093015
Ni 4.760692771833221 6.603504963416884 3.1802830022750324 -1.531860949501291 0.4290099026167902 1.4977550089565173
Ni 8.334432913868385 7.967796862158381 8.30472133032518 0.15555405525064178 0.05958582998343286 -0.5344305315461505
Ni 7.6510051483144546 4.017706332910656 0.4370205783286123 -0.845884455422627 0.8737032774071082 -0.2989141395382529
Ni 4.079663833707819 7.866844681902799 7.117076519788204 -0.7916200376521076 4.082082639352486 -2.0242667998762234
Ni 1.0418693495214424 7.945355923122789 6.490966080448311 -1.3250817775270856 -1.6491307644597533 -1.1095055760865409
Ni 4.285962992561326 2.582117986894516 3.38061988471076 0.41724556299201043 -0.5551960462282761 0.3100259331806984
Ni 1.8297101990255513 2.4291149137718033 0.5812624378392655 1.1080822133764527 -0.0193506366124699 0.374166215304033
Ni 2.8633026783355806 0.021413654923068636 13.397762486551235 -1.11273925253249 -0.6930488275444129 -0.013030607931713041
Ni 6.00348680806868 0.9339495827272701 4.818317733931224 1.5434715371570256 3.7938213515423884 -2.1608738817107174
Ni 3.3445788759715915 7.440320346948484 9.304021564403097 0.657738582278893 2.1425349741922135 2.311069500862923
Ni 7.406242348135562 2.1420430237179753 6.354723669503712 -0.48929712954262183 -0.9644596194560744 -0.5397133772116447
Ni 1.0274031383112283 4.92178044273987 0.7699769098254707 0.8432938118773153 -0.29093060711214414 1.10196581606607
Ni 5.292261942999426 5.438517169500666 13.294203641528853 0.12399967748312839 -0.3540671305613128 -0.2041373634759839
Ni 7.551005174366381 6.698148776885227 6.288350311955481 0.28369552281628563 -1.1726413282047612 0.6487209521613151
Ni 1.0448175267427644 3.590028363391475 4.009651949365323 -0.16193707595885015 0.4430535251940499 -0.5398352475014897
Ni 1.3838212838752852 4.331064610549626 8.575719245441887 1.098221261421973 0.5530342626902668 -0.2318451138038975
Ni 8.46632264328809 3.4506766326196674 7.898713378965705 0.04481355677026476 -0.16901018075554763 1.8782435669341522
Ni 7.923446022220231 8.675396018595201 5.3530502443209285 0.9765546029473955 1.1294869043044742 -0.9113357430479015
Ni 2.662350524131924 6.340631931735585 7.550876992748062 -1.427869339708973 -1.55958361222754 0.037153469121845695
Ni 7.5153981519635185 0.4709246163738163 11.629273659600507 -0.43099710825014803 0.7892178559685182 0.4247871227846942
P 2.4047329388016774 8.000757849725957 11.550116932373983 -0.45589387149182775 0.557093263250989 -1.6397974028739697
Ni 1.425828231364185 1.4694740724015838 11.883011919810645 -0.6397956246472272 0.07749227795020847 -0.23816642803623495
P 4.417303372188237 0.57313663882087 8.5984330282079 0.5156239403626087 -0.002700429650298575 -0.07295839463559692
Ni 2.700978970395148 6.860829562190975 4.7585649569691375 0.4956094449138948 0.7122161445014832 0.653759800136803
P 7.821074688333268 6.418685381461581 -0.21763865415974135 -0.08639626530805766 -0.008910672226068523 -0.015060750987864384
P 5.672704986168294 8.198496307641774 4.859591299446746 -0.8822596516175516 -4.035832350135695 0.5694427859552773
P 2.554751211383548 0.09865589812170737 5.607713243348937 -1.1874398266701742 0.5155239244496347 1.3189417260676186
Ni 6.773135023601464 5.1503740473508905 4.102812518393125 1.0338444378078002 1.7397688357633008 1.4409961068989183
Ni 0.9247021945485892 2.040248507113444 9.261609929233508 -0.7004158094324454 0.717316698952842 0.8763957366376067
Ni 3.560061332194621 4.633161217436341 4.38967657110868 0.1835078601510904 0.22779922586929802 -0.8940522733771054
Ni 0.41607661747838165 8.391180747463896 12.767216047634541 0.8919946195171283 0.050216472953390934 -1.41267103470198
Ni 7.987179754014091 2.842637970296686 10.873433351109574 -0.1944039382383039 -1.1369598156427516 -0.16233174029410752
Ni 7.634396472912348 8.673409203511268 0.6494010393883372 -0.9025721379226584 0.05579988057843939 0.2830712589687254
Ni 0.48104913305499014 3.803853614406246 12.413067632297706 0.16993629211424283 -0.44254881764348947 -2.33793161536109
Ni 4.660766044524186 9.205637594428822 11.419033831566697 -0.0040386888457478835 -0.927998548415563 -0.641084775772296
Ni 0.9741253642401936 6.982940865298966 9.657687467505262 -0.5551297117667149 -0.4094697757013335 -1.1988938341433868
Ni 3.1478933384919605 2.488875015397795 8.085582951231114 -0.0755680643443021 0.39071177836754 0.9755783550770553
Ni 8.612925791324765 4.159026567106639 5.7006458322127305 -0.11641518026765113 -0.1161452144357161 -0.659214138383155
Ni 5.741575138524768 1.947490794600357 10.276977729167632 -0.264179564270545 -1.1872215400117812 0.15843986143886907
Ni 8.75093161510423 4.848405622082494 10.005283055397065 -0.4321199090006816 0.8691359697514 -0.26529079505685277
Ni 2.620801368137019 6.6052079477745425 13.143608551664549 -0.1191775735041367 0.22051837593716864 -0.11265031390858017
Ni 6.103733989423511 8.620653311743386 2.568403469317441 -0.42092378317454604 2.0115928039529805 1.3684694004841014
Ni 4.623712401000303 1.610913332386005 6.405484505940767 -1.1175821824470882 -1.3058926061931444 0.4868656372829938
Ni 0.6840128230832561 0.3050832385935329 1.4130805694224249 0.7311584899319408 0.042160178307817715 0.6095599656911374
Ni 1.9344895161709241 4.843507253096757 6.052555647143934 -1.2970546961865406 -0.7275149796420826 -0.344330105779207
Ni 4.899907165156831 3.9044944964459116 11.176351235936513 -0.8737035345174242 -0.2989444785555561 -0.42590529554953743
Ni 4.423034921693044 7.551462965860375 0.8646903076009008 1.300543426066089 0.10110760337630327 0.40174566758419844
Ni 1.1104282036620008 8.525853849167085 4.008914905059993 -1.3021079423397315 0.30786697785616657 -0.2753695194490935
Ni 8.24328662741416 0.8832363566055903 3.1452134270861194 -0.6699202119467494 -0.5354849409525939 0.4320170648742302
Ni 6.7052720125317755 4.6610407194205825 6.9710913902684215 -0.8797625962273108 0.4779310537975253 0.5066621031836306
Ni 6.213722973770537 8.472209841900854 9.502188515157295 -1.0455352438821672 0.35215191581647093 0.7898210367701559
Ni 4.317578073136559 3.2333446987609022 0.7286136171771267 0.11530009282660143 -0.6761427958176937 0.43325273705354417
P 2.573319234379949 3.2636230281736727 10.450513666378967 0.1376031271991759 -0.30891958749039694 -0.30886559432401
Ni 2.5471610284131256 2.5238319738791857 5.4889850193815635 0.5734616773066834 -0.8479907031323524 0.007531789600670899
P 5.442152033962979 0.22361374873935252 13.535023025778479 0.3761773321967909 0.9012169094463448 0.09475029369970779
Ni 8.923436605871093 2.468906150429772 1.6408492337612681 -0.2727030283605239 0.38413386803970617 -0.06325350864300719
P 7.033993772709189 3.053945368094489 3.5623704324903267 0.18679732953563957 -0.6454391960862497 -0.2266928801789967
P 8.76029802907135 1.985267748684751 12.820656795477438 -1.865348456139039 -1.2674389302026365 1.1469187266276764
P 7.98961520476214 7.485660016513661 3.457056414879969 0.9296191147381216 -0.04716791593505425 -0.4202164726948763
Ni 3.560216981302579 5.230789701185897 1.4884852375641713 -0.9269158568743456 0.8628853608559978 -0.027961775320248614
Ni 5.508559268081765 3.5243993748124796 5.287307723451422 0.3975933359787217 -0.3971904441133482 -0.17091691085995725
Ni 5.772018272875377 2.7040095500853885 8.05488253806088 0.08072312618268034 0.8594452248261973 0.7960981280281193
Ni 4.073602674327337 4.841309853925585 8.93415533591147 0.23331681325341755 -1.5885193214252835 -0.779300082634174
Ni 6.2911263595750615 1.992656503397816 1.7187726707029702 0.4055915236928499 -0.0011958200803140696 0.5908729308045954
Ni 0.1898635286361305 -0.22603821249154532 10.343980092228609 1.3735172473206538 2.1185712642877643 -0.17283161138416686
Ni 2.7462545491511654 0.8039276426030622 10.210001918013305 1.2968099271655857 -0.6712453585160761 -1.3740301824013306
Ni 5.457176750795866 4.439057623982837 2.441782004410621 1.1490324305365696 -0.7145658756805823 -0.7573372052098376
Ni 6.956736880182742 4.818942161529033 11.655900644057178 0.5718434249769699 1.3113132629880837 -0.4526640517006204
Ni 3.7524710971203463 1.8905323769176094 12.367934884487815 -0.20576024379138755 1.4206041735061274 -0.9008150460222356
Ni 4.949238776549637 6.228582885665586 10.770905452531663 0.32357821794383623 0.5008658082168278 -0.10133077513070292
Ni 3.8216800151823764 9.353687363586518 4.0336924118809305 1.2736761693615999 -1.266675826784367 0.165723796694792
Ni 1.790633117098214 5.732245347877168 2.8580948422999035 -0.44756298302862924 -1.1201975085827482 1.2074504654641462
Ni 4.128913042631706 0.8017860939941577 1.8520806381710677 0.16848901814475498 0.05086516228098337 -1.555876595689598
Ni 7.688846193208008 1.1155829358843745 9.124776967261655 0.3628014251105171 0.2697519161519999 -0.7825293882047492
Ni 8.523693073315432 4.703331497635759 2.5135151847705344 0.121411605040978 0.49202352733484944 1.0190793636834836
Ni 0.26550350160578984 6.104310806705944 4.719381667415193 -0.4007028281419809 0.8747659143436677 -0.8116134500548992
Ni 6.0975538042545905 2.4054837168518275 12.70085642383113 0.5671982128954748 -0.5367908042482111 -0.12469644643983686
Ni 2.124408895369322 1.463934795324255 3.1063927083954184 -1.520936332168987 -0.3288368952396143 -0.16673938244349995
Ni 0.5805006727932592 6.042508955016738 12.028781887328252 -0.8176712262132048 0.7751456941461683 -0.2359660779508065
Ni 0.30139710148389226 1.5513088798679715 5.1517355192540295 0.43449509410107756 -0.17871121009339547 0.570201775608489
Ni 2.567679243173942 7.793332523797224 2.301385593449518 0.8583162534280766 1.1269818784944334 -0.391721450578977
Ni 7.850025422413456 7.370809286500418 10.870659134655968 0.15058077040576645 -1.944361027388516 -0.11084308549651233
Ni 0.45900555703618556 7.0848727193516945 1.4314663914042165 -1.598781879693556 -0.1302754831895111 0.3016150834091838
Ni 5.030121377708517 6.218630498586154 5.711017556300661 0.3724584885843069 -0.3950571998204293 -0.22157818466025067
P 6.547965699365519 4.795796223592689 9.192021044231462 -0.3448705516637093 -0.462296689694378 0.6123182451625648
Ni 2.909841761615022 4.325571112621697 12.409664410331354 -0.44631239845097975 -0.5216765743145919 0.9535162330706933
P 2.5237221039206275 3.4318980255360287 2.3915302321148872 0.21145215196984227 1.3720283214799531 -0.24159807942560327
Ni 6.263585623296375 8.869838377754261 7.055340590074135 -0.04556097645925056 0.38787045226400296 0.5196759989447953
P 9.48040404912409 6.048139790392866 7.513088136084824 -0.2546932220466646 -0.2883880431959485 -0.1212164583110364
P 9.099640551909427 1.2078920127333475 7.415854138343462 -0.563513564955036 -0.10376355294191163 -0.08253626813201914
P 3.95280981072205 4.100703930771789 6.708764046047963 -0.3713819676906765 0.01173682882095398 0.2386245986195761
Ni 2.488005211559206 5.572457804813463 10.453140473971507 0.2584058950115614 -0.7052060317322371 1.1741850185427973
