# total energy = -340887.5271573408 ev
CRYSTAL
PRIMVEC
9.10430985357553 0.00000000000000 0.00000000000000

0.00000000000000 9.10430985357553 0.00000000000000

0.00000000000000 0.00000000000000 13.32507774844975

PRIMCOORD
 96 1
Ni 6.491372827546624 2.1115170308958637 11.60030629841386 -0.06532787467353265 -1.1170286239364633 -0.2249967234234964
Ni 4.679205500114622 0.357005476033689 6.323708770246743 -0.105725818874605 -0.7376510396348199 -0.5755815518631635
Ni 3.214249232323777 1.3963735026998085 4.799226704670392 -0.8980999610839179 0.6910186844882615 -0.656384896464476
Ni 3.4447521457148365 4.745712482590397 5.108114993423763 -0.01666383380892614 -0.5523848020317261 0.09268569786119521
Ni 5.1920785793491016 4.425195259036711 2.8436519323149905 -0.024805489079454054 1.5750801652012423 -0.4800640409801281
Ni 6.973254836507655 6.092239889594809 2.784647811476215 -0.5161337901194918 -0.6125100494583967 -2.427859805081806
Ni 5.122257628136682 5.004775615560718 11.295868196249698 -0.2772333121307096 -0.3412203565056317 0.061436510038926445
Ni 5.495188362725693 8.033333346915855 12.216044420975178 -0.23774528133841633 -0.5014129389695493 1.0849258298646478
Ni 1.7582607096032457 6.315996509486273 0.6389058594957607 0.9775197950741423 0.44010498408868726 -1.0796854074013147
Ni 2.874585645437228 1.4660123677179069 0.5494460017948408 -1.2728459601508209 0.3112371798799801 -0.3871178903686946
Ni 0.6605103864519573 8.608935120093948 4.6114230038476265 0.2236126985917762 1.6227401902813667 0.9479240836948963
Ni 8.872204444153086 2.555051687332875 1.7080750231554402 1.3108916020696328 -0.9181995600472702 -2.074888221577517
Ni 6.988905144909553 0.754421341173056 5.0803459383588265 -0.2888811807822831 -0.9990296441214601 -1.656238579149128
Ni 0.9187158934470264 7.316077618865675 2.7085084693208543 -0.500182666106874 -0.8749649177283512 -0.54765397221496
Ni 7.613369748333708 3.948639271259571 3.7030523375309525 0.07719711530729285 -0.33208985495927323 0.3051048417299971
Ni 7.654603167037718 4.093825698301487 12.658237102160044 0.4798632378232316 -0.265983193138187 0.0543880878325773
Ni 8.087440259558365 8.579601034188821 6.981261166471953 -0.318037233520949 0.3575831141343712 0.23678291742514704
Ni 6.596746108200236 0.6397680376258711 0.11906616246655645 0.8014164549172391 -0.4679698288197553 1.1976666466045052
Ni 1.5329472527503372 6.5640434277001685 9.375204809931477 1.2875727248380342 -0.8601291382670995 -0.8971913332267194
Ni 0.08686968158670248 4.79889075564187 1.5764103169038082 -0.0942422437150377 0.8487445505792414 -0.003667678659574329
Ni 6.377741937980552 1.9201626492838373 6.964791470195611 0.4399741149377777 0.8632910809348486 0.6460444337704164
Ni 3.6777223270389463 4.602865863145507 0.7518138668703782 -0.7390139814206176 -0.10881294244036098 -0.4051595783617538
Ni 6.060019737509694 5.6678333878712275 5.204535095902606 -0.9939781977404817 -0.3883898151025827 -2.075640269252193
Ni 5.144271849030101 3.135278449846723 9.064011309958001 0.8888061944868176 -0.8462883757292651 1.0774372347970864
P 0.3435201724822695 5.446298219550482 12.432110630449491 -0.420673871947269 0.24270159690242715 0.8735883490957987
P 3.9796849673913153 6.4088422599705925 12.720811933269456 -0.4578893046553018 -0.7416539901466259 0.38512554252901415
P 2.1377283385683836 8.46252871555008 1.2389472416756293 1.1569010346513688 0.10523705216364455 1.407622416534479
P 6.502243373347593 7.657716840960608 5.81469045574604 -1.1832954654844976 1.2249103128118066 0.7962850472279448
P 4.544052022379797 1.1108805586237818 12.618755352645403 1.1084699357331746 0.20542034395346556 -1.0328733321437824
P 4.0396550554909645 6.414996773338646 8.500520089564203 -0.25468190919275496 -1.208833461854602 -0.1869037732065168
P 5.092368179338877 1.3142071075124198 3.85733032825532 1.1154551088017564 -1.7557430997043695 -0.23983096022285147
P 0.21929550813059684 5.370996473888998 3.7661861732569304 0.1988087521742189 0.2973172273647783 -0.4165894174652502
Ni 1.5962768311352098 0.944198856342262 2.7745611467417985 -0.16266264127096502 -0.10992648721951391 -0.7230978244109935
Ni 1.6929737046294213 6.4908174646539445 4.915261132001503 1.397286838936426 -0.14841513021301536 -0.38933803794846494
Ni 6.332666500576368 5.593696993853398 9.269084065450178 -0.8913071065318005 1.2229902129709582 0.6091668440177768
Ni 8.790620724787525 2.0877547825369622 10.023349722927088 0.06314989318560736 2.4292767400339903 0.09497038013031386
Ni 2.478293252116822 5.323681376294664 7.255918161123932 -0.6405831535455291 -0.09297289008431085 -0.1708480052952348
Ni 0.501524557173418 9.14919396295432 9.193157764142173 -0.9560479983536114 -0.008126742872192455 -1.7563830472812136
Ni 1.6300993417303513 1.4510084653058495 11.513440258551045 -0.32040727641502237 -1.014593302887672 -0.165515794449044
Ni 4.302259764940831 7.150379182033489 1.4625873264027274 -0.6958492731076854 -0.3716403635583858 -0.18949287408993173
Ni 5.586513693487433 7.863319467278259 7.9689695189472385 0.8875440399449424 0.19997551878881042 0.7550913465984544
Ni 5.265368272563338 3.2123100143542573 4.802291215320816 0.48647482960247834 -0.6537811402930417 1.379485806199263
Ni 0.9010535325978813 7.27760280600563 7.020450667644709 -0.04071341855896214 0.5606593833356925 0.3706085798597617
Ni 4.922381612630428 4.756856157682847 7.287671262120615 0.2579089007704849 0.21669617397760102 -0.26838151816703454
Ni 8.304887592816604 7.126962897443797 9.16103047601616 -1.020909474913687 0.8628863892972622 0.1674906587872277
Ni 4.820904976535289 0.2933590676706975 10.332131491256783 -1.064589689410457 0.3993951650741508 0.12337258542209076
Ni 7.993875268606477 7.118395742000991 4.411333947494017 1.3522560239490324 0.6653081670960348 1.132597682019314
Ni 7.358895187460278 5.95003967613976 7.145372722120631 -0.17221814616988407 1.0143565042865175 -0.07473014182403905
Ni 2.4597750861543677 4.935446297072967 2.8609874484453295 -0.20065300447180928 0.8292018525606235 0.06739658427710328
Ni 2.5410310503701514 5.14918817627677 11.632286096722474 -1.5591190138862954 -0.5895372427123073 0.24538788548533869
Ni 0.9786950858563913 3.0964030473591717 3.7896252186209116 1.6347999496593781 1.1844709738498376 -0.44927816594752296
Ni 3.965964772649222 2.5753269850705274 2.525742183063982 -1.602756548070588 0.3354235473181965 0.04047764839907223
Ni 1.0977066224646514 2.907443099202468 8.065162924114151 -1.0232157544493603 0.9350336008854735 0.4073205905688146
Ni 3.5101301937858214 2.7532251969222257 7.285805789059795 0.4759248220007739 -0.8017303866132321 -0.5181366794821334
Ni 4.037615690114568 7.021061566826655 6.06881359026443 0.41815779039363465 -0.11368621137226227 -0.2834067879312732
Ni 0.6920741178065455 7.315549568902144 11.380561947814263 -0.2462466339412082 0.233287759787695 0.8358507253357088
P 0.16471699224479527 5.403817510415373 8.045162576529924 0.338573662911404 0.6805051865514473 3.402945536793159
P 8.503589152369486 1.4933344011757854 7.660013858301968 0.30815314163801766 0.3525028713979865 0.17192504040949744
P 1.534567819879795 3.4496866815809377 10.321219065631121 -0.01480338356141967 -1.0778730367829243 1.0216556090510922
P 4.269666336157357 6.276620369964339 3.693884297646886 -0.3916908544513577 -0.41950659111204525 0.2358326376967358
P 6.773852245106637 3.7761034978306283 10.458746947339892 0.7838362799416307 1.267347913150727 -0.6180016687005873
P 6.552608414696804 8.071780846846751 10.29877876304299 0.8138788490503079 -1.5270509297071573 -0.02880586848809878
P 2.5180335640273985 8.555247005698376 6.026719814292254 0.0664730440215694 -0.7251781039787898 -1.5135752638182254
P 6.905054452424693 4.090375164919102 1.494900342446947 0.6835902532346743 -0.004881239351701271 0.3073391303771546
Ni 5.321924244519466 2.9357392937999642 0.39843554782756513 -0.17355074893837852 -0.11797558277623552 -0.5559388379315716
Ni 1.4259898222061327 1.1901244703923173 6.297458314042443 -1.5942878484779446 -0.5157344977985441 1.8130486182940582
Ni 7.0363021812913304 0.7402477518071029 9.167253271707084 -0.9316821679147373 0.07076267253585879 -0.46370411156486596
Ni 2.6252914367922324 1.5731609887661484 9.343570975392076 1.3190610252543025 0.06073074222115347 -0.17710375639695952
Ni 6.753576947368984 1.982809404440006 2.15177355716734 -2.038175953758148 -0.4059699900781912 1.4797889113964
Ni 3.698562091978995 6.97195292021826 10.639008637993879 -0.006202529266286092 0.9310028824595257 -1.309654901449054
Ni 8.398834964776565 6.947362179675197 0.7527106413774094 -0.5688941125406589 0.3265812664362182 -0.5775561590910312
Ni 7.497763223559253 3.7514854443584174 8.29344802765838 1.6462475293746874 -0.8648239726396074 0.6313503220933514
Ni 3.048541691181875 8.577243017972362 12.444076424709301 -0.28604242578190736 -0.6457256169784169 -0.022143883086890897
Ni -0.3479339418326126 4.960628817747572 10.257124725230097 0.2896198587205206 -1.0303443950743416 0.11561376741227833
Ni 8.709501325217483 2.6044243589230365 5.47135692161295 -1.672996001113125 -0.5553487697560565 2.579768036049744
Ni 3.7406148985574488 2.9517173573516393 11.559425216495862 -0.027979515932061487 -0.6446812348743026 0.051970222419704046
Ni 1.1553004857284102 3.255027435541984 12.839697830403633 -0.7295700623988984 1.1508558568985536 0.3740073211286655
Ni 2.8978744696908945 8.383166447755237 8.229021379952723 1.2135311244405873 -0.07716214830429936 -0.2976614980780744
Ni 5.618688324023967 8.064096809446403 3.4944616767644927 0.5798619244060723 0.38309437103159827 1.2296172313691727
Ni 3.139657622820145 8.217741140214532 3.400639944278611 -0.3883458492385247 -0.08854030823425396 0.6856520208597094
Ni 3.1654410279360103 4.302951692479251 9.289830966431122 0.1838978965006575 0.8673963613524739 0.38755549212674545
Ni 7.3273487542941504 6.465671361218202 11.704615285261665 0.394730669718946 0.10339048587320902 -0.5567430790004219
Ni 0.567251300306528 -0.15031488470496918 -0.09895292144184957 -0.13199272299093395 -0.14494722626907294 0.4641129169675104
Ni 4.6505451331284835 0.4562979882279474 1.7659593138991412 0.7767863150733848 -0.4780956043998476 -0.3414697535122765
Ni 5.84417476276148 5.56559198975994 0.2518425049345189 1.1505727784404958 0.9762908077630477 0.4588974342048419
Ni 8.29349810136182 9.258445679546968 11.265260417415295 -0.8652320067113035 -0.7769110135767071 0.43610306201814575
Ni 0.26888122056811425 4.944277477497539 6.133479681315619 -0.21177919629195785 -1.510046938949993 -2.9096125466182667
Ni 8.171427516688965 8.94909944401488 2.4830083741187665 -0.2519053748888823 -1.2277547242391371 -0.7081897969509094
P 8.463375416353674 1.573270240482741 3.553464887172296 0.5368828497413851 0.3205263184913899 1.4178808610376936
P 2.015284477197171 3.2183643803154336 1.5576344989763897 -0.392221273033531 -0.021126497565970067 0.812287336193472
P 4.865989518249189 1.059168079436594 8.335102065471272 -0.9122682821644998 0.5068371953089142 -0.062296029825744316
P 8.493301282390345 1.6563834838805997 12.891626081731092 0.25477292624466447 0.9688896302029699 -0.4439338709164741
P 6.422972148649909 7.840768092111593 1.3795851555834047 0.23275374166109591 -0.014123840995891803 -0.37905053997952787
P 1.8205706052999207 3.2571669483252563 6.067627298708428 0.7775170225918222 1.3625687187289501 -2.183690622494917
P 6.835807072724386 3.9508243055914236 6.289462909249804 -0.20007399203988768 0.08926304533289142 -1.8377157820234349
P 2.1329940975160353 8.659755376928961 10.27027681104591 1.661698573822435 0.11561402452259444 1.8701990993631212
