# total energy = -340875.0944676208 ev
CRYSTAL
PRIMVEC
9.21297069435823 0.00000000000000 0.00000000000000
0.00000000000000 9.21297069435823 0.00000000000000
0.00000000000000 0.00000000000000 13.48411387254037
PRIMCOORD
 96 1
Ni 8.960240229871742 7.919202209646094 5.595462584312591 -1.921514976028278 -0.31306472000702207 -1.5070210076394754
Ni 5.072339067457838 7.891848900425053 9.522400023755957 0.609887267123569 -0.44422466268401556 -0.04785285781722081
Ni 7.170381185672711 1.363547263267666 4.993652929567954 -0.15508405759275873 -0.5205959396559033 -1.3298138928954324
Ni 7.7506324895998215 3.1066504825098815 3.1220978700379782 -0.9699656368759682 -0.8592878733127267 -1.553287751916499
Ni 7.072603930447751 6.570755004921132 0.6807629687771309 -0.5597695245315715 -0.381496173306543 0.973174373621253
Ni 8.540147203983894 5.049113168991606 12.758708324383518 0.8153569762577312 -0.4075363061240465 0.025805905319510394
Ni 0.7875919674543215 3.7233114455954808 3.1806730147656492 0.7476336047688286 -0.372974508988777 -0.5083328060178343
Ni 5.421575137731329 4.050768053761009 6.801130858426573 -0.16065692369484588 1.1298741124405638 -0.13288823822200985
Ni 4.838808692875507 1.996819212047282 13.429880590937982 -1.0747817994521103 0.30158885815693864 -0.5800030779696269
Ni 5.808086886384183 8.842231291571872 12.904013451487732 -0.15341129787602611 -0.6744841771683481 -0.9306534695399069
Ni 1.3287222350239696 0.3887643199241727 5.5780003201503945 -0.26298040175612125 0.11324398162852109 0.25386069884304024
Ni 7.187425180977166 4.976680795432892 8.110734337204162 0.6154321082011982 1.0718252879269476 -0.8754356867171826
Ni 7.915093224832155 7.300127448306567 12.026871411406763 -0.6712813539603343 -0.7541001863297787 -1.7136572262779133
Ni 3.444444043503301 3.5977478715390427 5.518360156040457 -1.5513473403606766 0.8076848044244542 0.9034234301793602
Ni 5.3594612910596355 6.73492092509955 7.37999008252098 -1.109143821871748 -0.01080737502814913 -0.19294458008395804
Ni 2.3030767752422427 8.070672656565304 8.934250440275058 1.112383154744652 0.8710930934777708 0.29144791306819484
Ni 5.352625266996984 0.35554142723909515 3.675526531841095 0.5138943592660118 -0.4316082594715857 0.1490944156682271
Ni 6.930355666933817 0.4971503106048512 8.360083382023115 -1.4304972642501235 1.0965343606378535 -1.5758065018443055
Ni 0.8225745374924535 6.275986015858417 8.856837534899269 -1.2963684687527932 -0.28767713317185295 -0.10710315883810587
Ni 0.35611263140605526 1.265650239427053 3.5317185124325428 0.9703325332970838 -0.3057141931792219 -0.6947164450548229
Ni 2.701233718524735 3.3552901286053514 0.0423041176426996 -0.5478828003963144 1.055115945592067 0.7693082615287847
Ni 0.44674062157357913 0.5998620327947115 8.578404063714569 -0.16653549396280995 0.6139676078405297 -0.17071199393800277
Ni 2.640501817418268 7.652265604267032 1.7551325947389866 -1.5475187106432058 -2.2444969551490117 -0.42252738021624003
Ni 0.14179498536853977 4.011133854950327 8.011990641380589 0.10611816921701725 -0.9675032913784046 -0.5736624804635798
P 1.1188968333704823 8.160370136718909 3.767717963091411 0.5091254771224587 0.12133370061519105 -0.40686267709578955
P 1.6247718269771274 4.727949019633074 12.166716010934248 -1.8080727623460215 -0.8468573608588578 -0.5836424744944271
P 1.4727117499500884 2.590106869139692 6.446121019581568 0.6890880431244519 1.1277601514213544 -0.9306329007146167
P 5.796966831069332 1.6024764385248138 1.8357672758758392 -0.6641529704456691 0.25142766392151533 2.019520029219857
P 8.70130048283012 5.249292590599815 1.754202084725068 0.16623416067230726 -2.378352185269981 -1.0006131865584962
P 1.1652657135690334 2.066220518332934 1.6144661982487147 0.22094235084846464 -0.645663910502546 -0.10604360722533995
P 7.797904240900986 8.529847103037742 0.17793378319624428 1.3938616153049608 1.9952722124160862 1.8488406882920028
P 7.969578731983801 2.4553211116779785 11.583474176803989 0.38665483468934697 0.5133757677583805 -0.5337769571225517
Ni 8.181735015157303 4.6488372425091 10.21045413733522 0.6337008246033989 0.5331393235385528 0.8779787648540106
Ni 8.985603537478857 5.334844234057742 4.645344605417253 -0.8636677475479771 1.0670654046444592 -0.5600572309753195
Ni 8.88328428782952 2.875266730038868 0.21622473091752742 1.2795557680708285 0.993228978279283 0.5170994964668707
Ni 3.140729260148356 4.277112311404165 7.857476229029707 -0.5215019964099405 -0.24235321242407296 1.1610119714959488
Ni 4.821792336482357 7.284060027868205 3.3165661712736303 0.31820718343991006 -0.7368763662523246 0.014133868298220819
Ni 6.469071450231799 4.205518318155021 12.024579224362576 0.1059307357965595 -0.45206935553941496 -2.4996126094450752
Ni 4.8803776154775065 5.01253767636529 4.499297834193034 -0.004913378141217345 1.0361340051729253 -0.7714656741914198
Ni 4.453190602354832 8.804476538729896 1.333121428406606 0.8453391244421182 2.376631088813817 0.3988485485420615
Ni 3.7601909662461463 4.846547588040773 11.194484139104162 -0.04847377923067136 1.27464778924625 -0.7584978011768421
Ni 3.593823146133801 8.148872349616227 5.549872200115785 1.1665239024531135 0.319204771466489 0.643548149711124
Ni 4.583756819357389 4.108395183830935 1.8642464100840177 -1.0806665403676614 1.50810189940848 0.0988774284942039
Ni 5.0526325236977145 2.6521654379887756 3.805823730106954 1.2254114208179412 0.49023558219649116 0.2003349590107582
Ni 7.63418054330344 9.742163456617504 2.452922054176746 -0.6180844582223808 -0.9111591082607212 0.03078741769450181
Ni 7.114587436719319 1.5728843774881067 0.17521227172979245 0.6927492940261232 -1.232653189982019 -0.9817166067643094
Ni 2.4083349624602928 1.00826748438892 13.428330048013796 0.08729743696608835 -1.0718684824600573 -0.33493195239375867
Ni 0.8474477150724353 6.744115469593521 11.369939633253432 1.3058229292974737 0.0621571902550349 -0.5565433042847899
Ni 6.772924428143266 6.084402295665913 5.610254008345727 0.8506332829615222 0.5718449676388668 -0.156652173410827
Ni 8.088297069007153 7.768791254326892 8.548847011965513 -0.7098517580343646 -1.4344243672186716 -1.0322313276844095
Ni 5.094606816998847 4.822004234802359 9.221111015516506 0.2696912381173936 0.22805787884732334 0.29632580998578645
Ni 1.563173906649785 4.26271243861451 9.839479142023679 0.7270768636633995 -1.005029827568953 1.4207265580166049
Ni 6.816428074536582 5.429922088945294 2.9743126112927056 -0.3792983943242758 0.5178741698493662 0.13393801964276286
Ni 4.198415117949759 1.0417013540969555 9.371984461951536 -0.4739322170507773 0.253854271085137 -0.23349550492312693
Ni 3.0614885014382947 5.947875286792015 13.167048363887641 -0.24306952176480717 0.7921972503118163 1.4287486569901329
Ni 8.914074035022756 2.970685464832509 5.177913259561804 1.335324024080384 -0.012954760388455108 1.1204785301582767
P 8.960719304334352 6.274806755642757 6.910109243106212 -1.864192745268041 -1.196180806087598 1.1493209083112657
P 6.9401766934173565 4.038772766254847 4.850842674857495 -0.6478981991497035 -0.39499446490329393 0.9608222798138034
P 8.564229908700566 0.6460613943372616 6.619796567842829 -1.4700685987848425 0.2202388970235368 0.15938011386495132
P 4.7917488398943435 6.684830004845324 1.1803574804383454 0.2799067451978147 -0.155894469309196 0.2815440236909215
P 3.5232517926029243 5.677972104932934 6.299184275413344 0.8491700681524343 1.980640835656157 -0.6224805304075473
P 4.650762753329982 4.304309000127813 13.086480016137918 -0.39122651322042945 -0.6345341191379716 0.8481812218766036
P 5.722581307778431 2.5957175681345093 8.525492131913193 0.5210011455141221 0.6324723515129366 0.07976693291699812
P 4.447708884946103 9.004020265378102 7.599767334838181 0.9396813840701299 -2.133138363468662 -0.7079565978941808
Ni 4.965127730507602 1.6678332507895706 6.585600785479833 0.34161142129646327 -0.8901619371837638 -0.20322642162594032
Ni 6.5715565333489625 8.530915807608185 6.104810867773171 -0.8063892255414822 0.4531559037353744 0.8902663239721119
Ni 7.05880290073636 9.102322659917848 10.554784300852159 0.11961620370345204 -0.1376460646219694 0.7540919587996626
Ni 1.1581072355411626 2.4797170573894354 11.801349872023438 -1.9419447046375393 1.7172752826464748 -0.0607723940923663
Ni 9.124535131636248 0.4665181052060507 12.019590400872108 -0.640902998778793 -0.2993532839582006 0.9357820490157238
Ni 1.84351538401154 5.159595110446211 1.6294879465427219 0.16187665503455995 0.021204916212389287 0.7163052269691922
Ni 3.0144010095458262 9.159433863643423 3.3965541018859575 -0.4408498326745118 -0.4142965076660155 -0.0926101074282534
Ni 3.4865012535383464 7.478978843358121 11.281726362636883 -0.7368665960603116 1.067320972298691 -0.11411430004861636
Ni 7.978432396571682 2.4965767932851928 9.21807718435231 -0.5192160285892412 -0.07202302730552111 1.458940864302797
Ni 1.725672279179498 7.284096879749944 6.652521960124425 1.0313658943603203 0.5847925289384703 0.3570709503846431
Ni 0.6242174414362552 9.032552834814803 1.1899417335817097 -0.7236781223944957 0.6046974953925134 0.5974492984705323
Ni 0.5476558145286455 6.760357936470144 0.2819095249297647 -0.39871228007451337 -0.045693388272056795 0.6137058695387108
Ni 2.589194785066643 0.998243772555814 7.494456633688652 0.8873743471362976 -1.2056206113442591 -1.65619461328507
Ni 5.3070302763149595 6.400388755640065 12.472562675647815 1.1353603323661157 0.24880308181447472 -0.5081849675860602
Ni 5.804346420387638 2.0487066615363028 10.782247934403145 2.242577626639112 1.833290913482862 -0.5659648547090058
Ni 2.4081783419629006 6.157451938243762 4.2462820271410155 -0.004851414555030355 0.2164298076900918 -0.15925978623700315
Ni 2.087327433599153 0.6706489698337633 10.718940086763098 0.13874418278215458 -1.2014790783720597 -0.46903118020473417
Ni 3.1293236027500235 1.6032319021004706 4.8565058877837926 0.1987161924604126 -0.9122927076445321 -0.08810682024126117
Ni 7.333892984950256 2.607712855640672 6.906319948366362 0.156572212102511 0.4377688797563428 0.731187029177031
Ni 8.642171638579315 7.10033497145662 2.691374918862413 0.43936347793697234 2.335398821636907 0.8167564277084192
Ni 3.3732369950124204 2.0660638978355417 2.018881512347594 -0.5264305440598095 -0.8093987017917673 1.0405195358351307
Ni 3.336661502386104 2.684982038677677 11.311121266106284 1.186633014498163 -1.6752940531186824 -0.8929659822914621
Ni 1.3364979820709748 5.044727795064623 6.317940961921636 1.3244312884272802 -1.980215832303596 -0.7541621499159658
Ni 6.510446900454666 4.1077687018413656 0.7698569993672539 2.2946882312914223 -0.5562751382250678 1.2304505259037455
P 4.480811087718483 0.7395057895667161 11.597308373208943 -1.9677858340703596 -1.9067211055485547 0.13339885930984124
P 7.059235910346798 7.92461943626178 4.110106032440685 -1.1048392809591232 -0.14484463925293764 -0.9867541691882166
P 2.0920260485209217 2.2239649981182694 9.013267323803552 -0.5749642299941388 1.1448369043979831 2.8027533854701665
P 2.1220234802567615 8.036824203187699 13.094611383843707 0.27007099005431556 0.9818562176659672 -0.4435685171572555
P 2.8918040119694064 6.059969498072717 9.49322070379473 1.177316107972611 -0.19401415899905294 -0.12598148379984755
P 9.179619481866158 8.486850170018343 10.174370617330124 0.8439895523927594 -0.5620614058895417 1.1092602928449542
P 6.5621408775645556 6.166932084821212 10.581212627841541 -0.43187873952415295 -0.30782789708811503 -0.5610044253799371
P 3.002746601945753 4.022456595614745 3.3652438218631526 -0.05315472964610846 0.20113920007960842 0.13126638634787072
