# total energy = -340874.22492118255 ev
CRYSTAL
PRIMVEC
9.20038157863687 0.00000000000000 0.00000000000000

0.00000000000000 9.20038157863687 0.00000000000000

0.00000000000000 0.00000000000000 13.46568842915507

PRIMCOORD
 96 1
Ni 7.342594313222911 8.758625000499343 6.429906366945359 0.2138617898525994 0.4638583777545431 -2.463124541821371
Ni 8.312342104341083 6.560552701572051 9.92707986701606 -0.5042236689454671 -0.7930269453019633 -0.17662296010579906
Ni 5.909128903365823 -0.4100149930379714 8.131174635870117 0.1652031483046316 -0.23486024648113743 0.10116313920458705
Ni 0.8681608608561255 1.527907323994523 3.051702077543899 -1.5853707484939727 -0.2837680279254339 -0.9287243708379941
Ni 4.682432863048405 5.79036118104725 4.144119472693812 -1.0269235423182508 -0.2750776992402876 0.818229669819836
Ni 4.06471006157724 7.239706449043766 8.729442311025156 0.2318515415618007 0.2891565459308569 0.2501904490803046
Ni 4.519760921123028 4.117308641521099 13.012729511514104 0.23246860632050934 -0.717476621569474 0.2025237391319609
Ni 3.5772094571544195 1.489615336986242 11.62086178566964 -0.49168259905566297 0.4046451006191805 0.46452660746616126
Ni 1.8478873855420963 2.02632878103119 5.052124424885055 1.4144939468433317 -0.8180314377661009 -0.43416007935916195
Ni 0.29419875304334353 6.40920642903812 12.057298433750951 0.49431386603092287 2.0754358665508708 0.32193708279598754
Ni -0.05967735332304494 4.8156175828782635 1.7101696378412665 0.9653232530079503 -0.0736073410735055 0.7142437164544732
Ni 1.3154613191871674 3.9539742721414712 3.505980105059727 0.34505130021594765 -0.7677095495830972 0.26416979407853214
Ni 3.164314744766714 4.092688421138072 5.144929591187609 -0.08149060047632417 -0.553834132883743 -0.42252120956865297
Ni 0.5588744025040651 9.07205439055487 1.2007325642632696 -0.43739632690827257 0.4562011183196014 -0.32729294779126217
Ni 0.9503349865560682 5.191701569648446 5.706313857712785 -0.9280800523857758 0.0276972088049523 -0.18057885942975352
Ni 5.009267208671223 1.0560841693223297 6.596019251480321 -0.10979818917176574 0.12029523204834768 -2.1279480775169737
Ni 5.366030394692392 2.6955829182143636 10.839999662902601 1.500949604634415 0.20699463041912092 -0.043184762917590144
Ni 5.514220936437317 0.8120670560529569 2.7063335637739923 1.0719523004231153 0.35475438643632445 0.12819674628361147
Ni 2.6209402246540114 8.764310836148338 6.695072396729854 0.5134786118848318 0.38532403169306545 -0.3829005098532373
Ni 9.202405392941541 8.567919496725281 10.738455054394576 0.4755777230740003 0.44916709429095547 0.9309674012358998
Ni 2.2939586729302484 1.5819227626599763 0.3897428728616028 -0.3199784164077199 1.5202878999517109 1.1779331727313196
Ni 6.064882158546791 4.997536722502179 8.43514971409246 1.0435130712458158 -0.09823465270388243 2.9686077942055515
Ni 4.597540944709767 7.195783828674344 2.3888937275058484 1.6016054651852805 0.6780466977086258 -0.04926850721782483
Ni 7.9590750632173535 1.2279840937006863 9.868046540384649 0.20277339324892174 -0.11932309794306545 0.8154251104915052
P 6.55316479538088 3.2372553677848908 12.73244081497192 -0.017139487893764033 -0.793056255878002 -1.7598239546419627
P 3.3895860811188907 3.6819465979766854 11.337826775306702 -1.446181764864916 0.35527297794395585 -1.6767593248102997
P 2.2647014603674585 3.493495187623341 1.476822206776003 -0.6365493497957876 -0.4073036212879501 0.4674008436901628
P 4.321649110395178 1.9934650189952505 4.479671179606958 -0.3224158222046189 -0.13430620161545903 0.3989794176929709
P 7.364288812349659 7.562474226127982 12.501168069891849 1.2446597275245919 -0.12098068815114647 -0.3521226052404323
P 2.0231178479543304 7.410235516607073 10.68064721855353 -1.2337225117867978 -0.68059466094146 -0.13386988540898878
P 7.761892491001717 2.15658777960477 2.668602800025564 0.7015753769581853 -0.8692295579064707 0.1170003633471598
P 6.653752564232763 3.0170534415340033 5.926652869645177 -1.7427114633313925 0.2813807586401799 -0.2612035123613566
Ni 2.821710945580178 8.5318632023751 1.638249337110264 0.3509380980140278 -0.12863563359324298 -0.08550460673172372
Ni 7.965386524795363 5.257447494482942 13.271997176841365 -1.846367287050846 -0.8047928275886399 -0.4158833925371611
Ni 3.6022620954589724 6.033444455613754 11.425986669086317 0.0005507302971474386 -1.7304696698495616 -0.6575136107522805
Ni 6.88465453394608 3.6672443886448174 1.2605930051743648 -1.8045176980049116 1.2701900105852124 1.6959161002444083
Ni 7.912622337987942 4.292539103933333 6.9138501039541 1.199418082077973 1.1545549030166953 1.439474270937753
Ni 8.65727359999881 2.768652346570866 0.29343604143282304 1.730853792661858 -0.8739017665711594 -0.9843458168570403
Ni 2.0171836020099905 4.906287340678986 13.100337382415175 0.6872355632967454 -0.4587773636872099 1.04550516197518
Ni 1.7681844822617654 8.988588531319136 12.543032564962434 -0.29861177780648573 -1.658093630079996 -0.8930042917285652
Ni 2.7693423751690456 1.8779358308974652 7.293137663496094 1.1507712676045472 -1.541362975454455 -0.20571679214796185
Ni 3.8112119553688872 8.252456822400452 11.550988569779902 2.516043244197273 0.3042756609604824 -0.4091159919063405
Ni 6.574482078873958 8.33403660346783 10.357578589000509 -0.02995566582182583 -0.6829011975874496 0.3367039566925169
Ni 6.652243701698079 6.656935896165696 6.9945365279963685 -0.2869122299813704 -0.3941693978988373 -0.6972397256973089
Ni 6.9131389144789095 5.812092481699236 2.7712790554346016 -1.1289444015374428 0.22833170133400033 -2.195125603804736
Ni 4.952234044936399 4.683950925964398 6.572480995939238 0.5081785398281571 -0.4443804715355895 -1.17343502775065
Ni 1.5407326555393435 7.682732410218621 8.459535324752107 -0.23652297889554108 -0.6560002594315477 1.311512266372767
Ni 3.0055805660416137 6.269471037716214 6.591279215029897 0.2814344946962508 0.5589773676475792 -0.4092440328437726
Ni 2.5796397129576705 0.2063452319613221 9.898451960534809 -0.04978915560798522 0.44530915399744603 -1.0406951421810464
Ni 3.767399739575174 4.850615833377903 9.327668584464305 0.5447555676212426 0.3738479127326658 -0.5801128640746138
Ni 5.766154977823131 8.42969296793806 4.440983576202388 0.8088335733169166 -1.3989084337002489 1.8100280863001799
Ni 3.5891607524748803 6.5319579164635115 0.29160792566671406 0.5422091470503049 0.9090988832975826 -0.46303588185324773
Ni 6.304000068769093 3.5703275719352474 3.5507675612721994 -0.5299046186513391 -2.116711585371206 0.6865120548671596
Ni 2.627840510635802 2.7726913139655407 9.487762579546883 -0.15751426430080614 0.27790976937244394 -0.3726376944746486
Ni 4.951783226252256 2.0782005308516336 0.7707573439753066 -0.041691466201515294 -0.7559927753668012 -0.7953447948018626
Ni 7.0107457597866585 1.2386289348752613 4.823813282548369 0.12074414666030818 0.43969977823046863 -0.5774484298685733
P 6.778960553467673 8.182368317588082 2.6478660605930875 -0.1082239027061104 -0.42363603989938653 -2.4186812239063316
P 1.1186927641304392 0.7741486045258237 8.417536504114407 -0.6385144439419584 0.3265470707641731 0.014576869372910379
P 8.755331263990701 5.214950933216423 3.904322574330902 0.10449708867382648 0.2061338250807224 -0.12164223299454535
P 5.087875266575776 5.21673580719038 1.2697851061402403 0.20754073273057808 1.0455707251057926 2.2062908763929356
P 1.375355801509106 7.036212415250119 0.5747469003384443 -0.2727094561184271 -0.038134859198508515 0.706329603813719
P 4.827274465996834 0.38014687515625994 9.69312705086066 -0.9241159255317052 1.1948983398307487 1.6074457260161414
P 3.9268607484236906 0.19855618914507736 -0.14032053557316113 -0.5234259529055308 0.8376692666016864 1.4095402023824821
P 2.3540923651662227 6.292573195183247 4.411318786747607 1.281122341227 -0.536006874894335 0.49195487888044315
Ni 8.70128822418132 2.9418679254764175 5.002032028809783 0.263993673511984 0.6062604690042591 -1.0352423465965912
Ni 7.409407482289258 1.7614866046687743 7.697458540541892 -0.08150397021276286 -0.2340817164439001 -1.7458777768745155
Ni 1.0053440664028994 7.18493657911097 2.9908912372435785 -0.29729794409106863 0.7247610710460293 -0.45172842726022844
Ni 3.5894551646767696 8.771956353016162 4.429739790204594 -1.8428700725308649 0.31028252927619465 -0.4328634720349255
Ni 1.5770097590409418 5.059850905108399 10.486795184371772 -0.25916719865761817 -0.444385356631596 0.4337533308390466
Ni 0.38928745398680464 7.649049814246176 6.358564770198696 0.2237628510163953 -0.8686752280648974 -0.9359036621952528
Ni 6.8047676230395675 5.257070278849271 4.903274215800271 0.7854879566124409 0.3111965564500318 3.3825718582328133
Ni -0.1404898225892477 3.3123948819359312 9.15288434054556 0.5120585916088535 0.47828355204093753 0.4566369203054394
Ni 2.652571135594538 5.542392504005639 2.3455746521503005 0.22809824516695554 1.0054193496978878 -0.7220259315030534
Ni 0.31428778563166193 0.7771893305484658 6.361689219691251 -0.5329408343745016 0.4522148799783438 0.23133577826764676
Ni 4.059171432029189 3.725317195467564 2.794951636542796 0.5268817726646151 -0.4750442191680335 -0.44084957556419563
Ni 8.099748893432782 7.460460398173196 4.174214839993857 0.4631878340500797 0.08843155057053158 1.0083352377931023
Ni 8.306150247720089 7.024564732512857 1.2618801385195013 0.03295331499756906 2.0005684278180187 -0.5920263276827482
Ni 0.9354763707419468 3.0466326674426103 6.9634576399343855 -1.4026668723014166 0.9783163228335087 0.6639498532959275
Ni 8.368795644053435 8.453954373450035 8.388760471494082 0.5663039832159794 0.7465743102663788 0.7591670593297247
Ni 6.960208065256028 0.5742040778412101 12.227073990085048 0.3623609951389888 0.7121444107232832 -1.4003711342887042
Ni 3.282972062509578 1.3778307040812414 2.708542575326296 -1.193931347931789 0.8478068692563205 -0.4196212623130386
Ni 7.510124056479468 4.558963745880906 11.032546162976603 -0.6189244376251727 -0.7136400214322032 -0.6832493249554878
Ni 5.60528631063433 8.24578654595139 0.23449287853824052 0.6316210592562347 -0.09554913545191931 1.2923984283614516
Ni 4.8364380457806515 2.7207919630011697 8.251612227396283 0.6874569352789321 0.16150230241427668 0.8993816560098188
Ni 7.465005386539868 0.6445695141309825 0.9364203298642556 -0.02884520636646645 0.15237540041234401 2.3220560817814135
Ni 1.2788438015771344 5.212862446659268 8.220479057084576 0.2928525067252053 -0.35518093245078186 -0.4585490497264877
Ni 5.697280923343556 6.152386985177199 12.470896975308799 0.8585152568127602 -0.030374241416483174 -0.34454196467969694
Ni 1.1220785044521708 1.860206696114919 11.0117818224002 -0.9587710537117293 0.5461763592281691 0.1901562187055435
P 8.684451526385752 6.30470849812989 7.860810390646007 -0.4684871347758061 0.0032889551639169166 -1.0095760521787387
P 2.985891750040239 4.047348942047056 7.384219598379462 0.15609398691451182 -0.04038380313368529 0.07872692168825797
P 4.687557475437546 7.9304526769648875 6.383719532735779 -0.083089826642644 -0.22631955599997797 0.4677985933492137
P 0.638889198710773 8.984393157442208 4.410161378778928 0.09100805304845618 -0.049233540214831346 -0.16268552408910045
P 9.567752534724058 4.183634190378066 12.107511354821373 -2.108431604750601 -1.282695599251391 -1.0122785387115665
P 6.907673887981332 3.098688424889235 9.299121641338575 -0.3226222817884702 0.5985379035490207 0.17166587321083981
P 5.606887176982105 6.331490808120544 10.214087602028247 -0.22635118056886178 -0.47794262376175106 -0.14877765575875668
P 9.164251411652895 0.984321195111712 12.537269446110443 -0.9491289026362751 -0.6888712991279555 0.9507831504102463
