# total energy = -340887.64195074054 ev
CRYSTAL
PRIMVEC
9.10199620418519 0.00000000000000 0.00000000000000

0.00000000000000 9.10199620418519 0.00000000000000

0.00000000000000 0.00000000000000 13.32169148870646

PRIMCOORD
 96 1
Ni 6.820680939432479 1.9420201032602342 11.102883416680944 -1.7674673301198336 -1.7163095762990959 -0.6792785132331978
Ni 4.846157607908813 0.4382847799713574 5.502844785578585 -0.36802179296919196 -0.7741447636854797 0.969915243254007
Ni 2.7649406774761727 1.667503899276729 4.609385561573808 1.1231185388842853 1.1864183273841955 0.6482743515421997
Ni 3.8621043957910177 4.540694617004089 4.910388574363414 0.5603968737029252 0.8855200675363781 -0.8206318515034254
Ni 3.804752718029079 3.3942799975037428 2.707420612785398 0.37647223772939037 -1.08621806631351 -0.6387191037535968
Ni 5.304242870312057 5.100858766266585 2.266885819364945 0.036857020927349424 0.2312789568877823 -0.013520917304570263
Ni 5.475305786017163 3.289843693640787 0.6626772013382591 0.1495477011555618 -1.193085454991726 -0.5896832813718683
Ni 5.803332625385914 8.425007883409156 12.455728578339274 -0.18364207173610952 -0.5045149749336407 -1.333504454373142
Ni 1.881883214675386 7.143019031205418 13.197799761523918 1.276331861816892 -0.27476171066176547 1.2769080460353364
Ni 0.6625661569851888 0.46573913096855396 0.37740789909924605 -0.9586103597641491 -0.26451175079898315 0.41930450240356815
Ni 8.194281382919174 8.813954383031941 6.939042387210367 -0.23508881755217578 1.1374611807592023 -0.4200904886399733
Ni 8.969980801091797 2.78780489181326 1.3436521455434955 -0.6433193215297695 0.5340700628829383 -0.38866080937578223
Ni 7.179827503649361 0.7916397440358949 4.648471353455306 0.09119651491017841 0.04347864000892512 0.6640334141486692
Ni 0.7807528464369335 7.751460168065012 2.211933427789016 0.9462202136299124 -0.0735849724760023 0.4288558935374292
Ni 8.347167612306142 4.041768697860991 3.796308796197663 -0.4898362898755434 0.016929171655170848 -1.3195423357660951
Ni 7.409871354427845 3.512879007381232 12.510693712709818 1.087569695245398 2.168202811271963 1.7413364373607363
Ni 8.44281138788501 7.238316930930461 9.304349001180553 -0.7536810965144891 0.14047736342317743 0.14942403109350394
Ni 7.11022453906508 1.088935513792262 0.5264002945318321 0.7532427234254899 1.2276038004835697 -1.1796118459853233
Ni 2.430032729015527 6.629502612228581 9.168374280646415 -1.6670768074152127 0.38581228418339364 -1.34150598452138
Ni 0.14327816224754478 5.487802826735643 1.323229086574723 0.1956254693502308 -1.9691559749450087 -1.126239343901454
Ni 6.928175514002943 1.8563430134692285 7.017574410021032 -0.7023767898135581 0.6477012526475491 -0.23880637561307907
Ni 3.6530133401574267 4.64644160831312 0.24818048831354927 -0.04695117193855785 1.0083306098074118 -0.6112530371228441
Ni 6.399458761450096 5.8392764081952935 4.3817974293574835 -0.3131374822264865 -0.058283566232241554 1.9733430164431631
Ni 5.650364478033567 3.10468178589422 8.945049523428295 0.25217354094860445 0.11745262039322998 0.3489372655339152
P 0.3957748171369886 5.774087911745364 12.393582879203391 -0.7512681161976222 -0.055011580349189126 -0.8492369168346278
P 4.087906716362065 6.668058667933957 12.40695735235105 -0.05164960585549169 -0.5292073354739982 -0.06748914399090956
P 2.462499549294345 8.85616033919479 1.1753871834559138 1.2684691712393639 0.8314171150443875 0.12001858134819332
P 6.753844981678801 7.855887369931814 5.662238032015546 -1.2810295244028775 0.4362722406061583 -0.6415311192810951
P 4.994465533230671 1.6121273546800563 12.427286660759444 1.0799965108838303 -1.1361997975482754 1.65629025832267
P 4.3437183182505406 6.426045692213882 7.868736657901427 0.5116377020213511 0.3707867573088388 2.1393884581434315
P 4.696174915294748 1.439198529763524 3.44991867958963 0.23154815138876897 -0.3576149958135712 -0.01991910752143021
P 0.5110224720308331 5.842416596868182 3.417866000135787 -0.7511099933532033 0.4140458251077902 0.25054346154434914
Ni 0.8235704567412839 0.2720823302121131 4.6018054191773405 -0.8645313810998531 -1.1575553804059162 -0.7287686495435255
Ni 2.0113409059637615 6.5657977411516395 4.68782292362448 2.1358655325918376 0.489353436701854 0.3171057228456151
Ni 6.414923052914551 5.685052185373791 9.044136584151955 -0.8782996385285389 0.22976689111863008 0.36164211469509333
Ni 8.900159388599839 2.6744759377085314 10.191227481966495 1.759010971822364 -1.2737571591111805 0.36201749575664105
Ni 2.8098863344811646 5.380444782107478 6.8334683338282485 -1.6512280133084145 0.4124730813040315 0.5463234263289946
Ni 0.8875110695185958 8.90416426690729 8.821610982196097 -0.6370008355109094 1.0038337503783228 1.9188173745914563
Ni 1.5085921484362774 1.0358708762185276 11.459558788942205 -0.17657205226320558 1.0887925119089055 -0.926168694295676
Ni 4.072342302939923 7.246799991345336 1.2428202321572466 1.2422513751934154 0.569820223899354 -0.3989768465898097
Ni 5.884240269192592 8.344000117644795 8.099961037580995 -1.2096379600337683 -1.464403430079265 -1.324388865225119
Ni 5.349033793382443 2.7282960409629897 5.1889715502282145 0.6119451780938623 0.40725554165883415 -0.3137031249219694
Ni 1.064442042143734 7.693471350572343 7.067370520776118 1.4936402154571953 -2.601767937359603 -1.9885503203112207
Ni 5.393624472537455 4.8129444239454235 6.837051789713803 1.0688458935836496 -0.5750043392034548 -0.06325607974616848
Ni 1.0302640465880952 7.513406560671624 11.134282572810982 -0.45058608612566914 0.3657545942015701 -1.2591206401449284
Ni 4.7737694325016236 0.5067663786295503 10.170298352011597 0.5725054840410011 0.7506999023989781 -0.07175331858390224
Ni 8.745243414070686 7.148835206747376 4.95861368058244 -0.8802125392805357 0.9415143235138107 -0.8376260720685768
Ni 7.66499120460867 6.4142404032030536 7.106296117525317 -0.3352780228792677 -1.0166177895168687 -0.5253267694726694
Ni 2.3750566722495994 6.010139079985026 2.162922819301961 0.8574580191928394 -1.7086032087937733 0.7420381129589221
Ni 2.610916698570043 5.303059610812128 11.203596093917586 -0.11744542130437838 1.4016728838192636 1.9907750958766812
Ni 1.8830118621983953 4.064769442140379 3.78602445074405 -1.581512551090147 -0.07025050878613062 0.1864628290143563
Ni 1.762619759078706 1.8316675018976343 2.4392020799403604 0.0011914492049398837 -0.7768858167657267 -0.04657656220795849
Ni 1.4399357914519413 3.464210633949541 8.068868618721325 -1.0858650538494654 1.710473686343609 0.34108485936903193
Ni 3.5904553205958014 3.0853855540492257 6.988426177539707 1.0949402766778562 -1.1895339901950417 0.5291353445854823
Ni 4.471583160212089 7.053682938960786 5.765827850236245 0.38445268483170564 0.4074931115909369 -0.4581312454627787
Ni 8.357052380128625 7.49568497416115 0.30419690323979887 0.16388674348605323 -0.2792855666740481 -1.0193956093723218
P 0.5221023319482442 5.707197342014768 7.9951997924553675 0.558976853426947 0.3751108386054895 0.03984618546266041
P 0.07590154592236242 1.6857989115448604 8.128322857594677 -1.6777857091922848 0.16075179740149734 -0.47248957106697986
P 1.9630730203628155 3.5020658359511123 10.353472383798282 0.1491203838101561 -1.0452501085415804 -0.9237865672167446
P 4.343363340400562 6.622384851236701 3.4694078737530747 -0.8997909756330955 -1.0005401672287155 0.397567882057425
P 7.213231829531968 4.004750879505523 10.342508119232019 -1.2734553116000455 1.4486459101346922 -0.15624773888355672
P 6.51123127421261 8.10466312879379 10.292844897620771 1.0182632955400914 -0.7344410173379545 0.13580541186880482
P 2.656190027436553 8.45172224211909 5.613188284945032 0.024259129657680803 1.0232913448823022 0.6430791804945054
P 7.298890715330667 4.335207951847206 1.5500453695172483 -0.5966036626407855 0.021265851357311762 -0.2466605815501752
Ni 2.8206175879459043 1.8382755511049296 0.1081262531035031 0.6979310953373786 0.3839109533956227 0.8132581847471736
Ni 1.638186369666952 1.0545845803097107 6.724963437684768 0.4570498394731419 0.4584315503120169 0.3023141663587374
Ni 7.361758202761506 0.6329364289073538 9.01466887160565 1.3324593009380794 1.0216625510296276 1.7397999461115523
Ni 2.4370230620612605 1.632834395928812 9.03259980402765 0.6697338069675561 1.5294569680454886 1.196376724148488
Ni 6.677269888041095 2.321272976979754 2.613502575677195 -0.10110014717713556 0.13685082241418367 0.5871486878754727
Ni 4.44711699455202 7.084729847839689 10.183047518023523 1.1613711546075804 0.4631032447560734 0.5681461786310409
Ni 7.356852226834877 6.084520592549788 11.401036594474954 1.2872209979255702 0.4878588544341985 -0.5173100698157801
Ni 8.095961620471236 3.8442098713536312 8.309524486814942 -0.6050291677003193 0.5363454891806763 -1.7822321471338338
Ni 3.3795620697238578 8.97981095693736 12.155764103310759 0.9645058993129776 -1.3243245876460872 0.758841814779822
Ni 0.35341776783799517 5.056750492907697 10.119516495073109 -0.1638540904759049 0.7203724550600303 0.4363781700564033
Ni 8.882128334220152 2.28142443782061 5.5944172382780835 -0.2612184247596921 1.050017962243869 0.7982840799358445
Ni 3.77860268308065 2.6796458715236056 11.191939167444056 -0.4191088414529944 1.0222798728986524 -1.102151963934947
Ni 1.3114247077635088 3.5578792763631433 12.607462495013234 -1.063630410820981 0.7046756131500639 -1.4797536872830903
Ni 3.3951901971190726 8.851008609372021 8.15251505317053 0.9425851879804864 -1.799327926273856 -1.8130092804156905
Ni 5.81170646184695 8.274278827110521 3.5124903521454858 -0.5487461768378743 -0.030788189025450198 -0.6853951676538971
Ni 2.9204937917360567 8.663143408767926 3.318380271980611 1.3665618990487431 -0.4549579899411197 -0.1620733444263983
Ni 3.7610995444778554 4.563203853491199 9.304375396969396 0.37227336915669434 -0.1451562569560855 -1.140108131463746
Ni 5.226111335332137 4.979155975700821 11.40954878127752 -0.6984095776356939 -1.1815314316055392 -0.9191076736838364
Ni 8.112072153662576 8.97384914945695 2.5835824939220697 -1.2327755744924962 1.2227459581706361 0.03973408536482834
Ni 4.78617545325857 0.5258614563595568 1.147153701587995 -0.5333547819834686 0.8256740419130232 0.7639547105263553
Ni 6.131213832816213 5.8143278367391 0.030984105105445973 0.0214010913835954 0.6451833713217018 1.6880444108058155
Ni 8.279785534783267 9.071386140235703 11.700401247956966 -0.7498825487040053 -1.0311856600287144 -0.9807051347806595
Ni 0.43317400913127985 5.0811893525793055 5.810388492803953 -0.5902491811776674 -1.310178635163008 0.6287907888962913
Ni 7.42657351736915 6.532620965172864 2.4691221616954855 0.0367264088867561 0.08147054587166615 -0.6238187896029966
P 8.827816723173415 1.8106965027604327 3.460602602674373 0.029668216488394065 -0.014117156127672462 -0.9553247470343418
P 2.0333313286701324 3.711466359453915 1.2539456020554243 0.112082100109936 -0.07741874439979571 2.0487192764916333
P 4.845174592324256 1.403336664919525 7.960456562938609 0.22262488075721013 -0.45295252947531667 -0.6934756306691864
P 8.920138270156329 1.9095714869737226 12.309748943633428 -1.9494546398613393 0.520664845220626 1.3048801057682302
P 6.54588257356822 8.245106929439197 1.1169614701478858 -0.2720345415385895 -1.2331478702302505 2.2079500092629134
P 1.7262026724693558 3.2902805894561453 5.945910844129271 1.3924410808083503 -0.2540779570601689 -1.7604569602402713
P 7.1782164503302255 3.9913254351794065 5.615692244086804 -0.43600741698054585 -0.0962181364944859 1.1759217987282458
P 2.5883437481098603 8.889291605192799 10.137501129272414 0.761272792818818 -2.1100501141906305 0.2982561942392799
