# total energy = -340868.2681268013 ev
CRYSTAL
PRIMVEC
9.21138015422628 0.00000000000000 0.00000000000000

0.00000000000000 9.21138015422628 0.00000000000000

0.00000000000000 0.00000000000000 13.48178595628209

PRIMCOORD
 96 1
Ni 8.864452042697389 0.5117667854747201 11.412183493446829 0.23360631946937832 -0.8964382571107787 -0.3925385471636336
Ni 8.570452419024212 8.090300011730672 8.688849052885741 0.596602634199521 1.4024169610741395 0.5286920864004766
Ni 8.176094807447436 7.040819824872386 6.399884617463217 0.5244150562916775 -0.913342489065285 -0.43118351322934123
Ni 5.281261968117367 8.98598699381259 3.951727266157478 -1.1014989037319804 -0.08582959417131025 -1.3043044357704183
Ni 3.929584029156884 2.498881658968774 7.3673512802003716 -1.037285088058233 -0.8022548916581346 -2.431394300597625
Ni 5.618444542436902 7.128042384529037 5.967240824984878 -1.6804989943583895 -1.5960765649472513 -0.6490513389175402
Ni 6.641967059730033 8.712565593634288 7.316335892921205 2.1940357131746664 0.4533399947217225 1.84406383572865
Ni 0.5414928307031471 4.582587986979207 11.320116668912851 -0.679242774899256 -0.9236749813395447 1.4430403910224567
Ni 1.3144915968616455 4.625043238585238 9.316951886458426 0.010181568518692142 0.5970942291239588 -1.7956558767389075
Ni 4.795628789570716 1.1511185566176552 0.03178663099199152 0.1846100920763337 -0.4997139540005716 2.180099305599233
Ni 4.853642062431375 4.913562091005301 7.018078769293092 -0.5101593177036117 -0.37401734843099455 -0.7505170969642107
Ni 1.497374340490659 5.587660109616908 2.5689811838650742 -0.7757547884850768 3.209110326574131 0.17755909876682324
Ni 4.445983217763015 5.483276748540854 10.136658798487765 0.08423859553510653 -1.5297775846097008 -1.695795515506144
Ni 8.151739918047058 5.915658937819885 3.892016335915393 1.9044256246461586 1.1662552221727593 0.8625192357658307
Ni 2.6211074636032747 2.841904248371455 12.966066888402127 -2.3223748985734134 -1.3745906828904908 1.861181726355859
Ni 4.246639737614155 7.989748584841666 13.091205331473994 -1.4969091160164543 0.08632427441954164 0.8318693720904576
Ni 6.912127631297241 2.8777917858540096 0.5377898558397008 -0.5465013466677555 -0.4011093195517802 -1.104509665533846
Ni 6.075402694242488 8.997722292260427 12.021101785357576 2.622446034534245 0.6005626472885335 -0.832670013614882
Ni 8.460560652554276 6.3467699566234055 1.5456060486560603 0.48615421303826595 1.3110337840744517 -0.2057823552785746
Ni 8.917859625429383 1.40200892068653 8.469190794717369 -0.4729377143479919 -1.1773808997722757 0.8208126000556638
Ni 3.1570163555944286 8.96267299038129 1.861336239494301 0.6369776955824579 -0.033396830292890874 0.9668931685982317
Ni 7.619285293652402 0.6083748204755628 4.51042603404329 -0.6188791862095341 0.29263653405965734 -0.3890750140950654
Ni 6.753470817745003 0.9511487026112961 9.841609077465252 -0.38386621620061634 -1.2961329557032193 -0.9281816109606466
Ni 7.5067682838091265 4.464442823798703 2.259075348763543 -2.3490886604191736 -0.5722607150200466 0.6081371172016816
P 7.441901744037014 0.6137892697908209 0.3119820802115334 -0.04453099253283944 0.22494941512532873 0.427435873261451
P 6.804990067524246 7.772479758712043 9.956124035686345 -1.4029013569097257 0.7680805597692708 -0.40702517081558287
P 1.3298285449900986 7.804010313332881 2.91029966792015 1.0491628133324253 -1.8406352696630752 -0.6391780456678863
P 4.9808788579258625 1.5372964625259238 11.575327170322414 1.1251288844460945 1.62317496382594 -1.8842211246738259
P 2.4263420394423063 4.290338525554924 1.3281944461324484 0.4950371173501927 -2.108967165539097 -0.5059612204618641
P 5.889885495859879 5.107830100632374 0.488183809739906 3.822452899236153 -1.7190210616929875 -0.28639081026026164
P 1.926320684933707 8.847521525784417 10.041531032294275 -0.39850119250497174 -1.498642296657477 -1.9428227363671184
P 0.8191247527970742 6.535732211222257 8.16882979183848 -2.2948967477578024 -0.41426745420029293 -0.3047834538348364
Ni 6.9271237583561724 2.1073979980322837 7.048587781843392 0.9064398484081808 0.22531579732581195 1.8602311895171315
Ni 3.8720865935906352 1.6056356926550488 9.842849850385916 0.4937569650861884 -0.9134137086228526 -1.1396142225464632
Ni 7.893369913209232 5.93078402420242 9.105908111106707 -0.08027626845324884 -0.48618918004125944 -0.03628777868744072
Ni 5.873351068297973 6.485152522229262 3.2188569569520085 1.4270959518780582 -2.3160754387179465 0.8280080893628384
Ni 2.253729984800215 2.0773412642526186 2.273056381718117 0.46503311478893467 0.5718390541015959 -2.2667755640415543
Ni 1.8458869125267083 2.3615399793319956 8.775226928972796 0.37449223118488406 -0.3827215610732118 0.7300058643847364
Ni 2.603467670410489 3.583346668044395 5.256359922729703 0.07392332965202753 0.5016587364317683 0.7510721981367323
Ni 2.698243561878149 6.622678429471186 9.049014942085337 0.831474193534568 1.7729075272987984 1.0887891694747958
Ni 1.4470894156658989 1.758120881434876 4.297844879326622 -0.44403542949134495 -1.5097497194245484 -0.4681210096856389
Ni 1.2555387632147388 6.95485922431099 11.198524607240055 0.6614836511436221 0.2797198259979892 -0.44587993889925154
Ni 0.059646450580283616 4.147460806383491 0.9362907462562242 1.7992111981903338 -0.6197613317041712 -1.3234457845855594
Ni 4.378353263913705 8.188594650456631 10.494720808436586 0.03986418318478941 1.6352239245706741 -1.587080532096228
Ni 2.5402683904649535 5.16599075557715 12.653950322038835 -1.2895568451475983 0.61683927296137 0.5377516254995836
Ni 4.086619639783832 5.770690235330038 0.8963069079732354 -1.9654700414529893 0.36047971895587594 -0.3169632837304799
Ni 0.7843287638750133 3.716911681775668 3.396817138971505 -0.9598198066912178 -0.17373921080010077 0.6095699929934664
Ni 5.132645559045619 7.106736461993835 8.260964780586365 0.18299852461483965 0.051762220173956014 0.8738392887643401
Ni 4.86938431129115 3.8633542051066874 12.201906441600535 1.7559282191319825 -0.21318044751485868 1.1646107445908007
Ni 6.628343428329444 7.4413766953623455 0.14159549503961263 0.6457708683940556 -0.9862252932679403 0.9380518188865071
Ni 4.304349034926322 3.179998749336465 0.9133074313761621 1.3204036553251262 1.598205695475112 1.28334583124088
Ni 0.5101593996198162 0.4251908647121347 2.352746795738349 -0.11601897327049696 -1.1395352896794115 1.2721422492155767
Ni 3.1322837996034996 0.10391818637305911 8.102270200375072 -0.028915397482769552 -1.0484971547239685 0.22171419601748268
Ni 1.1429664850899188 8.420389823252062 6.862930570480872 -0.5667698671088045 -0.11508797681579536 0.9752130013178366
Ni 4.9923838718672675 0.22077467745556276 6.1377314987537055 -2.9741881165068067 1.1073270803779833 0.34027136232880106
Ni 3.692704174459407 6.671646126919148 2.959359479170685 -2.648554044475206 -0.03613582649060874 1.9368364368766964
P 3.3119886170437347 6.70212658419065 11.43862107592339 0.46267541319003547 0.05561450404051067 0.8008155881084466
P 2.7202771834536805 0.5434622238021641 -0.065018527546358 -0.8560570250802548 0.298650344353905 -0.2868104142961835
P 0.21236284500456976 6.032376337060503 13.051110035489891 0.24002070763615438 -0.07889507183500606 0.03618827699509897
P 4.197331219096672 5.0868097308851485 4.677910113296127 0.29080333750566045 1.0981197028471024 0.9397803715418396
P 6.803442555641014 4.486061933262654 7.725346968211341 0.9678359921274752 -0.21476039040746886 -0.42921096288400273
P 6.827300030507496 2.933216660862359 3.776490889280073 0.6470875303229501 0.8888740716102755 -2.1251574021457142
P 6.986813502423666 7.727740084802195 4.536958493736501 2.146965499159741 0.48158921937540283 0.1444124368115255
P 8.792815138436138 0.9305520563559081 6.396379687275303 0.4182590918581894 -0.2021712408885486 -0.30535243896442893
Ni 0.3484250639236048 3.369504475370498 7.297299654481409 -0.20040489301674516 1.2952232994047563 -0.7444860602787824
Ni 2.3616505158950836 5.374398233899223 7.050340707506362 -0.27869447005726844 -1.0859704690790781 0.9970049003819474
Ni 1.7781740562550816 7.688103515554908 0.29408344723351704 2.189819103990158 -1.2418253433995903 0.4015417791035084
Ni 2.281437816614261 1.2019377414973402 11.245831492827618 -1.3361642605934922 0.3135385743196471 2.2881468306284787
Ni 6.8715146557426765 8.438444128556428 2.2861199611990615 2.6767027389952807 1.7530328998620581 -0.16283747628593245
Ni 0.5151252547165424 8.677672885219524 4.641562927938731 -1.339240585525971 -0.10156268863585091 0.48613904352961435
Ni 5.687658853690474 1.6586840315570075 2.2770605687159784 0.016608040870326232 -0.26227951903435476 1.2531022018649902
Ni 8.417414547428946 2.800517516875275 5.183854385310189 1.465014581300703 0.36268829657142054 0.10822364559579424
Ni 6.905513860272479 4.678736374105209 5.404066247432029 -0.9082347355250746 -0.11398445933897144 1.1679156405943174
Ni 8.23633723433037 7.151319542439308 11.44789693584252 -1.7177203406036934 -0.045340632918328364 0.2263750918282617
Ni 5.650923869224245 2.435175753109085 5.299771315606445 -2.868531203196924 0.18752906549534157 -0.4115392566358525
Ni 7.675373388039279 4.6404999346570355 12.439050662911397 -1.148775320220441 1.0624970685474864 0.7792406901511483
Ni 8.96439551848941 8.182174318417273 13.49243647499879 -2.5794484479267963 1.3850607291838792 -0.13654794646178417
Ni 3.8867234768195313 3.567116216030981 3.22713522438927 0.4634439159249438 -0.5047306904888726 -0.051366527397434115
Ni 5.458277062522463 3.000247874994943 8.994683457913535 2.3080430553317735 3.0097930101946098 1.1321996752499468
Ni 2.118737207129056 6.286039326586835 5.051773324938371 -0.7434568476833197 -0.0462006669257785 -2.2699272222966584
Ni 2.839638248828152 8.584039204903773 4.419625774294693 0.8826941680518089 0.9577019890172668 -0.23150778506913677
Ni 8.013633693848922 3.58332824528388 9.345021725516585 0.11883484545273726 0.2509018733250324 -1.3757942162802888
Ni 0.568691273188963 1.360705091612666 0.4087771062315998 -0.12199524545858989 1.0912412305597141 -2.2964000717762065
Ni 7.6176364565863395 2.5184005737340542 11.213961038275286 -0.42118500725573266 0.5827626429926351 2.100063949512196
Ni 5.625795223882251 6.624585185184453 11.769949818089392 1.231563556462266 -1.838823156155001 -0.4399820853575777
Ni 8.235692437712355 2.189139786435823 2.3420293548089464 0.3231449870611596 -0.5440775677176114 0.05236231565180015
Ni 3.113096494527483 3.5301877925793486 10.969117945345348 -1.3283200819587253 0.6024076709170723 -3.4922970280747982
Ni 1.7752356259529936 1.6061791640902312 6.434344391005885 0.007285220807503582 -0.7671989284952658 1.6472633722337113
P 0.14098293825250025 4.972671518116583 5.646886521257457 0.1803672576395797 -0.19268309889245525 -0.517961844467166
P 3.7577641532169226 1.4230385018140126 4.5667121731057 -0.7633926673752982 0.9156983908919714 -0.24705498877511645
P 5.0504708357699855 7.708036942431768 1.685007392918377 -1.2753913522804938 1.0289729686481117 -0.8543310435280834
P 3.4180300265661083 4.078882080367675 8.63021677527179 -0.8377430572624152 0.9787294991115274 1.0009343173433407
P 6.299423462100734 4.594654895116308 10.766298090287371 1.7881726809879848 -0.5738182893151538 -0.9840794505695311
P 3.137211888041171 7.696624042292937 6.361893200729889 1.8631941288001976 -0.12419610976465063 1.215223938761978
P 5.236743367333696 1.0319509302285876 8.244759199299645 0.7129579077635141 -1.7900274748085363 -1.187562725401284
P 0.567736053056278 2.4453266941526617 11.775140430864399 -0.43465835915181916 0.669503436124305 0.2747259723278236
