# total energy = -340871.93193310435 ev
CRYSTAL
PRIMVEC
9.22623214050913 0.00000000000000 0.00000000000000

0.00000000000000 9.22623214050913 0.00000000000000

0.00000000000000 0.00000000000000 13.50352333947127

PRIMCOORD
 96 1
Ni 2.7022988116041367 5.361612607645375 6.059800344221851 -0.49779539682162005 -0.18978109475431187 -0.6642146769215399
Ni 6.854130955487043 3.0251984842099056 4.175815734343467 0.10754076059615673 0.07468334774650363 -0.6462048706076806
Ni 5.962304903900699 5.764586749036375 11.800080584672594 0.6359438550013048 1.2258544218926308 0.29290675700190844
Ni 4.93097822228409 1.6520029966976972 2.512924861091622 2.0190605730849356 -1.6680947071567658 -0.7720423726304961
Ni 0.34865008652207025 2.761355923563378 2.6500801829106644 -0.16477505962827751 1.0402197452065245 -1.516119113286002
Ni 8.722775109178171 0.5352303339411213 9.869604068393052 -1.631844209465164 -1.5387980429407564 0.4464939183341665
Ni 3.5385644932141407 6.426827239930051 11.25557788742589 -0.5692052160231746 0.17522736530985306 -0.22523686445876048
Ni 9.225733928323004 4.445927519732426 0.6284014392559781 -0.0654883115107969 -0.927616482485796 -0.001000159129740213
Ni 6.623761165062063 7.648546448087967 5.466293437560944 0.7526251444461489 0.7159702122272765 -0.3674808328640574
Ni 4.187473078658496 4.382414137647219 12.504235848200365 -0.4419608063505034 -3.007891422296523 -3.308208355719574
Ni 3.158416050149522 7.494385335179521 8.769079723066788 -0.475057331794156 -0.6802115665704285 -0.7429529114637076
Ni 0.7071058125676963 0.8698436308780032 3.876524144549963 1.2912861691338793 -0.9127845596792861 0.5129651625835231
Ni -0.119696522731326 9.494900024917117 12.408036693495566 1.2474018090461032 0.4016898746455985 -0.457153969151174
Ni 7.268370326326915 2.5074869198654426 1.840557657795748 -0.3474856206890532 0.24383365362434137 -1.299957214545316
Ni 6.663526225606405 5.282488440771067 0.896586787373091 0.9539450930779957 -0.7386347437043279 -0.2720844209399185
Ni 2.226861842947416 4.021077981925967 10.757068880044523 0.8947719251519494 -0.7661882278425644 -0.6740427187555553
Ni 6.476104545815742 0.23069639904290803 1.2157212346405433 0.008000501706973319 -1.1345949149550008 -0.6690668628075187
Ni 1.3832705330143942 0.9830642612668529 8.18110947831601 0.1756181729903685 -0.19184389082061154 0.5731369469774129
Ni 4.345453851674914 3.3419442599750537 5.589932329287768 -0.36752145629400573 -0.9656870641052724 -1.4503904036296247
Ni 6.714039846599507 3.2154157123404596 10.377579189955048 0.9287125437634522 2.2496165357637645 -1.5673532288706298
Ni 8.736208503181084 2.7091446758556215 11.96424293322607 -0.2306608636878092 0.37667278377597063 -0.2630516213136889
Ni 5.926184205053577 1.2256772617480605 11.022764068105737 0.44793887831080925 -1.137590507248215 -0.4195878379719419
Ni 2.2651322538842904 1.1481953641955362 1.5758884267490407 -0.39415834215524376 -0.06391942436178023 0.6007809339469266
Ni 2.735356401379166 0.9457441522408989 12.615652750204895 -2.479008560041479 1.0887955972326993 -0.20401395052424218
P 8.299466352139902 6.046337426276073 5.565436682943168 -0.9901143439097011 0.31078260884106473 -0.026074328489548642
P 8.409876672217429 7.7220610658182025 1.9184593489108634 -0.9731856864751627 0.6353933818144736 0.667098169116922
P 7.256459260627901 1.2884986764224042 13.000044337432934 -0.5645201518426793 -0.0792758522131925 -0.7667250741826408
P 0.7208934938849734 2.117844683923764 10.12532016376639 1.7923862048487003 2.3981612495761087 0.25079928630889714
P 7.814904639891917 1.3520120585076125 5.248198226381484 0.3642713247878243 0.21422662939118592 0.656632750809224
P 1.0183176942923584 8.855909639028484 6.424301097568789 0.6951967271253511 0.8822249417248741 -0.7681157838825804
P 1.598693827364703 2.954608582069591 4.365554121025704 0.8943482073509694 -0.8302480344369508 0.23898403884152386
P 0.815514962893002 2.0383237890672263 0.09767442922476245 1.2933620778263015 0.6019932090874729 0.7506669922785136
Ni 5.452435636879366 7.157664766820753 1.6593396964992888 -0.27349209992072254 1.9090101586930477 1.1515405416704039
Ni 4.162082487795844 0.5225571814669432 9.08268581203304 -0.3711323135737157 0.42837946812164285 0.7047334629711928
Ni 9.158207135254782 7.019751048719404 -0.13618195432775976 -0.871669277696215 0.4487359202908079 0.8308620138718658
Ni 7.499893395770003 7.069065259533674 7.514967213848272 0.3749329182667285 -0.2906878949737188 0.48647302983026536
Ni 2.91708549593645 6.2925947884545 2.8948714968012736 0.04253581647968158 -0.631271646336616 -0.5713009222099387
Ni 4.705424525038726 5.122791588575705 7.168129159319452 1.6368123521037163 0.6228862504863981 0.8321575927548377
Ni 1.6304320659430174 5.624523318845273 12.474703601727887 0.5823790344009712 0.2617113052357106 0.09510767703912652
Ni 4.431396204104274 2.9528925028906468 8.888410887005177 0.2605843907201189 -0.1317700654571666 0.6837452907552999
Ni 4.04409743112739 5.8341064082478855 0.4367366153018954 -0.5957860518354965 1.9182861846783352 1.1566097286631951
Ni 0.9375973892569885 6.769240393522197 6.6052616469884065 -0.7360854949199128 -0.9818832142491607 -1.0074345803557037
Ni 5.643492452135102 1.091601656218972 4.94323434906532 -0.09030871298858639 -0.42614749346733055 0.6915935831551251
Ni 0.0624523653885494 7.516555971023617 10.961390249254922 2.1303327756990664 -0.08156747646084661 -0.03338320344613606
Ni 0.5466948500043228 1.9789345327507697 6.09179045893772 1.123285917700085 -2.3358371947259062 -0.08255863672952234
Ni 3.467605541788031 3.0408461739275863 2.960944235683465 -2.456002586064609 2.156886357817879 1.8931076285301782
Ni 7.230072236693605 8.186767926490452 11.931267456917128 -1.533954598805526 -0.17334686045768857 -0.1941565981141882
Ni 8.520176277509215 2.7773911150311426 8.423525037429318 0.6747687982883024 0.5895223303139718 0.1643109755076654
Ni 3.36931849074885 0.5097050400891548 4.130133891124628 0.6767750300850538 1.4774795465369328 -0.7986242368840826
Ni 6.911970204803163 6.505416285339958 3.3156817901747133 2.499619037202979 -0.8480680933375073 -0.47109809003609193
Ni 4.899664390384439 1.6870811313124503 12.984880102279645 -0.4610659026110705 0.9815487137278773 0.5919435381609547
Ni 2.2922573763901757 7.816777565017324 0.7040288641473859 -1.6333534470208386 -2.1422976613704265 -0.937490032845766
Ni 0.008391258135749103 4.818408963884667 10.750533017193105 -0.6035178732621154 0.17811291438776422 -0.011067056447439005
Ni 8.92545697693643 0.5379871321060051 1.2982517264227347 0.7780770088603502 0.17357517441841075 0.2109880678492302
Ni 4.154387810187033 9.161325601719744 0.6049428214044602 0.8275195797621943 -1.5361888874526834 1.6486075449664317
Ni 7.673531084736245 6.39784764476305 9.864310056388334 -2.028920753708467 -0.09801019539790216 0.22324940171508648
P 1.589605988702017 6.059392544761049 9.45246673803648 -0.45421314135529517 0.19954408767834667 1.0481186883386273
P 6.435416862056916 4.522283816963278 8.438932845111232 0.8631751241822747 0.04969016813627571 0.7660419320726872
P 4.074811557937625 7.187179483452157 6.511250031925153 0.45778388942568904 0.2851777637887669 0.1182836009349576
P 7.885448410871508 5.220257504953993 12.54331447707313 1.1339009742117696 -0.24345107347394201 -1.1352587737912447
P 5.39956010045718 7.511684520451131 13.10685734959718 0.12138075180304257 0.5280783640758776 -0.9573312359414092
P 4.836778392085081 1.7198434816588442 7.197999085888433 -4.254425741136008 -4.2222393862114505 0.2589342567112057
P 2.595615889313134 8.397937927821982 2.5850195616947635 -0.09371722444950312 1.8947909297698722 2.834658718819196
P 2.2333663366095418 7.955650811261738 12.124786753532327 -1.2728726996236983 0.442286050900406 -1.4956837282497855
Ni 7.670587916682035 0.500810952301511 3.258804836871302 -0.9833801105096612 -0.28457072633238734 1.181440928774262
Ni 9.009498725543947 5.33517022631821 8.208440345798724 -0.30678711452842644 -0.06993297754571182 0.8039075967702091
Ni 4.300383707647279 8.767217869419955 11.612125628663959 -0.020572939055345213 0.13583240845199832 0.9659012369986075
Ni 5.157472995208229 7.657219106304135 9.96499223729232 1.4406667485839577 -1.39577168784348 -0.9436056588252006
Ni 4.820226531617204 7.074305759391954 4.290096458805761 -1.715564470602955 -0.6356636047567246 0.12359318607332907
Ni 0.5033509340109906 7.902858310928856 8.550322991042542 0.21642260860124016 -0.43183940164578527 0.9707323398386636
Ni 3.318435820469954 0.0043104956580780444 6.752086060095261 -0.12891562672750703 0.4443555318349251 -0.08547529615568505
Ni 5.035889708003279 4.960197699486857 2.5373522333183502 0.15707100611580047 -0.9052160033034087 0.21469611282843667
Ni 0.559464877916022 6.138581295260372 2.376457816190586 -0.9374812910950177 -0.17949822477106506 -0.047554609850511645
Ni 5.848932963304674 8.987918568557124 7.364672814831737 -0.858859013305424 -1.1995165553290503 -0.6194494568907073
Ni 8.281069245243055 0.2793057257213113 7.284866829401922 -0.41580934476611614 0.40474871607658036 -0.5670431753748492
Ni 2.5975349455992642 2.701597617961127 7.074036353413325 1.891575508156368 -1.4926503407401002 -0.4241078373294825
Ni 6.636963903261356 1.5332890676897988 8.730135797183339 -0.8079426860715312 -1.0815702831288536 0.5163374214898656
Ni 4.812734831115579 4.946672043162494 9.976740921305582 0.040427511887427145 0.2971303081649528 -0.8071356167892036
Ni 0.7647107155873369 4.961175680094213 4.490164534997381 -0.19932682946121802 0.4869702811816581 0.10955007771670167
Ni 2.815523132485844 4.623560167217394 8.313309390850048 -1.0530922302938186 1.4895843002202669 1.7194987726603548
Ni 2.886426726519084 3.436190221334787 0.7027095129506712 -0.4730546995418304 -1.4387150241742253 -0.4600845125344077
Ni 6.325458627354487 4.932122275070053 5.364922979738951 -0.025894351268258627 1.5962735114494058 -0.391761559788293
Ni 2.381105991945166 7.820357343089528 4.733660485894852 -0.8189400656232992 -0.9657359150653368 1.2857806659346178
Ni 6.316195490281048 3.4130046999547563 12.622161856983093 2.2380362871253325 0.5557634886959719 0.6699425805442526
Ni 2.0809489815764737 0.11320033267813089 10.35586525260212 -0.7361505438298935 0.1246985033223659 0.1776927961312101
Ni 8.429916048436061 3.6589668227045484 6.034036090957333 -1.2819798041312889 2.4702855783461843 -0.48732535052823167
Ni 6.233796010995315 2.909815225006301 6.79215097318431 4.74282889810945 3.0458463042737414 -0.6159278168906941
Ni 9.15033715923522 7.745615636484026 4.232490633162906 -0.4284882257853653 -0.5801210916047299 0.0756128015393085
P 0.9918660867330482 3.957500016215745 7.269081668825284 -0.26556256066100065 -0.33049577099927596 -0.6962287679342912
P 6.970630588780175 8.45619235758462 9.244457643837782 0.7319475614921395 0.7385799792069925 -0.22821985834648437
P 7.9666669324427 4.45385285314486 2.6283662455577392 0.12800751309094083 0.23527419409010447 0.42239702528596285
P 5.251654372942948 3.3090342899143423 1.0179956987905028 -0.8988304114920391 0.6022467198591758 0.4527707524818138
P 3.956402094590507 4.973981690311276 4.350565184283165 0.1007885294739877 -0.028661886711066765 -0.1332592484081834
P 5.504296287765618 8.839680696685678 3.2538761836595187 0.30101781614481704 0.48650851105389115 -0.17157511326924643
P 2.0418943409072865 5.330381811835028 1.055046401837827 -0.4753319256117814 0.22169362719219238 0.2100087346550964
P 3.814299667095391 2.310340791394099 10.987493105239157 0.08019887824809414 -0.5209515232231092 0.17382380009410708
