# total energy = -381163.9223166858 ev
CRYSTAL
PRIMVEC
9.33974180930460 0.00000000000000 0.00000000000000

0.00000000000000 9.33974180930460 0.00000000000000

0.00000000000000 0.00000000000000 13.66965621349280

PRIMCOORD
 96 1
Ni 4.626095487787122 0.3147670412847085 12.565106636651784 -2.2296488343925858 -0.3283100762018668 0.8124333748530331
Ni 1.218565441220145 2.6816640000068435 5.229080420559171 2.4400198374831072 0.2762668344523823 0.5004150938326543
Ni 2.3945416602226026 2.613792096968262 7.552826838586583 0.04535914486108962 0.4604467809698328 0.04604742917736586
Ni 5.320309149677137 3.6063544681832322 1.8422052127936006 0.11544330327268505 0.4516584932542415 0.03390950826325128
Ni 0.20943250025547658 8.49801617187775 9.014618767507438 -0.5867949040804797 -1.3959804614201765 -0.5254314133713338
Ni 2.8690285585395237 6.469676444535255 9.170288912532284 -0.07041274539560777 0.6545851242515758 1.4325006678333974
Ni 1.8672291827690062 5.346488445702614 12.57930958187688 1.6539490117840032 0.31925207976465664 0.7196720865588961
Ni 3.735326961517452 1.4368725640526492 9.65870603561624 -0.03958778959495118 0.19674801299044825 -0.6613862063338093
Ni 6.216401328724018 4.990326735165491 13.51866064262237 -0.041151020317013 -0.15819303553538563 -0.42073249309934635
Ni 0.4911415257420483 6.902760267832218 11.151514312796461 0.9755559864795521 -1.909610511281208 -1.7680905655261292
Ni 4.00232215790715 3.992422031689881 13.346615128449658 -0.22579505095507563 0.08964254015949723 -1.177991279662765
Ni 1.0095887203603313 6.899155127530458 7.245682894489173 0.526247738625042 0.7094138991659976 -0.67815931202709
Ni 5.4727057152310845 7.366020796608424 2.586736733169973 -0.5708440371781782 -1.7370378099853825 -0.6604860631170432
Ni 7.317762351170093 5.767122393294276 11.396719891766452 0.1693410817324051 -0.8169189214282123 -0.5694916369153418
Ni 2.807264846582163 5.113396511736207 7.382010434423486 -0.7176028627346932 -0.4551001719459388 -0.8040181542061444
Ni 7.67740778536669 6.753716669553742 8.9503034381137 2.1990755895914194 -0.9533840783682033 1.559599810177456
Ni 2.425073275886993 6.914920611544374 4.926489600547532 -0.4105015593999575 -0.12794323551190867 -0.7639829926611295
Ni 1.1084405466655944 1.1924982220952403 9.31574791794077 0.6405121910982776 1.235434352271582 -0.5877444124779426
Ni 8.724402171293212 3.4793993590593244 5.932316272945301 -1.5466589337460717 2.8769330541073743 2.6158683813167274
Ni 9.15662673835245 0.8637047567038383 12.193879922729325 1.1616472910871025 -2.83551515328222 1.6819059020082454
Ni 4.203434816243434 9.01785685595982 1.4373507588284267 -0.20392139081043592 1.2923174386118712 0.33346410959898054
Ni 3.1490340151373877 0.4960859850056543 5.091359391161069 0.06270380678712427 0.2776254053628058 -0.45448336429754627
Ni 6.2359213889071246 2.530490940617483 13.56106400397994 -1.2108435503060955 0.12446324738310822 0.2643258600404222
Ni 7.97922153886769 7.607070190515505 6.988256263485883 -0.16319537384598348 1.3100734770437115 -1.0593040155314855
P 3.147558335946512 4.883685564270414 10.993328975327925 1.4752437152278788 -0.299252239603962 -1.13298180483161
Ni 0.17079772467966853 4.225570004106575 1.5864728109373039 -1.561907632375026 0.8210596830694634 0.6214929696832974
P 5.97170943554832 7.452357369016386 11.303520477146746 -0.09131375721433307 0.6794122105975847 -0.03991869057180867
Ni 1.2421389493073034 9.324461896960312 2.8576555550538925 -1.0081881706922766 1.6343834309472496 1.4770787115540884
P 5.653476416113395 7.222272831882016 6.28498025021038 1.0143984132680466 -0.43263670073610005 2.4177461136865714
P 9.043260953423003 8.40004228129364 4.1368069668012115 -1.1908280264161166 -0.6730829259454473 -0.042138066820630656
P 2.331451704941796 8.718153884086277 9.543975714422317 -0.04352749096898955 -0.4280786490517724 -0.1426921116863091
Ni 6.718627259932722 0.39104938173711196 0.8636804733753809 -1.8118790234659892 0.11624831567248367 -0.1258992084986864
Ni 6.899472678748747 0.617601628555093 12.2343013908951 0.5808363725041997 -0.6135698581814788 -0.692741066496007
Ni 3.473001635984957 7.653946354180104 6.754587133481524 1.150876939944476 -1.8485540102895197 0.7977973701074131
Ni 5.387293777252851 7.676202958685532 0.16721499975802273 1.7583854224232232 -0.23540249213785264 0.21695508406594247
Ni 4.206918539902908 5.6216932750592745 1.275270749064984 -0.19784638826094955 0.25238462851814597 0.4946331970435546
Ni 6.13693880621786 2.499651113476517 4.759282072582881 -0.3272574665676364 -0.9338856033239594 -1.1705317380609261
Ni 0.7588577501920983 8.996524885884119 5.963620285249473 -0.21804266070316644 0.2069820320136306 0.09045269476561842
Ni 1.8383226821629226 2.7337237203229376 0.2131151604134665 -0.9313191281483638 0.6580052056767184 0.4361657969352811
Ni 7.727478140697615 7.528354847346499 13.234331819584908 -2.2776888685199483 0.19672153062788703 -0.8664656220080884
Ni 2.136428558203304 2.063092906261795 3.3984947804324617 0.9717214432248104 0.19701155106448007 -2.4262220123680662
Ni 7.5955262697565 7.791604807308721 1.8527581869567071 1.959295022990529 -1.2939300345146296 0.22076571606128434
Ni 6.159998628510725 2.045384755971283 8.8608352503089 -0.6716677907654756 -0.4687853827425152 1.8163586565038976
Ni 0.41505718781399015 5.216927548640387 8.630105337022066 -0.0875010683364622 -0.5971857603965006 0.8558762765280162
Ni 9.128093827414943 4.928805856492705 12.902815819483758 -2.4882835575855013 -0.1648686477833483 0.3129688178591062
Ni 7.088116781896302 2.077382711084835 2.515175632154201 1.065967800704906 0.6581792693607375 -0.18249201729206638
Ni 6.70759702496801 4.6915016990131 5.103388044515051 -0.3022126077838666 -0.25817552416831024 -1.6277569267696677
Ni 2.025089497225881 4.683955187707861 3.7647051190801135 -0.7132854663062619 -0.8803104983109806 -0.5978372779375704
Ni 5.3066170883238195 3.716245869194923 11.01889091442608 -1.0341169747428964 0.5873217231182273 1.767438790874743
Ni 7.280394044570758 6.957024167192912 4.77340282808089 -0.14555066418102675 0.7704747710330602 -0.888131022796664
Ni 0.7242549411143989 2.7824211336218454 11.7135556858409 0.04865298512101298 1.7769703845142621 -0.5747084052295909
Ni 6.553930254540903 4.517735804416595 9.283747160904705 1.7795615422802065 0.4419806038448453 -0.6032579347325095
Ni 8.944539883501742 0.23946257178980324 0.9673170493609338 0.7164481803049596 0.3782766379279808 0.08863878148533122
Ni 8.07600928225407 8.098191168825782 10.865107397227543 -0.3568133258478823 0.9654939742578599 1.785617775776615
Ni 8.619171301397012 2.6224967362460876 0.13404770898182744 -0.2806333389511941 -0.7439132184944478 0.20183365504347175
Ni 3.5809223514949076 3.170646177464521 4.9348281219501535 0.45237711658782087 -0.4264416276689817 -0.38476044588011155
P 1.8367816247800457 5.280335055139484 1.2711593947623028 2.5335118332956816 0.7179075384593055 -0.22781259560573672
Ni 4.3962631236790415 8.574788848770158 10.09583396707554 0.5603014857756415 -0.8390062402455549 0.7878862816412883
P 3.253601763371867 8.372807594454434 3.214597134024169 -0.28225827614912674 0.45228429976369844 0.5952240086844394
Ni 6.868044447879774 9.039272883710952 9.330442133580044 -1.3577152472913907 0.4239738828547795 -1.0564364641757031
P 1.1733610913224242 5.119906311711148 5.928064822516904 -0.20326344551146283 -0.3618899690398413 -0.41871469133836925
P 4.332706181312515 2.1292276173414977 6.626215185539541 0.8338362660088413 -0.6934334645773412 0.6364323646019491
P 5.405907882489659 1.5992626532410101 11.08502469153161 0.3163037957696101 0.4511121338324683 -1.1399487230677465
Ni 6.741761800159304 9.201093248654734 3.1844559195634408 -0.22241867828367504 1.7937643161431494 1.7310980474621798
Ni 8.375133190141321 1.3715130515352425 10.232639701785631 -1.2137483826577162 -0.3346640434443527 -1.3625658905154727
Ni 4.404304641295145 3.904488363448757 8.912492427757103 -1.7719919574630643 0.046399927420778156 -0.938285275053552
Ni 7.297728605192694 5.196361437385267 7.077164066787819 0.637841843354966 1.6341669440610693 1.8901104935750677
Ni 2.6167901540585854 0.20690329819921566 7.413547006296346 -0.9371236506452828 1.103891829444189 1.4734082046810366
Ni 1.63435206286203 7.2043498675320725 2.5262619055692 -1.2282293498827104 -2.367910164001051 1.0703520458155307
Ni 8.588275435805759 1.3965435593298479 4.873136326003994 -0.8636147828228545 -1.9276470570679447 -0.561542300161278
Ni 2.188656393870257 3.134566755221775 9.984576161851033 0.2868857476188092 2.0693330960872425 -0.2516631769710892
Ni 2.623178537391239 7.178590859883744 0.5782028621070466 1.2319469079436138 0.4159132173338321 -1.0795946474597213
Ni 4.151010846000479 5.143358403156018 3.6099101078539064 2.0294629993651823 0.4522606456146147 0.17124189829954378
Ni 0.4765435094424331 7.520079836187537 13.260632532252671 1.8893633309963977 0.5830428932372153 1.4993310951943855
Ni 4.790596358602938 1.665873691148147 2.954313476030442 -0.8287043440989147 -0.8880739443064835 0.6798035324987324
Ni 6.673478948485288 2.978462312207208 6.839927155448558 -1.1842514016398635 0.13914398932373456 0.9889552906045934
Ni 3.865896550684835 1.9885991263477003 0.8255407041104362 0.7438787657120867 -1.0234299273426957 -0.20193881316276835
Ni 6.901396665541915 5.164727732198577 2.939645411667969 -0.0019036447806160765 0.32187614765106504 -1.0144467500074787
Ni 8.625923934656525 3.5296471694828235 3.735561389034484 0.06954834051278345 0.28275192795609366 -1.1814108468672753
Ni 1.9656327014719783 0.18340170612325818 0.7022439718160605 0.3740625998466332 -0.14565762207253624 -0.9382940168043001
Ni 7.509124319156538 3.082338919554821 11.644591966995904 0.07715109256070583 0.2722368873573828 -0.016635551674151997
Ni 4.848054449629959 8.053229652212636 4.584843716582938 -0.6356314659672085 0.3659427989529762 0.19481171519968385
Ni 0.1585150303510544 5.926944053511176 4.114730619310873 -1.6782045418972582 0.9091881005772793 0.3595808612906904
Ni 2.474527208264768 7.755805577317405 12.061913108201468 -0.31375428987487897 2.0972622183973426 -1.8791161993470928
Ni 5.0533139532874385 -0.0032222108914697514 7.617689476844784 0.3877246707147581 0.5838378783346849 -0.40942735249917234
Ni 5.542893874214839 6.836392063209655 8.810845216756718 -1.9346720822355261 -0.35007497868278414 -0.857436936146917
Ni 4.301072476125825 6.50766117408774 12.43647504389014 -0.24415118486476017 -2.4353792533873024 -1.5570670164532732
Ni 4.8597011075478225 4.468832916799969 6.497105398002119 0.05876384830276976 0.4402803333242869 0.40820864960072284
P 2.0739176669087906 1.036188304762957 12.414987100127808 0.48428939191538534 0.1032472754271254 -0.038119432579540806
Ni 6.585330466184733 0.03690598938447166 5.456325676212361 -0.14614973121760635 -0.2670874819459593 0.5853684560465984
P 0.27575027027278126 1.7168780206505132 6.943405889799138 0.3014685305289905 -0.8658236175487153 0.852098554653139
Ni 8.466167652631627 3.0834970475274073 8.477264199762512 0.3760850295933007 -0.34533926377001173 -0.39192302506682186
P 7.69513461514063 5.861911431953773 1.0624834135856929 1.1188841890879635 -1.0218445851334468 -0.5783683705796814
P 0.29668997119647744 2.175683492628948 2.2069800331397484 -0.4954860319621532 -1.3624540475279567 -0.4190959859371879
P 8.83458310429805 4.212830596408126 10.365057625838295 0.16606241098113336 0.7246916512606745 0.10858282870742589
Ni 7.503903403538186 0.9071831223327367 7.329505208427615 1.8591006754571144 -0.75449459355472 0.515222591159132
