# total energy = -340862.79622962046 ev
CRYSTAL
PRIMVEC
9.31114038286089 0.00000000000000 0.00000000000000
0.00000000000000 9.31114038286089 0.00000000000000
0.00000000000000 0.00000000000000 13.62779513481308
PRIMCOORD
 96 1
Ni 0.07246860429700906 8.603717026460169 4.311738564112721 -1.3581543917113383 -1.044761084720304 -0.8174627097468244
Ni 9.132682902101065 1.3650317778684469 5.139682358730317 0.689840090799128 -0.14827423375977689 1.462591830791823
Ni 0.9569896802058709 2.157493610466949 3.3461547014879702 0.2713274881692359 0.5054218030186264 -0.12390428955584466
Ni 8.050961187568745 2.44261003500488 0.367993021367793 -1.6725064630712163 -2.0636733266983036 0.0671567003521553
Ni 3.9246083562600704 6.7347384067097975 0.3662090069025088 0.4104709632723383 0.8632208898185455 -0.042183575346585414
Ni 4.068484094869525 1.2325249414620822 11.10482709321081 -1.8659848041714573 -0.8251623923839272 1.303414062745665
Ni 0.45666114741167807 1.0077912612214794 1.3676035147959598 -1.138114498072485 -2.3092969823435325 -0.8329782888839202
Ni 9.191492063701977 6.718825668081558 12.843528894636421 -0.8538458763615489 1.3241322691296227 1.294442198264358
Ni 8.268851179750978 8.155106290878788 6.629840032156325 0.7127743309977982 1.2048040289802346 0.0006309487157795584
Ni 6.293436916197559 7.479145444656256 5.3113099507519825 -0.3270492072115722 -0.7210435129851259 0.09466570440570148
Ni 6.007389377638082 1.671675558584546 4.124793215322584 -1.3440927714119497 1.0379594884174383 -0.8106215184552749
Ni 2.7830998104042153 6.201843229897974 2.3418960868642404 -0.7541888893888431 -0.6549697612845042 -0.2867152834792159
Ni 4.702330653897483 7.061550117132606 3.43277344557043 -0.5723000528984143 0.7722562884135151 -0.42619300199328536
Ni 2.1647190552741544 3.3518521881858168 11.994598721087174 0.8942543620855825 -1.5345022437788798 -0.7581812983776878
Ni 0.5921745509936183 5.78008582269801 1.2850453589614668 0.030745508712972856 1.4726654129777412 1.3987881060723006
Ni 2.6996719940735967 4.134220744790749 5.459144786181055 -0.966610604360806 -2.863154255155727 1.976074556441713
Ni 0.865159490944812 0.5898449037117074 8.398373795718285 -0.32371602907328123 -0.7967308765161116 0.3547983523003825
Ni 2.669317676971162 4.592505755056005 0.3918621293101523 -0.14831819962383488 -0.34543747991077284 1.7245499619310172
Ni 2.9708589528491833 8.824195515622302 12.95154277670599 -0.7924404766708739 -0.03713135763465863 -1.2189466390292039
Ni 4.378209862996945 6.479082429813616 8.24021011244819 0.7022901436370227 -0.36576950659990554 -1.2333026506405598
Ni 5.79492778020147 6.740576491624897 10.15344271941465 0.8130301278967674 -1.1416579924493693 -0.9701286448163937
Ni 8.310136775466376 7.8992268466174345 1.964255793119198 0.40219895307153314 -0.5836854119172206 -0.7113599671487749
Ni 7.345958895014161 5.342136342663342 5.790585995518996 1.2301903302638233 0.4754136866923103 0.8246191182859477
Ni 2.7263484107909206 2.580899089485052 9.589592656956496 -1.8884207645774702 3.5157562875390034 1.925874538548554
P 2.2132207846565417 3.831040708234805 2.7521058179689777 0.09588877817952518 1.404303379463575 -0.8141904667534559
P 8.719985234330753 6.672027877358602 3.5434177247508694 -0.0281720915588418 -1.7612583730956441 1.06277243369606
P 0.8667665937460023 8.136875078336896 0.7158218374849624 0.7559467526202143 -0.36454000506817863 -0.3017356681474481
P 3.272539895830437 4.182098627778699 7.828486389944417 0.0923699663929893 0.13201997668444362 0.16366254329038912
P 0.08272668747239321 3.938994067892973 5.886362246003372 -0.26771868777205504 0.3612788178184036 -0.14219743143807767
P 7.035776881016184 6.703974399437882 7.784033144327717 0.5328688434859854 -2.4745602944621385 0.022977177621463653
P 7.223368422937273 7.851730720378318 11.370010228775461 0.9511744723113943 0.7174511676481773 0.9056533479511436
P 3.4300285214349095 1.3914661049401684 3.019428653555144 0.48359802227531556 -0.8923864556389082 0.37742020346495647
Ni 2.4912234980698527 1.9143052503192834 1.0448468059369886 1.8535465784081042 0.15242476559304072 -0.1300610531858599
Ni 2.2129135170294316 8.228990188488547 3.6772150851910985 0.8474268602090825 -0.07968260073330793 0.6884923185219821
Ni 5.506682812551142 9.264770737197733 0.12538288302750794 -1.84273226140142 -0.36973723299840194 1.7470967368832815
Ni 5.622420285429443 4.41419741992974 8.829393925204599 0.335178521186926 0.7426970866991597 -1.100738114306556
Ni 3.0072561999514584 5.995089361413446 4.643766375284237 -1.820300671870781 3.654380656913842 -0.7481249425829503
Ni 5.257907768274193 2.100509432348268 1.4020407668828787 -2.5264083894816816 -1.880754249171148 -1.445070534078608
Ni 8.265582969535348 0.5043369786569531 11.076808010074414 0.5464933762479556 0.3897535282193288 0.45955255129033756
Ni 7.330260312610878 2.9101503186443143 10.168815411910394 -0.4037007344280402 -0.2620666316926003 -1.0783633461557816
Ni 1.7601127683510875 0.5552847445739445 10.894740767643164 -0.5551855047053148 0.2470573027679616 -0.2865463620015194
Ni 4.8798568532456486 2.881472006780664 6.080926900831828 -0.8018599702125608 0.7100088524375191 0.9937313718369981
Ni 3.1740094100703247 8.712685300401823 1.555272339180838 0.03601832707613797 0.44630494225181194 1.2735828383168453
Ni 6.565741211799003 5.860580629860754 2.6999112903771345 0.7769765767073199 0.21818278582545653 -0.37605957567200393
Ni 4.493733179650291 0.575636103742899 6.7067826393268675 1.9341442347565139 2.6713023939153158 0.4753517231061233
Ni 2.139830377478201 6.636701411381106 7.4139153207627535 0.8592521349787846 -2.2987567449338413 -0.20363265592542348
Ni 3.438231635964739 7.795314521812782 9.958824991086967 -0.4158394266731032 1.0131583702133582 -0.05991030320238714
Ni 0.639380169658012 3.44289651721269 1.134766349225833 0.12116863579223648 0.3171180641407893 0.5137251806779991
Ni 4.3441962677898305 4.953219327003342 12.568710591176801 0.16241324426432027 0.32004423664864884 -1.3899620231402383
Ni 0.8934169392707227 5.118724844333336 4.01860524784927 2.167312952467842 0.3373017381775159 -0.41397434843990644
Ni 8.541918988850089 5.96115956646827 10.805273745768792 -1.2461818205960733 -0.1405678662544547 -0.8512346639909468
Ni 7.0261026063323095 9.043845313305257 3.6127968927243854 0.7670060957581694 -0.5730204760042066 -1.8522489426426036
Ni 3.577293515082795 5.017633795013969 10.172672086187642 -0.8659634855606894 1.3014664521009909 -0.6404653970207422
Ni 8.779306508643517 3.365074007291785 11.947664987717074 0.6299423860022313 -1.0312280832308756 -1.3849239464956986
Ni 6.60879592415534 3.4077283406188568 2.374575395678478 0.5588444416141407 1.8743876835231716 -0.6917195672100281
Ni 4.952223035000287 3.3891898604498545 10.739206550369918 -0.2755289278450932 -1.7551718005819321 0.23097685226633125
P 8.048679958215956 1.8831967308593955 2.5790331369858714 0.7934468064482012 -0.8457258183575757 0.2902562067529388
P 0.8396795557451763 4.766484409982077 12.763901885741758 -0.555151823253902 1.5476058710403733 0.9781769690421669
P 6.149617044429398 3.8187500031503836 4.585984232449089 1.4745582591250799 0.3020236317015121 -1.2645646939786348
P 5.194498903406838 4.972037141378809 1.0622474647716604 0.5076329517373322 -0.05778914309432628 -0.047820461917388604
P 5.89716409976734 2.3686888928342573 8.061821701516072 1.3637036036643415 -0.370021339897724 0.14684187218862452
P 1.302889228070395 8.917670052245413 5.978308824517124 0.12460182984350154 0.4727348543085665 0.7549874740307384
P 6.616524170534181 0.2958437891801745 5.597480396362304 0.3397057196333182 0.3412134145270962 2.351572603183292
P 3.2797001626561335 6.672679657173685 11.771988911929721 -0.00959689965981573 1.0321693640982224 0.3312146514431715
Ni 7.715685650690075 9.172795294149312 0.25228068856807295 1.1023252562880177 0.6277577196460866 -1.734627143661361
Ni 1.006431834750021 3.5182329526960645 7.862528849686201 0.6789362994024307 0.26107341454139554 -1.3702072091108144
Ni 3.0264743933561906 8.652609823731606 7.65236151719868 -1.2830090167267516 -0.004417926562037554 0.5139959178408825
Ni 5.078584518864441 8.290201624265052 11.752242776874773 -0.20424560691907406 -0.2999376957067609 -0.1108112038173124
Ni 4.3861895101616035 3.500700075670333 3.301114854037695 -1.6312135178597005 0.3521483162720451 0.45653459039962024
Ni 7.463390995411679 2.682856074844457 5.838732970459174 -0.7996459932803777 -0.30495443219506185 -0.020496577291455022
Ni 6.0446898053412585 8.492439589745079 7.676223176228866 -0.25283457157137107 0.5815326272402759 0.1748008192953957
Ni 2.60805968549358 1.8458311251747115 7.490163316873223 0.6210283713420531 0.22324143129528648 -2.214098288252497
Ni 8.071333962360198 4.703382812741831 0.09301456629646687 -1.0177794139251375 1.2160320364855701 0.8597869244363322
Ni 6.069131548406869 3.580887615205967 12.741538389172241 1.8057739390095158 -1.2372454373383919 2.6237205303712945
Ni 1.1130630124975922 4.806606113170541 9.846544744570672 0.35737871143304906 0.16893047655754778 1.3283506780863445
Ni 1.218912054467064 7.504453123761905 11.115019998404685 0.619970362391184 -0.4337296766899627 -0.5369103605452108
Ni 5.999679753539673 1.2779819279940106 11.986026885404813 2.779584146442555 0.9791452464927073 0.9978284247245073
Ni 4.37622659013105 9.0001760656947 4.720436166046466 -0.2911995445028146 0.26987070111805134 -1.2649943253168858
Ni 6.143965182318608 0.41027490908624575 9.765132790096702 -0.7161100802392506 0.3172569037114988 -0.26687459460420493
Ni 8.275741423510427 4.233449566067021 3.7026987448468205 -0.9141840111299739 -1.0663254411546408 0.5289142297136118
Ni 7.91276524449073 1.285207372801216 7.979496324186965 -0.7903362858436775 -0.4495211351962646 0.08957157771224575
Ni 8.291588984157158 8.09916496046424 9.213534325934063 -0.5807173304278321 -0.06570942638266748 0.08019270760050705
Ni 5.020613359882921 5.429176881397563 5.1999300914945215 0.44219529095881266 -0.8964472559718433 0.41617135609122524
Ni 2.7804647577232373 1.7983815546366724 5.175495797341084 -0.1033560330908478 -1.5798629313018662 -1.4064757045245455
Ni 6.493309852062857 6.814050699065178 0.043202759485762854 0.2873475177465761 0.07724776603957019 0.1916081206607216
Ni 9.3035702584756 5.803531273760565 7.9760214066585515 -1.768898149029089 0.48615935524458853 1.2877236485936017
Ni 0.5219797271372271 6.467732149890957 5.913808694016516 -0.5812703747178248 0.5462236675263368 -2.5130851900102136
Ni 7.896191414907192 3.756635386772978 7.7454794371515385 0.006949691844955773 0.6140804792693102 1.4263122796344985
P 5.812618946610864 8.038772905026695 1.9206200656134156 0.6703120480685294 0.25258260346156497 -0.7142848541050536
P 0.2289050710571336 2.808509912052235 9.720569673025457 -0.6726190989351513 -0.8906159940020468 0.293899717042797
P 6.593963277792096 4.850945762876612 11.141131228910929 0.32383301426711975 -0.10165139169491526 -0.9942749030452941
P 4.09094256506924 7.178740127884522 6.075530163962941 0.08715191252715958 1.2605321757804742 0.8160236633074527
P 1.0598312238857457 7.646382834066326 8.934000861069327 0.5840625927509813 0.3221342864084581 0.5785473193597068
P 4.002244643376666 2.3117698926970847 13.148205231424992 1.0406434630075045 0.013586994655815308 -1.027194022370818
P 0.777134764689816 1.3263812348340276 12.666940327107953 -0.7182836908518017 0.4288666921707065 0.3874698743914746
P 3.705684827513922 0.9051210425215696 9.11984283974393 1.2699514122118452 -2.9534871365140294 -1.6172462570463308
