# total energy = -381166.41915258754 ev
CRYSTAL
PRIMVEC
9.25967516241762 0.00000000000000 0.00000000000000

0.00000000000000 9.25967516241762 0.00000000000000

0.00000000000000 0.00000000000000 13.55247058250264

PRIMCOORD
 96 1
Ni 4.83463377691484 7.968533771095683 11.449980854152116 -0.6071570126765995 -0.27193015475024135 -0.5776016676169858
Ni 3.5199265888441142 4.906035131503543 6.322945983336792 -0.49906140801823734 0.18783656943343133 0.9910553676667317
Ni 2.0262113620094384 2.3366790079703588 2.335199311891604 0.2938709206873907 1.5697764936001415 0.9163918174145702
Ni 0.4224698978995253 3.2879346892376575 9.71046662619014 0.8071579853867067 1.2399216986189743 0.9594886486040443
Ni 3.9097681696428466 0.6417093729774432 3.6013246886557417 -1.844537947151591 1.3463388871336492 -0.7970149834154339
Ni 5.835113890939699 2.4228125056210037 7.091302710368972 -1.7508361493210556 0.9436676224113877 -1.4574383116153415
Ni 3.0723046355082904 6.133164312610196 9.885117987826094 -0.8146951743040163 0.07619875594976554 0.8401208134659726
Ni 5.892885003801705 8.181969281829652 9.128008988120966 -0.4190332510200525 -0.7832197294035543 -0.1864252909082015
Ni 0.720914781728689 6.014927521436138 9.643259904415427 0.39622165244217566 -0.1940925776454722 0.6514807742946394
Ni 3.5594746611367296 5.63867914366376 12.661612117067207 -0.5663137534079924 0.9572970402693642 -0.29581878844238085
Ni 2.2933900269429706 5.0814596760091835 2.593522949540325 -0.8282639141273864 0.37666301358395776 -0.4750881850320915
Ni 2.9363726052447485 0.7474483806878293 1.204875403972295 0.7064003091506543 -1.149337363371498 0.9166188458237118
Ni 4.960657954836283 1.8750564259043936 10.82072574416544 0.3398363316739115 -0.44141470403904626 0.4615009332659601
Ni 5.064125564248056 1.8375732611559725 1.3291032049270415 0.30609677332962126 0.184760758721585 0.7140912500370088
Ni 6.582091880133156 3.8652198728037526 0.8568357003821278 -0.2617856101170717 -0.4942871265580454 -0.08008317860583627
Ni 7.3607842564964105 1.9220492769662108 12.935697573647442 0.6379117773609531 1.8111136060548745 -1.035609757238339
Ni 7.5097076109057115 0.7509327964227184 1.225754119356371 -0.3356875996128606 -1.3947545594328754 0.3501333427245454
Ni 6.929200060409664 0.2865887958489566 10.869541825251703 0.26992597983601896 0.5717917458034282 0.09931554447288701
Ni 2.2099881334427165 2.4351741718609103 12.385033955953805 0.3734159674015698 0.1471432054791272 2.403049430906345
Ni 4.54597266578162 0.32637854566131813 6.837032032505426 0.05900656044119514 -0.28685232327771243 0.45978240791295655
Ni -0.08255000339233504 1.4202860034021219 2.6261031163306705 1.0401485256489569 -2.906182695001111 0.03605895050608629
Ni 7.925004038516057 5.700135607210022 -0.04646227167938525 1.8208115500689288 -1.6933707081147351 1.1317795569933926
Ni 1.8557037049745022 6.944450745276426 0.803698128933193 0.1188649273597243 -0.42248701389660787 -1.1564341223172794
Ni 8.520503002976456 7.451038309560357 6.1556273584014995 0.4629476930148156 -1.1613055914769679 -0.6474045473427367
P 5.447679825663346 3.940649186054898 2.88517215782382 -0.5517638806182755 -0.26361392157506214 -1.6140976841150205
Ni 0.15814969466506418 6.39665762685947 11.99220150010227 1.171873339690485 1.8803580421739938 -0.6388065212610805
P 3.952881216843599 7.05484459165258 6.0697179448879375 0.7022356362500034 -0.1345342584658651 1.023192614520909
Ni 1.5125308866095748 4.717045162996807 0.14672140367383368 -0.12720095802924544 -1.1336042689069574 0.5274242754316465
P 4.936397606110774 2.6336090089554407 12.832753135878033 0.4691566500390049 0.31452536371294865 1.4826505492149111
P 0.1628258305835307 5.7362946384211355 1.897386132374457 2.0589496959703895 0.8149795383136546 -0.4868658943933099
P 0.1624535916450706 7.6672609824952325 8.0032084763905 0.9146804911504184 -0.2130138400300073 -0.893161643242036
Ni 1.32226308294096 8.338217039232036 2.430459145307082 1.1561849824209507 0.8632800251912552 2.516368745857492
Ni 7.0679562915744585 7.202397514149142 11.164131906342535 0.6130872621181054 -0.5353849250396199 0.5760754607804466
Ni 1.8723618604543464 6.7103013413749135 6.813775432559246 -1.216938864570556 -0.5981350116836472 0.46770269120129776
Ni 3.5883092893547586 7.256585132752838 2.3792855509439033 -2.0056918650875133 0.9242434522485051 -0.2746429256957141
Ni 6.223325768923283 4.835569004098533 4.638536081812034 0.9973741107959081 -1.59984888750549 1.9164977253193445
Ni 5.374537652158461 5.965416038750909 1.6203468394417668 1.273474337763439 0.4573701989270381 0.9795422248208098
Ni 4.059950839863854 4.25207983822477 1.1204595760501164 -1.056682004527606 -1.7658634759678233 -0.5079962486140219
Ni 6.809352085770629 0.3145557925114209 5.51698015997502 -0.35579362633411626 0.7813790766503897 -2.9719805673325266
Ni 8.890047375986518 1.2922709953371716 8.84308230394996 0.00881322741625579 -2.9025684952872917 1.408318157049923
Ni 6.298847678925289 1.1752472215993894 8.778030308567775 -1.02550635025575 0.8163946734936263 2.0773215136093577
Ni 8.60190480665812 9.09526955491914 12.494754623951204 -3.138266664288692 -3.15449803854589 0.6216708900220583
Ni 0.9626728606484263 6.382712556179846 4.354720558651356 -0.34137025181993463 -0.16111329450597411 -0.8643686302697435
Ni 9.253952606869161 8.807914057973056 4.502225330837471 -0.27639796071360784 0.18177956460607403 -1.1684871968270716
Ni 7.532810500245462 9.25256365560625 7.473943967820775 1.54421175775716 -1.3756358363255534 1.0767538355768165
Ni 4.526055104671478 6.061809256396922 4.0469298847578195 -1.5664446010134314 -0.3206913833143445 0.041607905348773504
Ni 7.404684376079479 2.6523505913296512 3.369578170439066 -1.7437895268869192 0.0822894422285357 -0.08707786475611456
Ni 5.322544576550164 5.823567076107366 10.115604264263556 1.85300099031728 1.364862142748817 0.8146468375645841
Ni 5.78996371522001 5.844558759527493 12.875334677728846 -1.6358291622548409 -0.06600536035653148 -0.9759539932489191
Ni 2.43767428413415 8.05739887289672 4.92483227192827 0.18790598921878604 1.2651588759192083 -1.334368345035334
Ni 2.533410064849052 2.0390545313538206 10.2856609751218 -0.18229609923117637 -0.8350999632126134 -2.1843480535732573
Ni 9.033470483394693 3.553724402908278 1.937556454832856 0.8711221469434933 0.7971448241250787 -1.8538165442400396
Ni 7.482548983878262 2.828154782513821 5.719318876085839 1.0500968951109204 0.18926507434984177 -0.7223583751418076
Ni 8.39990499465545 7.7132352692975825 2.086795564162593 -0.8524559379925577 -0.027913181470500318 0.06277271235184673
Ni 7.922068721513773 3.1155843568605928 8.222229423136385 -1.5076771531662359 1.1756587748748462 -1.2298668854861334
Ni 1.405970545719054 2.167088058768943 7.784064375965967 0.4017204707732178 0.784864464095829 0.2713331445961908
P 0.4866820407514027 2.4470728543465134 0.15298186999952718 -0.6121896900045005 -0.6014087973389127 0.5104580798909532
Ni 3.0119778523225293 -0.0653696022376364 12.725661289637571 -0.18008777872594792 -0.7296286835509757 -1.471928791922033
P 6.988962003415175 4.777899747662474 6.756461747646493 0.4916476320526695 0.10850595272290346 0.844900751353119
Ni 0.010270831605471455 4.989224052476817 7.76700249865237 -0.04917671883496692 -0.053619842207985075 -1.2522290552314175
P 4.4379492962275 7.586312902892789 0.07181155819501693 -0.1034107975881832 0.21659410118209793 0.6948383153446678
P 3.9623909031569955 0.5229864488613666 9.441287871438018 0.11205921729180056 -0.8010750124174204 -1.3087519300188104
P 2.1787645090524808 4.4593947037268435 11.51182066824694 -1.863766970584532 0.16511264547335436 0.24247996780992434
Ni 5.7659348583716525 3.6553956353533525 9.167961708214841 1.5596358056217139 -0.7474901372124289 0.021159407686434525
Ni 9.001283852795506 8.140365561667927 9.935709148626358 -3.791627429214863 0.09985007682011834 2.827981821019652
Ni 0.8195469888105145 -0.08858453364592839 0.42107909470159727 0.8067036714581074 1.3687115984018945 0.5731546875892258
Ni 1.6306936003829442 8.808052953099347 9.304922488380447 2.9396988244806854 1.81763495211316 0.06770563087708986
Ni 3.336510944739193 2.2038211898353923 5.751641623908791 -1.4341687995644397 -1.4540467694352894 0.9523304402927081
Ni 1.8738156294428596 0.034434879710085874 6.965482245299421 0.1694534389405533 -0.31833239616386466 -0.5615556698977168
Ni 1.334448815354231 3.916018450325945 6.213482734306788 0.8572739282064914 -0.10794288113058184 -0.43267809549699676
Ni -0.03982215867516276 1.3352821861119777 6.072482883868638 0.16746623330719546 0.1462183796720127 0.2557278339587661
Ni 9.159142793662866 4.0830166905032605 12.008803171564091 -0.19970195341244965 -1.4559727828134086 -0.3732485885857701
Ni 0.4066312236647986 3.0588225485829694 4.184596252164982 1.6765592929843514 -0.9539198962670152 0.3294971545314325
Ni 5.063801475620044 5.400233250522311 7.847151468294887 1.0310565906500178 0.8089821830796389 -0.367925890821276
Ni 4.964491460321918 8.267991663379263 4.561246499836096 0.5572087057829307 0.15636703807024038 0.9178979696464513
Ni 3.9873086888136164 4.055413599071678 10.449754455224614 -1.1342897250097561 -0.7669757567408662 0.6690527217401318
Ni 7.702660720349288 5.175232405605838 10.02660582314128 0.6691956750758992 -1.4556632219927899 1.326452432622367
Ni 5.152907328973319 2.5465958421716186 4.49734640803462 1.1074517788813054 -0.6034569381171929 -0.1232129199157749
Ni 0.37004069159467506 1.13898633396233 11.27921948201982 1.5295664970401592 1.9306341647207268 -1.668336647964243
Ni 3.6644052992121012 2.693380211636038 8.132959673534087 0.5392917162931938 0.12616248946240208 0.39705237587358716
Ni 6.3997781373634774 4.108943780744263 11.780661444858422 0.2611094099856535 -2.154430440078219 -1.061884374664152
Ni 8.684788158353552 4.810799373243289 5.026814629456236 -1.4448337354774536 1.6599548516584508 1.0073458772966393
Ni 5.738702153943513 0.26573971142515607 13.158663141979995 -1.4089156814246058 0.06334581124649735 -0.6074156656546248
Ni 3.2546646766534 3.993984914550675 4.3962316820622185 -0.5889217206154954 -0.4450805829264077 -2.205886956086298
Ni 3.5408349351884656 7.743079202099994 8.323290442993287 1.188104971057999 0.561628175006865 -0.822488702206506
Ni 7.5029665674430515 6.433455575651522 8.276818911638816 -0.6632152891227482 1.1825351902797054 -0.35716196743655265
Ni 7.59180389021883 5.247420832576859 2.716877563134455 -0.9536100783360804 0.17499159514996313 0.35096997969322785
Ni 6.19105580124832 7.4023046395823595 6.565440206425873 -1.7489178492524202 -0.14112605275076986 0.14646983356118645
P 1.7038172545376575 1.0319722689925919 4.6057660916824235 0.15471227607563678 0.29981916785102564 -0.3823037568095029
Ni 6.811537369090942 7.525263865050314 0.19322256598858042 0.5405111905225917 2.9671170685926382 0.6942438762937786
P 1.8427957179045173 7.900086252859436 11.334730308193317 -0.5876649653902589 -0.4232994824955742 -0.18348651999485174
Ni 5.545786083200282 8.286890660229936 2.2229979769386485 0.5626851555164697 1.2061592574565487 -1.02408247332503
P 2.2430081347996507 4.392623186681176 8.605330886439965 -0.30161019831317737 -0.09317549301342018 -0.9105466714877029
P 7.779006741433955 2.4294424329826314 10.86475827710224 0.2855852836398307 0.4525205841442207 -1.4217102620861128
P 7.065539516376993 0.08297039264124273 3.1945480880920925 1.2149323756634882 0.5170832985169547 1.9168399391501114
Ni 6.925718422577301 6.9553771618779905 4.305755396796205 1.2491709851313841 1.4574118292527805 -0.48735466110427034
