# total energy = -340865.09485276806 ev
CRYSTAL
PRIMVEC
9.33614095026320 0.00000000000000 0.00000000000000

0.00000000000000 9.33614095026320 0.00000000000000

0.00000000000000 0.00000000000000 13.66438599229980

PRIMCOORD
 96 1
Ni 8.843323142438603 2.916236897651557 1.8801101395879467 -0.21189103927947378 -1.6674056515095412 1.5964228925430763
Ni 9.084615697886818 2.1886621196041647 4.983059580754818 -0.3397486570561116 -1.571150748239849 0.44692123567957226
Ni 0.41728347502556395 8.11742886971064 9.680465933698791 0.20548513575313 0.11652393793137351 -1.0822886493521169
Ni 8.528377773296018 6.025069041050501 3.1191420435336497 0.4732878985985591 -1.8167744038850777 -0.6103433808243811
Ni 3.9652643348839947 6.0003469405735474 5.7254732207727805 -0.28913494866430206 0.5881385625925677 0.5011961949730529
Ni 7.363470158148191 3.452486145081798 8.716661589285 0.7940613001037485 1.8145830526607136 1.3639280609703222
Ni 1.255449507302472 1.9007915583857367 3.2834011687532416 1.0240634471616363 0.20259418735858012 -1.5607046132058604
Ni 6.992713340119191 6.551711399737998 5.064540748395534 -0.04209101563277912 -1.8629601584125206 1.398000577173999
Ni 1.655157697528993 4.4801805008981335 1.9050889839331469 0.9775758451230582 -0.07285657895041 0.12334533172858111
Ni 2.10033289278677 2.978714350971714 10.278173127888735 -0.339623444332157 0.564099519365493 -0.3041872150117342
Ni 8.017308097235244 4.555653862021885 12.759707179264765 0.9701816095415161 1.3986340969929396 2.0532127934866122
Ni 9.045226520427502 0.024033093295987445 3.1654642390496828 -0.8137330675010631 1.400268547272569 0.8835050939888783
Ni 4.113849013543633 8.752641208174005 1.721985792398342 2.034201542491432 0.3245958605750732 -0.03111677600946254
Ni 1.6273826790550738 6.809696974692556 4.096158894214429 -0.5667793801905013 -0.459771352169363 1.2025399155364065
Ni 5.881133760441288 1.0515668674929104 12.442475389273687 0.7548069825888162 -0.6186292749822572 -0.9770515971884722
Ni 4.031793673252111 8.89114285491706 11.465758228708209 -0.13772936836439506 1.1888732166825913 -1.1960941599110626
Ni 1.1262466566602647 5.3161198636267954 9.499275717385936 -0.5026103017117601 0.7431403448841652 0.3906513574432498
Ni 2.890954628734793 6.63448562286061 2.2322553612042557 0.8955375996733802 -0.24012817974829614 -1.094576208470218
Ni 7.187026435748662 4.092123814219663 3.4114780808314307 1.0870629308123085 -0.390060003716154 0.2840508492731753
Ni 5.283994203603685 5.231702479747408 12.941443559806432 -0.08603528242421311 -2.360422340264438 -2.9872220668726297
Ni 7.877602088346595 2.1636225903446515 7.014612191659501 -0.4038434306534916 -3.9079508210996567 0.8281482144851287
Ni 3.216179088747893 7.857930839968596 9.699910313858666 -0.9919408555954788 0.48340364687632237 -2.9998068455161753
Ni 6.4215936073107684 2.1529140370036144 4.929618577982866 -0.8913433590863746 0.672504427734158 2.468403273721807
Ni 0.22962237961883736 7.7147517867531255 1.89512732184519 0.6338643467644567 -1.591621614499691 -1.0962749363288797
P 4.003355788791084 7.337440997978347 4.03645987635573 -0.2423275013924601 1.8591870645233335 -0.7521636314286981
P 1.702631972802902 5.143009143444138 5.742580764924583 1.2987403114190794 -0.21573406717464783 0.5991868499869294
P 2.8688186392216295 0.9162441766457773 10.037051423814662 -0.8867308000150277 0.3259328342189419 0.35033106055764823
P 5.42988073761157 2.9770805263556013 9.3132213717874 -1.4516157913962935 -1.0923334351826284 1.619199781228276
P 7.847502370847464 5.531803385235024 8.183518475853507 0.8313566941200973 -1.6223666089920319 1.1136237120199726
P 0.7666259872146896 2.175992976723792 7.102624923308403 0.21805397355707606 -0.09364086268561292 -0.4312912424517992
P 5.8667374315381675 3.872789861612005 1.653581756984994 0.15943205014880932 0.4622174997170104 -0.7283284766823135
P 4.366597013585965 7.177298177177293 7.962647794492637 -0.9040903743393978 0.516834158620626 -0.4067456919019511
Ni 8.987631868674358 9.214714818032721 0.051339437508598776 1.8736132672509926 0.3291256301246267 0.2717617474931771
Ni 7.177979715445729 2.4792775061776617 0.12872110578397067 0.35934303424827146 0.3388045479752875 0.350984377870931
Ni 7.042204221776416 1.3573534826445988 9.841117574166004 0.12138100891335869 0.19073445980651668 0.15026838137167023
Ni 5.648159706324253 8.089551153689424 6.156269825794698 -1.1855878610630999 -2.2032379484992246 0.010071525303389107
Ni 4.5217449991320455 0.6189823915339325 8.534556431187124 0.20764460529829398 0.19419645021318813 1.0300685157051357
Ni 1.0261072119035397 8.985755304400993 5.253478094230961 -2.237064667240683 0.258956882419025 0.3598621399765351
Ni 2.0589644535067917 0.629127041978894 7.885470587697794 0.8075511070600672 0.49672864612000256 0.6193831224291463
Ni 2.6709764824213535 6.6326464031498995 11.578789950107165 -1.5639660575659515 -0.23867524935185347 0.8247325039353602
Ni 3.208495444981831 1.9141702479565355 1.719156941777301 -0.5729220027531294 -0.6551895906047942 0.2984829655381053
Ni 3.0418920148416335 2.8218298432622224 7.913319361682955 0.08545781265418831 0.29599310923671607 0.11844095244842827
Ni 7.7825881848141325 3.9965217338254 6.110589956756315 -1.4656979805209724 4.0608075320237935 -2.208912373176183
Ni 4.742180616337996 6.35220740989962 10.78595554882189 1.2343943410428417 -0.06572973809764164 -0.7418671345986966
Ni 2.2635566400067795 6.343048655908724 7.528489245217791 -0.19243910120244923 0.48805862914983045 0.2081354288917835
Ni 0.6551188575860842 6.165559285754883 13.507900823967503 0.7431660559157781 -0.027295088270527186 0.36748648929101224
Ni 9.22478851380864 6.60577699032034 11.292138688859389 -1.6324515040318595 -1.446946153834766 0.0763890175837007
Ni 4.414482079049068 7.4809654883983665 13.10866877691482 -0.08275429768009619 -0.8508901361673347 1.8373355158658806
Ni 4.951198133512484 3.4970662167500213 3.7055216982565664 -0.8034414557670679 -1.8838909950279168 -1.218951009904578
Ni 5.449701364240187 3.3028744909491747 7.20029775970183 -0.2592512737309922 -0.5624532420113216 -0.8841072463492516
Ni 7.6265719381863475 8.640308763710747 12.026476567203424 0.4470533903820624 1.617244714384434 -4.092922924501099
Ni 7.288566301604913 6.875115312321716 13.20848705843272 0.26361957800201696 -2.08216547196522 1.7476736924326741
Ni 0.5301648845598368 3.120287587993062 13.409490432461658 0.19928054960431485 -0.24822792603729507 -0.5329452052498758
Ni 4.777153799263476 0.8377263000516572 6.118132624798358 -1.4283172258796692 3.2543828252586855 0.35144177712332375
Ni 4.727858976560183 2.7594364152080373 0.0964096565616558 -0.19876684319268995 0.33518752004799046 -0.055068915949685805
Ni 6.847405646832442 7.6056963276627565 3.0782441457431124 -0.8461209969134654 1.9298844310388954 -1.8301006886803384
P 6.820442872596248 5.798284848193369 11.420228671534508 0.18088122116152075 0.12806973378744396 -1.3583685646046735
P 3.5151503212152253 5.2842462794016 0.6235309592651908 -0.7536823820660696 -0.020868358808576966 -0.2827439575362937
P 8.30954797228419 2.141262533455564 11.909482587706878 0.24732289772452248 -0.6595504386766512 -0.28527803681205705
P 4.0833011612926535 0.4222288287350211 13.361760346933568 -1.0130683816027133 1.222179544144205 2.4334804937026933
P 9.018319763035288 4.871290105573569 1.2694527846836592 -0.7972623235395495 1.1362854152835462 -0.7903483700285356
P 1.1267881528187478 1.230297944354997 0.8798864440599005 0.6008786358670554 1.191085908063194 1.303210431375291
P 3.7351284675286647 1.5968161545227675 3.9186312458838675 -0.5838347930108914 0.5763328282068912 -0.7610424219755667
P 3.117318695262068 5.04270164815547 9.918062311058325 0.4636074380860015 -0.40405323267145254 0.7412061039759299
Ni 7.764793500709498 0.033950875522825864 5.476671607388911 -0.37493806047305106 -0.025738028196052448 -0.8242684198147483
Ni 7.794006284845596 7.329523950695697 7.369941037242064 -1.2459769036741186 1.676443079121461 -1.2487495813232494
Ni 2.107409687409705 8.514130822643514 0.5974233755137732 -0.4199511348486316 -0.11453493252580274 -2.129943767790764
Ni 2.2978482846638233 1.7861810956005832 12.423099162940657 -0.006076802321699212 -0.8751235547934025 1.6858957398939287
Ni 5.773357352621818 1.7134618959725645 2.304416259620597 -0.20010535949845537 -0.4995031235413462 -0.8838964158900261
Ni 3.062926339756504 4.055078008066886 4.641518347704115 -1.4911441885082188 -0.701571006082811 -0.3524349942745285
Ni 9.215676440521062 3.8551538918986497 10.903756170871763 0.24559743039298346 -0.2594083681341468 -0.5920227281383224
Ni 5.817778709898761 5.805716416161517 7.335397316787105 0.8084597349172657 -0.7566975147433097 0.030416407508328264
Ni 9.380393970247232 6.2619456019648805 6.087920873611265 -0.39694696064397444 0.2618537443508458 0.3446710340583935
Ni 0.6048530762537883 0.5901309160415116 11.163597770590226 -0.24187678700828663 0.6158434847070039 0.4413630248655044
Ni 6.695628008065885 3.5544834818305597 11.254739042975466 -1.7828576965329748 -0.8495086824387758 -1.0054473747223456
Ni 0.3136327077652959 4.2313443437938085 4.386554881482334 0.6899503911247472 0.850535066820761 -1.0025086038089959
Ni 5.354855511239667 5.699377774004226 3.46513754929491 -0.4437222691263003 1.5860063251954426 -0.00617193313866679
Ni 3.1129027007282315 8.731336135179893 5.791404112524368 0.7978621619070776 -2.0022969804733517 0.1692094412505473
Ni 8.45552786769871 0.05402917963375376 7.797950804275926 0.5400571337043086 0.9860777119464825 1.4990055935341668
Ni 5.695531284050864 6.132117229898219 1.1130294823229445 0.08013614333095877 0.8520584454438228 3.5229358360065777
Ni 4.134808649333195 2.540326529976303 11.448815000632084 1.936151752104846 0.22581407711846918 -1.918193367854213
Ni 2.2068769300386575 1.812144902785783 5.424378016304503 0.4584004399637654 0.003314151974897518 1.0936873781073617
Ni 0.018306304612995174 1.9079523782746428 9.161765829873735 0.5098947511883153 0.45478212648488775 0.24524158971546153
Ni 2.1156441634749137 8.924370179538466 2.872704340965779 0.10392296133791133 0.6203429152392542 1.4516296753533646
Ni 2.856420244420498 4.391953971628037 12.351087642774932 -0.3562615671094703 -0.5058205811189417 0.3500284417155649
Ni 5.211667121883533 9.398692805947695 4.032401456009305 0.2500459530826403 -1.5435648682017802 -1.2224513097483527
Ni 7.095728316200274 7.340605949663273 9.680369771449957 0.4257777688327377 -0.8357388823481928 0.8440882827541528
Ni 0.1666482436153821 4.13063539445661 7.73054386868544 1.1474504307614302 0.6855581755943225 0.03243420926930543
P 1.1703505851546492 8.021864133879031 12.163489099510649 -0.33166896537177076 1.0826460326915355 0.6032867310879159
P 8.721187750278666 7.594184866224658 4.482341817461734 0.9780723251435026 1.4547628216657076 -0.13378966699035666
P 7.580208663651395 1.5693679009720711 3.455148812399029 1.7859263081559695 -0.6734413377261305 -1.9020514679870273
P 6.947442394041867 8.805866546096631 0.3565640169923445 -1.7299657336299499 0.7852339316201058 1.700463867516091
P 5.971741005580577 9.02037371398126 10.511478614999325 -0.4616048058336759 -0.6884797201164917 0.21157967868664204
P 5.642511341222835 4.576613497811447 5.4259502223922365 0.684125556912854 -0.1059775298740949 -0.09045089499340551
P 0.9453589313049089 8.273407771775773 7.549053962257288 -0.21815244680815335 -2.646056731974649 -1.099356403467681
P 6.3066563796023924 0.26428560267428847 7.349102771281127 2.784408821524708 1.1695791443396697 1.1635707333620606
