# total energy = -340859.0525165444 ev
CRYSTAL
PRIMVEC
9.37846275384082 0.00000000000000 0.00000000000000
0.00000000000000 9.37846275384082 0.00000000000000
0.00000000000000 0.00000000000000 13.72632822978589
PRIMCOORD
 96 1
Ni 3.9915487396680676 7.509119354502757 6.839897580285364 -0.4877930341932695 0.14298521744669568 -2.0841004842044044
Ni 1.9517518660653033 8.90569436594566 9.990035033285192 -0.20615207991316756 0.8009495425831497 -0.13024514417220795
Ni 3.2835779712407764 2.9096680430866386 7.696763635586005 0.2526340255247907 -1.0781792551694334 1.094671853507818
Ni 5.58621563960759 2.6480652053949103 3.9614457501928078 -0.9935866187290178 1.0783137238647689 -0.9698597074257232
Ni 4.831587019401552 5.292866705780975 5.817725804132994 0.43460539442669666 -0.5890042530269728 0.36856583839812007
Ni 9.127166761876332 6.912930482628405 12.11338838219199 -0.23532587326364635 -0.03970708878163484 0.37263512337148724
Ni 2.7938346506606497 0.2820572647730239 12.195884153368148 -0.9497017444206095 0.7248474601122484 0.38046001873254476
Ni 7.860614756877759 0.9626991929825736 7.192870090530747 -0.6029661145237035 -0.8338457790905381 0.03005902416890952
Ni 1.433713723612518 6.667514871503535 10.058585030472406 0.6235799341193132 -1.3970577536447553 -0.029796514536142234
Ni 2.3705002242403825 4.214699880416508 6.015000828531134 -0.5377917347088996 -0.5550235252061538 0.5302100657068998
Ni 8.94269240117524 2.5960897652827875 8.683398540992641 -1.2570755846904413 0.6993146059484666 0.43157097847574705
Ni 5.387739234141538 5.620128160619036 12.593604122546584 0.16960744801991434 -1.568765278726808 -0.8420959349144723
Ni 4.883159185618903 2.462878081530966 10.633882438905083 -1.1747514325692285 0.2364119072389735 -0.25420188423254286
Ni 7.300589237055436 7.682808483134391 8.132657699212723 -1.3277834927289647 -0.011615215641425158 -1.9344869628079138
Ni 3.840808709187708 0.6940193673607463 2.7644688083511806 2.238100564704365 -0.7167279163289076 0.5962164545046957
Ni 0.041655379791051134 7.748682804922113 8.166396718664792 2.1064127745483594 0.8126102667505297 1.5712978153406745
Ni 4.157069227314921 3.409708915677431 13.256009630096079 -0.03603889590142825 0.039506285624738416 -0.7838789602541081
Ni 3.835838123973088 7.300514209354083 9.00377151500025 0.07759640762824056 0.1551701895486618 1.148141286180868
Ni 0.7252402695861627 8.801931054974796 13.379010981540057 -0.5280261706817037 0.37039569251800725 0.4730732114845917
Ni 8.770119309601228 8.399960766514727 5.936486214758006 0.015424562085186338 1.3041154596880635 -0.0032588732569298713
Ni 8.445146199654426 6.190263663198643 9.869230117798317 -0.4730192183182047 -0.6227101299198501 -0.07837236656231664
Ni 3.493064691880345 4.126898712908443 3.5071183181899834 0.36487784802357154 -0.10503136391074168 1.523561171386344
Ni 3.6878553615174425 6.887421064168468 2.933110448374308 -3.1889369369500495 -0.20760449608897794 -1.8391856817007424
Ni 2.692490983058412 4.230343156148558 1.3291241700805068 0.6646718190636165 0.8694113348999736 -0.22733334197647298
P 1.0201516552934478 4.35535806352759 13.754741269298266 1.0716805348189673 -0.388312424897428 -1.6951077454104997
P 6.669934514872161 6.528938707104991 11.135099370714581 0.3964378822180399 0.66755788236216 0.3745251413053486
P 7.864066031139986 6.534453243154419 5.881401814271079 -0.9094704077043885 -0.6768935579407891 0.10057949878697517
P 4.430892201864479 7.855578522424454 0.009038962320473496 -2.313748590356983 0.6317850956379248 -0.01796635467043357
P 7.424835110495603 4.226216632574156 2.1452464321615317 0.05658638103547674 -0.1602666302349627 1.767822142356091
P 2.760203483529276 4.799475163222571 11.791547678776666 -0.21185247273205451 -1.1790120076177952 1.5095784839540065
P 1.0100135371481564 1.5520136517204788 0.007806632325754449 1.6061429480443177 -1.7122071240949481 1.8590626231303273
P 9.289029649082238 3.355454509136718 10.821164711329304 -0.4732534458161979 0.833705396857932 -1.112659034113858
Ni 0.49769062984591744 4.991602349461646 8.129431508054555 0.14818475936976416 -0.48199442523362146 0.9938265026539658
Ni 7.211287515520317 4.317937997477903 5.486715777766096 -1.4095813400330628 -0.3394043863428155 -0.6567862456679526
Ni 0.3105359045139969 2.7676968752018825 4.501837458417381 -0.07783731999445305 0.09756899409542552 -0.2635684130491074
Ni 5.774197545346924 5.353789199279415 3.492279714554942 0.7350601389791921 -0.3013903689928874 0.47166424695220704
Ni 6.977885715074557 1.0784481792445406 4.640391114505518 0.990819854617158 -1.2514307276998384 1.1322888925296435
Ni 6.242239103310766 3.6679823991216307 0.6069262737841983 -0.10735101318285382 0.9596264597334893 -0.8528053509121765
Ni 2.5465714823899672 1.898754173522249 4.819451288707743 -0.15059773968663095 -0.2522779277369526 -0.7136305083505065
Ni 5.475840512455013 1.5652654194719096 1.0035742846795561 0.5865182533803255 -2.2065117341544904 -0.539811850462722
Ni 2.0471871021860113 8.736797631737932 3.6989979130145936 -0.8920480984628831 0.2574610145997889 -1.688307177548899
Ni 9.05818816894514 6.959663362108505 2.3923614207220427 1.195232840352032 1.8780296511511334 -2.5539873275412144
Ni 9.488565820829898 1.4883901609733403 11.793097938655867 -1.566449743219754 -1.7619284025794753 -1.1388351782885935
Ni 0.02177960385643868 5.018462266545933 5.883722045935413 0.022696413156251233 -1.3401093612841695 0.13153943750359928
Ni 6.3267202950339705 7.403349052520706 -0.12702471192901968 2.361520458424623 -1.0075158272156004 0.916121594472319
Ni 1.4815063693742245 6.628491088337432 6.758377169226793 1.410260111267642 1.0692557274275585 0.8802847872793678
Ni 2.4937332237122876 0.04526796361118642 7.6957892133146855 0.004119678595328389 0.3335916363157803 0.5548890565108185
Ni 8.30068036069969 0.44298418140455403 1.0118320210596938 -0.3834257862290881 -1.6363444113283625 -0.9440566303196902
Ni 2.777441097915072 6.071504190419896 4.855331411187166 -0.34135919607634113 0.9858663672666246 0.4371875533315761
Ni 4.244363957838854 0.5267376044246376 5.688602192258631 0.30727125325369664 -0.7369696972970792 -1.0541949764396943
Ni 4.972198310199288 5.808785315670545 1.3293304962592267 1.2201452873229954 -1.7388689496568503 -0.445986896790761
Ni 5.1299065384427855 9.423666859159763 7.795154025293744 0.1001256990790082 0.6955109159316603 1.0538913291563463
Ni 6.218248995803221 8.214745507262776 5.896885656137754 0.49530888295434045 0.07208087712665005 -0.2847347627140774
Ni 0.6052662858917685 3.7232027873172604 2.1511079713297163 -1.17731816485514 -0.8093879031584901 0.7469111247805073
Ni 7.361877490597971 8.873488725139989 12.29272334535042 1.3657268047419575 0.8995791167326056 -1.6373589686358059
Ni 4.039153816176393 7.6626260314705 11.451298928834444 -0.6335979804769475 -1.251136336387871 0.2930561380955792
P 5.940215091515239 2.015272193723082 12.629278856693553 0.5667331003335981 1.767076522439318 -0.191950848712121
P 5.896051910806472 6.280775206418076 8.932161325444111 -0.7529442183484646 -0.3726394942468615 0.20725405472809466
P 6.44680213104906 1.9035371894834874 8.715957749840937 -0.030752450691508327 0.17709244354304987 0.5321934146855157
P 1.5407688749802342 5.263165114507952 3.31129789335182 0.35889489096725935 0.8526539129359767 -0.4212953075813518
P 0.4672115640176265 0.9395906609659241 2.9284296576561624 2.358823114098118 -1.5037500501976877 1.5163829084703497
P 4.557989127956051 7.303787292825597 4.740552157965183 1.8714982777905187 0.12421513592804415 0.07200888623813406
P 2.690906022867335 5.455855008507172 8.335313147644124 0.3627394615243302 -0.1196534846992907 -0.2976270452957132
P 4.194855053408704 2.85702673212501 1.9458031071942965 1.0125428481165464 0.3897414440344707 0.19608363993357197
Ni 7.146876233908973 1.5956610169824454 10.775579755679903 0.8873085268953687 0.078800969459303 -0.038602799973862546
Ni 3.3233989237337522 5.909294300095233 13.665534270236103 0.27279378830211726 0.7581854121427458 -3.5510613905982003
Ni 5.627115115307511 7.62316146055895 2.4731821984655005 2.57426073307827 2.325843316737988 0.19780499350005287
Ni 2.779279276598215 8.759690459113193 0.9196745576418345 0.12097066084881747 0.37461872946041935 0.9493070800853521
Ni 2.028055038341058 2.578589553942257 12.217845699400367 1.120727155833973 2.368629815775895 -0.6891497496003227
Ni 1.5972553556361917 6.380205667635818 1.039221821284785 -2.1552899598650366 1.0498652387160887 1.7619643980237334
Ni 5.705706632474525 2.17783846562917 6.698873637130188 1.188065118958999 0.3120913003501593 -0.03353309876043902
Ni 1.2308200622293226 2.116278236669232 6.8736375375837 -1.0656235299916101 -0.28421051477949116 -0.10544762551255388
Ni 1.9507952628730556 3.984083483383469 9.865579082281238 0.2696650128651485 2.4547975100129142 1.0616869139413652
Ni 2.218934889045143 2.1023605980682953 2.082929361264198 -2.219386019013997 -1.5163718527267562 -0.16111792249166446
Ni 8.687842056605259 2.7175127214595567 0.40237731373990776 -0.6489112137952503 0.7321257389412165 -0.6141334439944326
Ni 8.712451142648963 5.2459931493608405 3.4674764943339866 -1.6890939351162524 -2.4157532516262585 2.1512954939936626
Ni 6.231913415912092 8.78541558221452 9.756728893158657 0.010081809716034248 0.060643067603353626 2.2234902709903577
Ni 8.705361024871127 5.235995708155586 0.6550790525123982 -2.2879951355419625 1.6102754821554524 -0.46868613816048965
Ni 5.0672396508878945 4.267847628362268 8.148003677678162 -0.5179469320688305 1.0480749795848854 -0.38041451020659
Ni 7.422781227171072 5.126380236479206 7.856016496631101 0.458603557113507 0.3358652628413054 -1.4074018158832406
Ni 1.6465391769622846 1.9441271759153294 9.397017019639263 0.42326657237510973 -2.885773792327456 0.041933664119308434
Ni 7.956547051519928 8.511442552262256 3.3848025323671163 -0.28955712380338516 1.7436602003979067 0.8634939409742742
Ni 5.0021624984270465 0.29431491548153066 11.975246440615026 1.2264558029220556 0.0032588732569298713 0.03239718538378292
Ni 7.524181165549323 3.6686201345831293 12.312022345830883 0.05957580268110385 0.20843830484418296 -1.3678595348142444
Ni 6.6908860004749195 3.9120006193088064 9.708631447360204 1.14116382642177 -0.3321819004524473 1.3865784513799864
Ni 0.5603650201709437 6.879590047839773 4.643136190528762 0.11146812067502093 1.2850121631997093 -1.2172132012778651
Ni 8.200630920945787 1.9301345096130398 2.560783604718713 -3.5471049770536136 3.3552022079706085 1.7655019788633464
Ni 4.194245453335212 5.3168099209751745 10.44526936262812 1.1270137601736334 -0.2899541021314877 -1.587410404631821
P 6.234464357758086 0.40151824655941865 2.6549602511492285 0.614836126488412 -0.20741423445504278 1.023512973974805
P 4.24120341591937 3.105677912870718 5.589786020345715 -1.1408730346542288 0.6191095570527854 -0.38742590852741665
P 3.6897498109765996 0.9132625027149746 9.47613560640828 -0.060871895784708065 -0.05516198988412436 0.08629727783634816
P 2.226953474627219 8.893727447579895 5.7130762284399 -0.40616128015339087 -0.23564289028343285 0.637044030044019
P 1.8400825110643924 7.777258980674845 11.94900175068183 0.06711916224600054 -1.5061802569057352 -0.9243516956915951
P 8.381532087369957 7.763885292908715 0.4434033986858626 0.2677940210946807 -1.427404998478045 -0.17472111509739585
P 8.54787787973169 2.8142609423539375 6.338570920462639 0.18904961590492603 0.21413072724326992 0.3898556010148318
P 8.639627380023443 9.388122485643894 10.257135525793544 -0.2234471195481894 -0.7557320655062468 -0.04376094713603431
