# total energy = -340896.4998144303 ev
CRYSTAL
PRIMVEC
9.01771107041447 0.00000000000000 0.00000000000000
0.00000000000000 9.01771107041447 0.00000000000000
0.00000000000000 0.00000000000000 13.19833167576209
PRIMCOORD
 96 1
Ni 6.2680034561029325 1.8833308911101725 11.327322537327934 0.8577164150605485 0.2650167154598597 0.45383313230805716
Ni 4.657440285029823 0.38913857420138065 6.09285155504991 -0.16614700027513965 -0.6197230222670682 -0.24776281347541848
Ni 2.8336443214416254 1.5598024762804417 4.683955962231522 -0.09496215260019775 0.1871626832948583 0.9507432983112465
Ni 3.535763294004629 4.174136068044027 4.733501971362692 -1.3882591815165188 0.5740453177242952 0.19937645175223084
Ni 4.9861899544847015 4.491090571609971 2.5660067771493753 0.3228914762894568 -0.17018594623120367 -0.5341153142985768
Ni 7.24312460918703 6.159312986332808 2.6193276000734413 0.4929478389213317 -0.7346284507584122 -0.6261757198709473
Ni 5.336428829072095 4.408199772794159 11.60621689016694 -0.2554013038572827 0.5149032601465003 -0.5563224465232355
Ni 5.505754387096954 7.874959542806338 12.486571820919064 -0.2009165425458411 0.2702831060651216 -0.1503146612285734
Ni 2.0399775475755195 6.276146449067542 0.3755137147659139 -0.9463199724325702 0.5979326658648542 1.3780652717026525
Ni 2.5604257158583494 1.5826984443171415 0.3142086105895067 0.7708990030546724 -1.4165850250444054 0.5842729089895744
Ni 0.7918488033437748 0.015088433918474396 4.553872776835773 -1.359565413126252 -0.5855772296232947 0.9244607104656337
Ni 8.583895904828083 2.193089261358556 1.3640081331506904 0.8767032405756967 1.3025907955134213 0.4119079528291809
Ni 6.942555286370468 0.6566228174079186 4.903523696670904 -0.5436415086214572 0.4666652510757188 -0.5755941502686538
Ni 1.0298406229725154 7.230995787993898 2.697118883361583 -0.39944967246117014 2.136439659927753 -1.3330077172423818
Ni 7.769767944874828 3.8738102234224208 3.87497711521602 -1.0085054448223794 0.07236344136407537 -0.47592276511824483
Ni 7.670383752778541 3.6333078730723654 12.535180889885202 0.09523983174161663 0.8879605586570707 -0.0034604477447746857
Ni 7.9680764258102625 8.823234970468908 7.065133030963955 -0.40935227628686277 -0.190255206177253 -0.30338863036983876
Ni 6.884751759345952 0.8058803615419258 0.48978344228487875 -0.5565415045125769 -0.9870871270476034 -1.294658942260854
Ni 1.8679827471170793 6.483012737670101 9.054438257313866 0.08152119660394347 0.4750956412312592 0.2177675526649088
Ni 9.241801040729431 4.834629286980638 1.3187311083710656 -0.7902810071257099 -0.357816570301416 0.8635445917065515
Ni 6.2070798010986215 2.149299257110342 7.020720804661968 1.0982839963391084 -0.12919279164829364 0.009525165881615855
Ni 3.466074423981935 4.138849765197391 0.41543421925652724 -0.6713230058315471 0.8643100091176664 0.6827183921526823
Ni 5.926710150752407 5.4975753232886495 4.577313414612298 0.27777992866279905 0.33265266944127875 1.1174932222777076
Ni 5.072723908513915 2.9945112666195266 9.45345032320622 0.5684336279644726 -0.11444674368737064 -0.5176815942225859
P 0.11209645918621783 5.581863867297722 12.440905231027513 0.18331785562747138 -0.5559730336036167 0.07414367319294973
P 4.087232387866918 6.022802878361338 12.663838375183829 -0.5150187026784421 0.2585953853145482 -1.300547025610515
P 2.449471800646236 8.353908205415717 1.437957871585097 -0.5667464700700369 0.6034960188852446 -0.5105771219673207
P 6.228469811410971 7.791094831210706 5.904431895914019 0.3381815696793079 -0.06164785471878415 -0.1560219960259958
P 4.580383945182009 1.0284609132011036 12.580398397772727 0.32300589038013405 0.32278220440510214 0.4751938573720204
P 4.070594711211656 5.968399028355268 8.06848322632536 -0.4396450137331331 0.5806733645637742 0.5468317334239808
P 4.8355490934949135 0.9670863726505795 3.7046262434590727 0.4047307183544513 0.20077461765133808 1.4016129771156054
P 0.2685780915416509 5.598258065758029 3.571481545204536 -0.8699492096813147 -1.7223892068342723 1.0758333806450764
Ni 1.430136810900485 1.0172789516550194 2.638689527198923 0.2901754741136745 0.8744028745772942 -1.376290953411049
Ni 1.968584330188141 6.397651086061042 4.828833604169615 0.02495564150407315 -0.05954289256063938 -1.01315759888241
Ni 6.006255378815317 5.561835531334936 9.102361078478669 -0.7821437227305562 -0.08660555310538634 0.8402226291511594
Ni 8.638155471459365 2.46767855900232 10.079117142553333 0.11925496370929138 -0.2398409875251805 0.5468877834728968
Ni 2.302419988604303 5.201316466293885 6.986932343599852 0.09151327481964884 -0.312994528890719 -0.0760959118233141
Ni 0.37845348852722316 0.06853099594001794 9.226227453963231 0.5516849477512241 0.07700171146703512 -0.1811319037197461
Ni 1.4174038030754275 1.1151932568706509 11.342857347937159 0.05075229085220292 0.5963131279835601 0.3390588300779387
Ni 4.176670044813744 6.792960479847895 1.5911381199711578 0.4694561835572948 0.8477191946385206 0.03150295570428768
Ni 5.48803458513078 7.811222361993658 8.064761617026917 -0.4293037797081251 0.10298193758088071 -0.11055383639086766
Ni 5.41098726299389 2.900537701077798 4.711672798528332 0.4065196919340741 -1.0584228984781126 -0.2867178545823772
Ni 0.7887917993404503 7.372375459864471 6.625113826414615 -0.03188862117848056 0.4246212866307913 0.42582044914521505
Ni 4.82917357187146 4.25286068441283 6.882296236661276 0.5375317961792936 1.5015209037568527 0.409558735870714
Ni 8.006969813026602 7.139006118855505 9.019185319997648 -0.2546466850794453 0.6110702316880766 0.3217429645073104
Ni 4.46717560223883 0.46535446339105424 10.4687453784579 -0.20842982020375073 -0.8291738275361655 -0.2447175988911915
Ni 8.002226497080441 7.2789249215563485 4.692098955196131 0.5778657199116499 -0.19841537339054213 0.28530580472619893
Ni 6.955089904555192 6.060181290142403 6.950505300321298 0.7641647696546323 -0.6547306486905047 -0.6105508688494969
Ni 2.4132927444180985 5.178510675366428 2.5289187356600724 -0.1058165788161984 -0.8967480750417136 0.46352516278484046
Ni 2.1654680127975428 5.4970342606331934 11.432328370414405 0.2622916032192128 -0.8606772974610855 -0.3011923940494684
Ni 1.0982940665985848 3.3901994042651986 3.918875331995325 0.6480843470185806 -0.3206852126667574 -0.8578053752299292
Ni 3.661163582117409 2.453728160202487 2.624263895033382 0.08465665690913161 0.9635815877264953 -0.7155032998931872
Ni 1.277971956764496 3.175704132220714 8.167496790502659 -0.9970702064022442 0.7487908583017233 -0.023962681463184535
Ni 3.555746541412792 2.4166473328819236 7.046391522350063 -0.5855132091545786 -0.49162294946232105 -0.04576357938835989
Ni 4.026750600697896 6.710195928985022 5.881571998721015 1.2661675196893807 1.1841827531854574 1.0224580503477292
Ni 0.5488828143692116 7.200966810616107 11.099440473416383 0.26258805141370906 0.8475731559789595 0.07602186405226907
P 0.12610998196252024 5.749214546630167 7.849681095543448 0.3486840118725285 -1.0505848904909325 -0.0035591781061680636
P 8.5485915665596 1.7328974374716417 7.922786776235344 -1.0059222574762354 -0.4338266072791432 1.1264702289653374
P 1.8202069146403417 3.247990102989595 10.401512932890977 -0.7391381657033076 0.8030079677740751 0.2926756148277088
P 4.014234017935021 6.14769817466236 3.7344676524496387 -0.44591953388793526 -0.43661034067186744 -0.07401614647614996
P 6.982007771664113 3.947115195525743 10.308820784071585 -0.1294558155016932 0.15233246298955055 0.04175394400833454
P 6.2307512922748085 7.888296737263321 10.193256113263896 0.06936193553359023 -0.38870117569541446 0.6625902539442395
P 2.5302795082385434 8.592985757439738 5.741366432812782 0.6786902448298957 -1.353398879304224 0.3325963622820466
P 6.964702784400455 4.013494565639232 1.6098002727289171 0.2857989423125336 0.3907675713061399 -0.24808574403247594
Ni 5.350523511246716 2.8955238538039083 0.3495832870031998 0.6871417180313585 -0.65159827370911 0.26333521399237875
Ni 1.3902875463261732 0.8611003143866414 6.966026584364137 -0.4567611045881294 1.2088951683304727 0.28459592314336796
Ni 6.779821675031245 0.7314048905606346 9.097662851087128 0.509262259810639 0.16212862314436596 0.6282534283355825
Ni 2.627246953807128 1.6133045551940852 9.260543451114417 0.8526521131637638 -0.6508436549312726 0.09083964579139195
Ni 6.3806346655469595 2.1019111862033477 2.4612381098602123 0.16601895933770763 -0.23241307049222554 1.2462309286664537
Ni 4.030952853988602 7.00060229158994 10.358222509827968 0.6091563024948154 -0.23545777085582031 0.12538344520453246
Ni 7.95308899025414 7.19024475232716 0.3252309586522316 0.6837198368340032 0.01986305747251418 -0.2960908111568449
Ni 7.715436236556152 3.9467905579324687 8.176841844333472 0.1987172209016771 -0.4535765362125608 -0.9874244557823638
Ni 2.848045605787671 8.216288919000561 12.44846838517969 1.0242357110734424 0.4119249221100454 -0.42299197855748444
Ni 0.047854286561778675 4.9928720782795795 10.017718254183315 0.0544618784933062 -0.6121999744171456 0.3209875743985246
Ni 8.709756096198001 2.2927800556262676 5.850648464419538 -0.2994936661908068 0.6258301636060705 -0.5392850314249744
Ni 3.5856222177048704 2.842003739468416 11.62385012210824 -0.3269296509145724 -0.7479326240664861 -0.771352031431691
Ni 1.223360699407168 3.4224828093740554 12.691238689827196 -0.8595215865900875 0.23273625815959917 -0.9262136886009983
Ni 3.0130065917251874 8.52256645283218 8.091500933459537 0.758759539478661 -0.5339265953265385 -0.10670978005442912
Ni 5.660615536799297 7.8557788716704335 3.6876008052340667 -0.4051611210236506 0.18204798777611225 -0.21976144316648605
Ni 3.1857498621903413 8.327450241563934 3.5729595480250227 0.25712291453407976 -0.16966221251724975 0.07032327100559502
Ni 3.434746896231051 4.625932403060453 9.748564832684695 0.4123990335329865 -0.16027768597855624 -1.105994991830121
Ni 7.196791610458174 6.238290098607491 11.331348043484525 -0.01665817738197131 -0.6595229278728255 0.00398649545157378
Ni 0.4989544542948527 -0.08410458270621761 0.2863592139421098 0.7707833034124145 0.17084697685397027 0.17113699729056334
Ni 4.638178454495601 0.418667068622875 1.597552417751585 -0.4702635099499385 -0.9179133962654192 -0.7309628289813669
Ni 6.081408981658114 5.589393655919481 0.35747378406192865 -0.15823005942090812 0.07900871459473491 0.5862845401029645
Ni 7.99411957495953 8.867863621833079 11.36175756826332 -1.016892897555126 0.3663395201707626 -0.19922629932761174
Ni 0.190289932381582 4.850662777003976 5.718981768985488 -0.8215157967702755 0.3285309339634213 0.7982712244200381
Ni 8.12288346924706 8.811818548438794 2.4324788261805574 -0.32143031836289804 0.04181693603578605 0.6306370980764106
P 8.389095313442185 1.7290468749069818 3.6158676201448436 0.6572302751839068 -0.871885507472079 0.04963000432230163
P 1.8027396085800473 3.108323796194632 1.6680312392512435 -0.32693093646615307 0.546986256723974 0.28585756346461094
P 4.780667304809858 1.1518141809340772 8.356893067731647 -0.8575022421672134 -0.8661370350240761 -0.6190015707200113
P 8.605204755742113 1.669259451479128 12.393602828374298 -0.6100932124867879 -0.328894230840111 -0.03662536453251757
P 6.2682108634541915 7.840097072373143 1.4876896455613067 0.2556208760672566 -0.09267901299297587 -0.03522488464056514
P 1.8052645676388406 3.2036229652422277 6.034844227758504 0.40504696404328955 0.1119939112715039 -1.0453143861206127
P 6.81187061965607 4.019581520513108 6.002653705072168 0.8752168858381572 0.16687385113883518 -0.12314298590978794
P 2.2609565537745486 8.41980963685022 10.316159397221748 0.1852613525070874 -0.1924236745834815 -1.221290456671032
