# total energy = -340862.96222504857 ev
CRYSTAL
PRIMVEC
9.27314858993135 0.00000000000000 0.00000000000000

0.00000000000000 9.27314858993135 0.00000000000000

0.00000000000000 0.00000000000000 13.57219030559019

PRIMCOORD
 96 1
Ni 3.612827915881632 7.606235117996355 13.21361248254647 -1.5742139605462049 2.2126404727600475 -0.13550793523304405
Ni 8.187726438914908 9.164198245635763 0.5524561657536108 -0.46130707208759913 0.7821596635701562 -1.4321412276114496
Ni 0.7770360572713331 5.679247047113705 5.14683200982692 0.2102542750069992 -0.9159120495646742 0.7374615493318332
Ni 6.960916716179617 3.076691564115049 5.87666310482712 -0.16575747814620484 -0.2815720487153796 -1.2067668091335604
Ni 6.042958476285369 1.006229340151375 4.976868180835136 -1.374335372346575 -1.5291854595516565 -0.35884655422782713
Ni 5.770392823395595 5.603058859309045 0.20900471135259235 -1.8695002735238837 0.11577934645586513 -0.001087319526907805
Ni 8.917207936217904 6.26165640973049 3.294866491986632 0.22862917796976112 0.2237839340623178 -0.990143911596056
Ni 1.6131754536117733 7.693699454336856 3.633152802691546 2.1949955059847746 -1.0751762066770516 -0.36382883793376697
Ni 4.290889804935256 6.729950407312689 1.790443741650993 -1.2944249718731773 -0.6666682806683552 1.2320201843837104
Ni 2.9890232185082746 3.4795171335204103 8.529945491884666 2.5239334455786278 -0.9460631192267579 0.09481868504379799
Ni 7.604862692023242 5.3052424231437 12.649295032588752 0.4331509213683572 0.6418370805572882 -0.9668947112601284
Ni 4.8209336981590365 6.434229702700881 7.394726656557679 -0.07694154765306103 -0.31402914080282046 -0.14092447826292503
Ni 0.36617623203418553 8.191074045511485 12.50551115634893 0.045633481568398825 -3.603219046438362 -0.29590414906733553
Ni 5.112175472061296 7.952262653041498 9.451170661983829 0.7699482091056288 -1.693654043683109 -0.0661331441836474
Ni 1.9336090988880683 0.4897149705409098 11.278463113698036 1.584915406124109 -1.1258981585119512 -1.4564762048123883
Ni 0.8429903984278407 7.338278219894667 9.833906882550336 1.7697946927014294 1.358143593078061 0.925975090227631
Ni 6.299314665654872 3.7051699283157618 11.21214897438101 -0.6565725869952499 0.3629423215637556 1.375074821615761
Ni 3.7128017295040814 1.0436743136610172 8.724285646251584 -0.43760304360243985 0.41123380958029176 0.07642552724859096
Ni 1.7045159660114697 7.680605768701487 1.1309253675867776 -0.4896023194878665 -3.5443130161307734 -0.685055267815975
Ni 0.8124604117300215 2.2389275121631953 9.994668966318342 -0.5194111753191828 -1.358597649896344 0.5160029209685824
Ni 1.2594419321905737 3.0236398817354897 2.526558322052416 0.5401615204926568 -0.17954090508354242 -0.7390065252214498
Ni 4.5331322623380235 3.70440953014147 5.8236234775405675 -1.6763191519490872 0.8584877460089344 1.7703063422305254
Ni 9.147868231185422 0.923619497033335 11.857832738247346 -1.8488715415299384 1.410759419501564 1.1248254942730629
Ni 3.7268320031346134 4.340315686264229 1.5466999615114219 1.9249494556311235 -0.11697516653617918 0.9465631987916279
P 0.48086653227372295 5.931300495594533 0.2683426610779139 1.327075925138979 0.04356734306798949 -0.6713569443932761
P 3.5315673158655367 2.4005677630910234 3.0890712173184602 -0.37059623856458757 0.7951547902782434 -0.5706632886259398
P 3.6055392211865906 2.3194555334504 10.78975520708064 0.2325028019925544 0.4737152159439649 -1.7872884786108187
P 1.470322601478035 2.5358351797787764 12.126154998398633 1.1515765371146618 -0.40898100899037304 0.8394410137901286
P 3.6494104865838457 9.91522126682754 4.402872345822437 -0.2101601726312961 -0.8148723233118289 -0.033881740349109395
P 5.921739879525082 5.348844767235414 4.3996972197873445 -0.20857663019426012 -0.860392676341131 0.9799566866504091
P 1.5418371224553404 0.513659167197484 8.476307746521993 0.994878598067564 -0.8936069583095707 0.5389898687820588
P 2.414292022822145 5.747311956861297 2.636194756377452 -0.6848274680758851 0.7453658917805743 -0.11322238436196631
Ni 7.958364384732767 6.6263137000457855 1.0660522755415194 -0.5059985014577028 0.11306014775248914 1.2054856284282915
Ni 5.600026539760345 3.0468783917937268 4.006998855822766 -0.7183232858404854 0.9433976565794527 -2.1383728723947235
Ni 0.864657109820926 3.617510855857454 8.312341789958648 -2.6029221055687044 2.2163176645013185 -2.2897928508723338
Ni 7.586715140473373 8.912339533272743 2.748314539861944 -0.8006168418340792 0.3682200250229271 0.6651508155825642
Ni 6.125470951344506 0.6419615220716929 9.235033972145287 0.839102142393471 0.4698135668967134 -0.3791014478221213
Ni 4.994888690251006 8.149780715388049 3.7208563862624953 -1.8980642012045053 -0.11618738052756118 -0.43028671244668476
Ni 2.2986002225481745 5.6233856007486525 9.094670033060083 2.123331404680569 0.4383499490707935 -0.031722270803945365
Ni 7.050717885933795 7.156839796989849 8.350331097283302 -2.4820280635940932 1.9296424902314184 -0.909613361040156
Ni 1.8104245946527824 5.882328998540442 12.054629349643166 -0.945751758633926 0.5383401510132019 -1.2609165557030864
Ni 8.592044985223453 3.6718978716162582 3.8576102886495045 -0.007797384557231732 -0.454556640737643 -0.14747513489724923
Ni 7.007848120570973 2.023076435297436 2.467342777886858 1.4863228558601758 0.5453032125945964 -1.4219378047158866
Ni 5.515557430374676 8.771016750636054 7.154960129795593 -0.9155940041036231 0.7736752802482287 -0.3547605570839116
Ni 6.165985336996717 4.429467735625718 7.582823200061784 -0.41062574368264765 -0.16276111452204228 0.85151671400774
Ni 1.903425000628067 4.206365056658785 0.3378922018950674 -3.120067624782162 0.10740423501829244 0.0865916691483154
Ni 6.345800958919814 4.451751111391858 2.1025361898812447 0.5803602041987295 0.3602650318419086 1.1859809827364607
Ni 8.878223620062744 6.026813924804367 8.226918473595727 1.53172750924722 -2.361454123963062 0.4855276351978607
Ni 1.6142511388339424 6.760570343550638 7.1258609899062275 -0.744463434570963 -0.591228514371801 -0.85890709293454
Ni 8.762587458679574 4.078330695775272 0.8198065999455584 -0.48036331738810173 -0.7012511608495471 1.5864287574448421
Ni 7.730875506540955 2.4001319251130755 7.8710419275638115 -0.5154041110423189 -0.5802283066065556 1.8598005297376163
Ni 6.488505440678081 7.626923512226174 5.2311425483738025 1.6916434410109835 -0.7159897526113024 0.8717204426491246
Ni 6.602388977000992 0.19227780614786424 11.733579039993819 0.8667312169646493 -1.3954253602476547 0.3263454962763283
Ni 7.961137056124393 3.7585276245947314 9.837218323867893 1.1644199687362333 0.5966219174732306 -1.5589413506578507
Ni 7.943490254591741 6.821596933611795 10.554399917044293 -0.8348490235440719 -0.11841704118902831 1.1661099548441465
Ni 7.6415287210616585 5.6815004221911805 6.3248167512538975 -0.05157401542254989 -0.7574634463750568 -2.120412431261561
P 5.648488013648752 3.280172260925865 0.4082299603319137 0.15627422124611798 0.022683557640444805 -0.001409735863333056
P 4.594520505189394 0.15755913828751267 0.05123507259487939 -0.19288904425567427 1.702234072042636 0.43586266387256545
P 7.202908798573777 7.473258168979944 12.79671583765732 0.6297657512150509 0.9698864468986005 -0.7533265413885478
P 5.198972141712176 1.80411885369524 7.019387626523276 0.45785073810788246 0.3948710519515522 0.386938684478353
P 3.804401890060853 5.660821301109828 12.729004234866322 1.0557324961301433 -1.159434856816816 0.5434391628026641
P 9.023552402837163 3.697946145659989 6.004540749501542 0.6815932774093036 0.3874824727969649 0.741202247321188
P 7.940124101698229 0.9120623720989451 10.19799480154976 -0.12223487227322173 1.4956323061865597 -0.3795079392319206
P 2.3515962660369323 4.645838108805629 6.6910625319015855 0.680390515350454 -0.016505710964507057 0.17052301785564827
Ni 8.685416317137415 8.92304074660363 8.746027470147252 0.5249321051374122 0.07618435777206235 -0.9255935385184962
Ni 5.996277446902621 8.123788080235121 1.0926578658081152 0.44735060990750697 -0.18256709350437592 -0.6826661987585082
Ni 3.003767524570764 1.5128307140506452 6.368017568016991 0.4357976149625849 0.6009825084347714 0.29646773488028944
Ni 1.1795630312960579 1.3754768389578225 4.703645989033899 -1.3317954421018354 -0.23729739516772033 -1.435222951860567
Ni 5.156009644864684 0.6550589169664474 2.347962119152725 0.571685302132551 1.6658287939407246 -0.41951944662785173
Ni 3.137569783800735 8.089746352212858 8.175032425978467 -0.5415961960566543 0.6864557477079275 0.16453723258585856
Ni 5.273407704456578 2.809244689179045 9.13455940850562 0.3660656976840857 0.7663527784448867 0.08440186058584818
Ni 1.646030218630263 0.5477222234612205 13.614263498636326 -0.3996967554749697 0.8878931957542452 -0.28597429154813325
Ni 9.124713179463386 3.906666171354645 11.960438271404723 2.1898913519889893 0.04514548618838677 -1.400824162665723
Ni 3.7073862107993683 5.910955207857991 4.420163985768804 0.21886207128066823 -0.07176874520286994 0.19898538696139925
Ni 1.9930407074129062 3.4592367578231378 4.822999755637478 0.8647303844845365 1.2706990890111471 0.4045196307849098
Ni 3.51598842644102 3.6011993877040465 12.54844026986194 0.6968987974181223 -1.3559874659670066 -0.3082654988461659
Ni 7.645636725832528 2.445653810937452 12.939250620798642 -1.421482462346023 -0.5250503758828311 1.166928851201016
Ni 4.273873577498358 4.816260031331681 10.750396255727415 0.12906012272517126 0.8757215933887175 -1.9507283643674402
Ni 7.734964965014891 0.29043593730047995 6.4214642865212435 0.3203568827930612 0.17454885118558972 0.29096403145324085
Ni 0.4637427363146083 1.6113764628091805 7.1068055971214426 0.5278500501151554 0.23417787570213217 -1.2480052469580571
Ni 0.64660087824972 0.0007492703961315189 2.1459122691503634 -0.9264857113154624 1.4677396935413498 2.1193173984251694
Ni 9.041338301596822 8.585275586842561 4.574873485532415 -0.5095319685322579 -0.49138717930243114 1.019545761796941
Ni 4.24377293757456 9.505348104587277 10.989917971369973 0.3227510940568506 -1.0687034544685141 0.664570774709378
Ni 1.9031931719163928 8.78083701486258 5.807634714953811 -0.4819365754124926 0.13294068872650008 0.3460535162282169
Ni 5.360955499133281 6.9855276522109655 11.787528363144983 0.6879981524943829 0.05137732603071152 -1.429868886637505
Ni 5.203098692779979 1.8844706851615718 12.273291117809267 0.08720899101734013 0.8547452482473665 1.2215287979340834
Ni 3.238851111357028 2.053640732644583 0.7874989506866201 1.0297661539733687 0.31208281570972707 0.9084309106962805
Ni 3.0328759376085963 9.296331338141679 1.9670721824459916 0.1783114035518155 -0.31671620071668033 0.8502604730031357
P 3.4098479690880326 7.391941930073046 6.017800424494468 1.4023354571039268 -0.6527452428293598 0.11167792269298185
P 6.436241975918215 5.438441927723319 9.427948843592832 -0.8270698938192852 -0.7533183138584316 1.5454050067343126
P 8.61035018029726 7.580223936546491 6.794618562776827 0.5065284058192437 0.9345240082389068 -1.8665728154644434
P 6.929323099352635 6.917880034144389 3.070369131490266 -0.8774331767631857 -0.6548679455993174 -0.17827772210040263
P 9.286038143343337 1.792629422744659 1.109150160356629 -0.7511123073460484 1.1073790166618414 -0.2590201315567926
P 0.5031879279485767 5.1387986813099795 9.921434276300412 -1.0733640931689774 -0.9141433877000256 2.855869805679172
P 8.093780171795991 1.30404577631672 4.199561347628566 0.7684687963466249 0.37546925038617274 0.7554698129837957
P 3.293080483591893 7.540961425937323 10.37178658622871 -1.7444009352186731 -0.6449069777318635 0.7107333893083694
