# total energy = -340870.1432427188 ev
CRYSTAL
PRIMVEC
9.24917583492767 0.00000000000000 0.00000000000000
0.00000000000000 9.24917583492767 0.00000000000000
0.00000000000000 0.00000000000000 13.53710375543627
PRIMCOORD
 96 1
Ni 0.5587528769873773 2.3403281717597104 13.127091442651937 -1.0820176550789173 -0.24003973379954788 1.0622895805223704
Ni 6.987761476232687 3.018875447250886 8.684755834154236 0.14402368601353907 0.1523921125828924 -0.23785558166403553
Ni 5.191109100182623 5.404589324077663 5.617572867238629 -0.11423385634561617 0.49304631217240896 -0.04699410936135132
Ni 3.864111366866511 4.806167657511695 9.561067134223157 0.18472476327732704 -0.24526627230580986 -0.29531716621561394
Ni 0.6020575175262004 6.402094422930931 6.8273160256929675 0.5926248804986955 0.7902367841513358 -0.5033206975152235
Ni 8.429227007777863 3.944912165616438 3.0613347131324584 1.4367134203631644 -0.5976236192648676 -0.16415259555293019
Ni 8.093639166541186 0.7825422320965507 12.37905880993907 0.5857849747587267 1.2359652850743876 0.12964016359835737
Ni 6.421730422901867 6.739846571276981 9.523826253260852 -0.20287392338252802 -0.14364341985598486 -0.8464493267871617
Ni 4.183651888296511 5.397134488478711 11.981121350518654 -0.06748014512984508 0.1261789445226343 -0.9036787407232759
Ni 9.123877098129801 4.326551652569219 8.324858384474972 0.9023661925594395 0.6137192392751495 -0.1200841444788061
Ni 6.459060095950712 7.1255741938808 13.149956329853138 0.014433916037142886 -2.5863408041712557 -0.4434258209318041
Ni 1.101114364832742 4.463439452649224 1.2635030671830565 0.842049397947253 -0.04910061418139286 0.4507771190905527
Ni 8.872225526198939 2.283658472361725 7.1631582192608745 -0.9820855600679539 -0.700764965241748 1.8503918348292068
Ni 5.717026478584593 4.7640561606357315 7.884036197091655 0.24524133260514533 -0.1545677800779725 0.259630768557598
Ni 1.3427860762037183 7.552220169697723 4.648708765799397 0.32911945947703963 -0.45856550478672 0.5430113312366261
Ni 2.1179687392108324 5.26164331392655 5.311025587805411 0.44255061741570234 -0.05188049091937517 -0.6130219560978087
Ni 9.226135984459837 4.423621751342169 5.751346469866814 -1.1270083608569945 -0.7652909128392755 -0.4334874787721696
Ni 4.7415436670279805 2.0198812311129637 1.2924141405269807 -0.027548856152546108 0.5791469006169188 -0.6508806788167951
Ni 2.6549203842003326 8.451508271993587 7.551510757922984 -0.954317131705434 -1.3899717933322513 -0.8705709024257136
Ni 2.392456525898285 1.0290170403987124 8.863079941285484 -0.15623514047806641 0.5829698739074347 0.5287779612460635
Ni 1.264954262847418 4.827255778064562 10.475226986096631 0.575288446102777 0.2118301041345513 0.10651720442764881
Ni 7.047409410199982 1.7240740944806183 2.157583883570472 0.20981204526325803 -0.9502727864327312 -0.1617802386660117
Ni 2.827879969436555 6.881220221562311 10.44111417634967 0.7764379305950306 -0.3345169763435271 -0.44935529904236154
Ni 8.908630281679674 6.875827952140241 8.831619795123855 -1.3537912296466363 -1.6656763275232602 1.323708808438959
P 4.50599490995788 1.6671639165149243 9.0002516910589 0.20347736129448185 -0.26052396979582876 0.29703646289956587
P 0.6016709019827312 5.405874959497333 3.4990168053720483 0.7697664321121259 0.7604582673373226 0.9983909820961966
P 3.1684346180139724 2.995105065750507 5.356320650950804 0.08387658420999748 1.7071453933013243 0.5361914801013152
P 3.935034045989043 3.897066179818204 2.1301582278409295 0.426324128254511 -0.7471738915235906 0.4187828255721433
P 6.824532023812962 5.457383618865276 1.6263611779978338 -0.6428038153459317 -0.12965636154827345 0.5323355966903348
P 3.1844541902936054 5.486342787922742 0.40611465564005883 -0.48843580998359104 0.3587056577745887 0.01821986544213636
P 7.654923016460451 4.908232311152429 9.771555249785369 -0.6588878653919878 -0.045602114109831136 -0.4911871474764831
P 1.750304756712165 9.146121365642802 1.9860015005931626 2.5905041915203255 0.7828245508476648 1.7922162549297391
Ni 0.7311334638259639 7.9509798808361865 10.570135552512912 0.11241608641058703 0.62636880971836 1.018043980440434
Ni 4.702336411315876 0.9602216716828289 12.053694082582691 0.16017124230767898 0.8867912209393178 1.3054449771327648
Ni 3.5898270620440416 8.202067253050505 3.5084787120937944 -0.4016294537213083 -0.7811546193444094 -0.321930140817452
Ni 3.742678939349593 1.3457643107730264 3.2918176966820303 -1.2130333588685625 0.8650875107136391 0.7187356907875557
Ni 8.640404186928315 5.90473849903214 0.6788460238656745 -0.6212140049902978 1.347992363576672 -1.3157178198136825
Ni 0.27172135824124155 8.776117341696821 7.8494489046322515 0.3138005697317821 1.262956983171883 -1.1018971676116636
Ni 7.4242115782715565 0.18027290844725347 6.466769283880892 1.2150431902097398 0.8739053661155853 -1.6175229077464852
Ni 4.650522529150458 9.34444219059655 6.814916580774909 2.4673725184644475 -2.0435061077218095 1.577489031753051
Ni 7.547817562073529 5.725489474332782 4.213518401488291 -0.6071945507827542 0.5285324208941607 0.2426514603907821
Ni 2.1429785102524765 2.021453590978748 1.3525411817945547 1.3297254469466842 -0.3683246689215915 -0.482257449087021
Ni 6.948914938372145 7.791690577256602 2.148730572608541 -0.5594537930633655 -0.17399143602022293 -0.41378305836470675
Ni 8.11957385515094 3.455584526208826 0.8742857305947652 -1.3098261369195958 -0.10854529060127112 -1.521974029404882
Ni 2.3755860294559925 3.6734118626739742 12.817119193464015 1.187530843722084 0.9611439248192802 -0.5611301523245239
Ni 8.472605641722135 6.143154500563376 11.345581817026938 -0.4401355802163065 0.4298277705323952 0.44206802135232903
Ni 1.5707320108639695 8.742468840569046 12.989486831456647 -1.7544485492626625 1.115092583256015 -0.03237275990375069
Ni 0.932742370734336 1.2712529514862347 11.167988394774493 0.9328422496611096 -1.504788261654215 -1.9977414998921852
Ni 2.174545946852007 3.441978988781955 3.413164106865114 -0.5394943192223032 -1.5883650552356063 0.7797309995240056
Ni 5.3025339196126104 4.318967328510732 0.19434645416358695 -1.000920947606902 -0.5311120086958788 2.3882540177647256
Ni 8.532790027878931 2.846100845528285 10.85476691016981 0.39468953206836543 1.8139821858519212 -0.6794276372165524
Ni 6.6515816877524205 0.6367521004235048 8.862498168135145 1.2391457396848982 1.2555866588497406 -0.805199061888123
Ni 2.0097071378637743 7.281311813998849 1.3114147221286263 0.8858219150475132 -2.2734450056419298 -0.12152241958722941
Ni 1.3581859537127188 6.33357652948548 12.7107037275829 0.1798574078826967 -0.8904483580759309 -0.8073001673915258
Ni 6.538834236200039 3.2917446281941496 3.924772085570883 -1.5715099313514806 0.286505481461255 0.7135500328215582
Ni 9.076253092547912 0.09870257828066029 1.4348921423886312 -2.223222876261584 1.1716046594101306 -0.8080794687597115
P 0.1713021329541726 4.32578397098769 12.345675760153341 -0.5373119668590036 0.5371016506204105 1.6940327671787665
P 2.62325120666831 1.4014258500217742 12.733636133766574 0.6425978699827126 0.20708873279482395 -0.2939794212407969
P 5.525050588148067 0.19239672793001497 3.0735177273395786 1.2148675838638239 -0.36991875288158876 -0.5180626317110884
P 8.252724988255787 7.484460708658121 5.2206787148350395 1.1826611743346083 1.1679017566372467 -0.2844663395440391
P 1.1419402262890355 2.8588554587924966 9.523582075022869 0.5295071261026042 -0.6033561508732705 -0.5379645128413381
P 9.670105666327425 2.247568188854145 2.5821080984861555 -2.0138605169412345 -0.28338827598851196 -0.008159652992656913
P 5.251256489636695 7.24411162940954 11.294831590064843 -1.7094879253915722 0.16000000683713736 0.04343338859328649
P 5.1157005708547665 3.6222454228062317 11.071266065007153 0.4870204176933032 0.6406443458007677 0.0748638391884259
Ni 3.3968985065123647 4.7173478234462705 7.107467082649947 -0.06455525817356625 -0.30158243039903543 0.6613594668609319
Ni 4.321825323796187 6.70075030567305 7.963891730086976 0.2481875597176629 0.8894014048686553 -0.4613014156606442
Ni 6.030841760268004 7.833358113699874 4.691391861732453 -0.7783755139373756 -0.2022249769446195 -0.05963133850938762
Ni 3.0694961857534446 9.091088770340367 11.045721691611142 -1.529527673382424 -0.031109319810294807 -0.2977851681401323
Ni 1.8170190608998051 2.967995731829257 7.242431979105856 0.38132519494631745 -0.5134271898216061 -0.6445261973536771
Ni 5.60307663419367 1.4368686912316782 5.07117503912604 0.8377438285933637 -0.5768159384908969 -0.7772905084033129
Ni 4.692023580431471 2.4463884692946714 7.003122507203827 0.07026979205984027 1.632842568822691 0.3778794024895621
Ni 7.799755858450506 0.10332069169822422 3.869499936618309 -0.34280389894266766 -0.6944084268961009 0.3151244307495283
Ni 0.03404251601178824 7.292799290194752 2.5957256598414116 -0.13731464942447966 -0.0660585821919701 1.2501099520058858
Ni 5.317489836688919 5.184162969246131 3.3020380358096255 -0.09302019838247849 0.11197668488032328 -0.3987924984931454
Ni 6.58819708680997 8.88960472730369 10.961859415710778 0.51599443632815 -2.246184884374396 0.6609162086759263
Ni 0.8922587287782426 0.5612140826361129 4.13512516316815 0.7505181254054751 0.4753028721460589 -2.2346979667807187
Ni 2.719137410954081 5.584818761399215 3.0183140222870444 1.223565625858454 1.9227552761932822 -1.0664162010962344
Ni 3.143138122526215 0.9354523792088929 5.60528163767604 -2.7441743994846934 -0.2697791698455096 -0.8679357787957117
Ni 6.946713634560048 4.347057075054177 12.293314326787602 1.4858063212350734 -0.46014056258332364 -1.648245790751639
Ni 7.227019152750901 6.369953537439173 6.786772264094948 0.016282024989475185 0.2787993710662489 0.4666932761001769
Ni 4.855992966905681 6.561050756185996 1.4853177232843189 -0.9457165345206164 0.6538598160497773 -0.6481776780633353
Ni 6.528595398721081 1.820487501780211 10.793809292926074 -1.4159998419648967 2.5049386496436794 0.8321028282575024
Ni 4.651336456610393 8.730509656413409 9.374065450467917 -0.4107825809754861 -0.7429894211285979 0.07041351672655614
Ni 4.023363673743371 8.94409162124094 1.3150080268807263 -0.3459581283009332 0.5674596940869776 -0.043863277041853485
Ni 8.424361941369614 2.1565193034495795 5.006278197959733 -0.17497076921435675 -0.09572936978352545 -1.8369282531251332
Ni 3.315515009694529 2.5968633084501844 10.665680462216052 -1.0695791722052481 -0.43686050900946055 -0.062049975253209266
Ni 3.6118678476920585 7.575306112197703 12.930776763903413 1.3245891541613832 -0.3364036518432787 -0.6019271317362278
Ni 6.174176235797723 -0.007045097116279711 0.11129255621774829 0.032631927102408316 1.1304356413709886 1.2250985175632125
P 8.68793570075339 0.22162227324709602 9.69207893299297 -0.28825228894903265 0.09971406546288634 1.188451298653824
P 6.329775118280556 8.264536185600527 7.663448906603272 -1.4457068821110264 -3.720749828367695 0.6968003241670451
P 8.39165685616131 8.09435135306863 13.093343975344373 0.9886886672067682 -1.0938457580620966 0.35444713960855084
P 3.8100129383078656 7.490287689337203 5.460813213207821 0.0331875424955622 -0.9094038161325112 1.7584651266212232
P 6.266575500851727 2.169394155997645 13.3312179751807 1.500233552403997 0.6182688063190449 -0.050960035987634815
P 1.784591450961934 6.071797110183833 8.65316065002766 0.830418241466228 0.033268789355458836 -0.5847218236015349
P 6.791706699320804 3.261490574541333 6.114358116997897 -0.123908917541535 0.0504967231979711 0.5415344895807834
P 0.9203216527122117 0.8494729669951281 6.179145817891168 0.20147678592468526 0.23228091578973545 1.5016885396829687
