# total energy = -340866.63996371627 ev
CRYSTAL
PRIMVEC
9.29981433765069 0.00000000000000 0.00000000000000
0.00000000000000 9.29981433765069 0.00000000000000
0.00000000000000 0.00000000000000 13.61121832278939
PRIMCOORD
 96 1
Ni 5.780094942273959 4.030399992530344 4.324038837077682 0.27628997438083386 0.09658169048149172 -1.2534261608633124
Ni 4.5057785968156185 4.168781228357269 8.44001665018618 1.1219972807956482 -0.9157724386630164 -2.0615683645401592
Ni 5.71135071544381 9.231088608478709 11.515376869690446 -2.5299344003570687 -0.955949010881902 -2.8618098253126907
Ni 4.021946461390111 5.873613874227962 2.9271602398073093 0.7549108551565321 1.7556160872082023 -2.340245608206247
Ni 0.22299280570599148 2.0452802454104804 6.661275590640265 -0.2056705122910587 -0.7804534795123269 2.207145768194063
Ni 0.4123426034329855 6.976506743880005 7.61500036993342 0.5807217013032063 -1.0337539349765228 -0.1522527587915507
Ni 7.806450065714831 0.6977622721588288 10.8406818567618 -0.298880200976524 0.133408372391538 -1.810444862122624
Ni 4.888884444254472 0.36782811261247783 13.577217294310403 -0.972536482926938 0.3281694368589445 0.9773202774688265
Ni 1.1197999319325112 3.5125398368164817 5.117083285969598 1.601762816698751 1.7013989777358505 -0.7088333440721792
Ni 0.4411515679722763 2.3294732686386372 2.361382791244104 0.8678203362637699 -0.3432582128712669 1.6363783498900915
Ni 1.0023990770212818 4.960558112568861 9.442319939120836 -1.0666895093622792 0.5755465848601701 -0.8423098506974913
Ni 6.648567394487208 6.648604593744151 4.728632835289499 0.7037330467311365 -0.24484615404925572 -0.2931934350043918
Ni 8.622899357093683 5.474372849090202 11.493965907375639 0.24917357778001603 -0.49417425512926505 -0.05548183511738832
Ni 4.973382556399864 0.5044535435117055 2.3512022846003044 1.4938978399939562 -2.059278797175034 0.9769564663715046
Ni 7.201292553770637 7.295350874950308 10.770815142353403 0.056495878204199476 0.2384739319743248 -1.2678721610853134
Ni 1.6352328361308608 3.0781920129390294 0.35992420049357304 -0.15952512408324784 -0.3859552375191611 -0.5142751396441982
Ni 4.2292765199603695 6.685729452172987 5.191957950343907 -0.06398550171302528 0.48401068433270195 0.0614305965016555
Ni 5.010795709070006 6.7367668326984 7.424634102510466 0.008246813389824508 1.2318857156883753 0.8189781179500863
Ni 3.4036948110020786 4.513144049690277 4.428450641445937 -0.1440691945394938 -0.7726321836956952 1.5334784305000557
Ni 3.0155205648047794 1.5252904322366472 1.9768661619856975 -1.7075446856222722 0.9973828525466565 -0.6695366033550856
Ni 4.279235122034445 4.76666628556916 12.33673181307862 -1.7366701422333188 -0.1994265882638759 0.26144802427199487
Ni 6.407479010241429 2.6959882474810373 7.089511576602028 1.1936582967760603 1.9349988694473257 -0.37667664043071253
Ni 6.718790291780831 5.400346327774187 6.780129076535108 2.536701286767257 -0.8161578748924718 0.7242545637232559
Ni 6.963347506736518 9.001262299272339 3.9111559144376034 -0.6204496160204476 -0.21131716905387476 0.7326738981352028
P 3.12480268188826 5.005606412726497 9.875673612856493 1.186021349056093 -1.1507815520171922 2.8185972944809587
P 5.781527113666254 1.7008523253778216 9.255723816389025 -1.0673001463630845 -0.4518657241690412 0.16680391713284823
P 4.752772363101054 7.013715300636963 11.658702816746482 -0.5470397356697289 1.375963137757985 0.71161399214111
P 8.888939142933792 6.168483084198679 5.695600550054262 -0.7728383861692303 0.182035389370622 1.507333910894204
P 3.9577219442785023 2.5613269373483853 12.875205007045867 1.4122856263381034 0.7049741182270891 2.5844271320883103
P 2.9593310871927985 1.131322401770519 5.717773167154971 -0.1748571264546279 -0.3383864866012624 -0.5233899574612728
P 2.3617436240364484 7.154821382034942 3.784544523507356 -0.656724796302398 -0.13860071522575484 0.38409401594070625
P 7.4492349011081105 4.267349959441245 8.700644874122547 -0.6583494763900145 0.6384807624905455 -0.3839510626049387
Ni 3.5858316728078794 6.9392888873088125 13.513326640529854 0.02255885913712244 -0.07708167277535112 0.24641247009511108
Ni 7.241235255912883 0.23399541592822493 1.200902681900456 -0.09020458331055432 -0.45107228173346836 1.7080257390237488
Ni 1.7650210436040161 8.599398726520118 6.163295647818017 0.7501062346790373 -0.01251510174787522 -0.02088687075133822
Ni 8.33396342860533 2.168233089420411 8.576905265828279 -0.21314342362933617 0.025615643685575236 0.5391143101750652
Ni 0.04901188098488277 2.666359039326159 10.67779654040528 0.12570791842348672 1.4371952450955894 -0.3120781877240367
Ni 6.979612881834723 3.0043979869789057 10.34221181372933 -0.28142678138676697 1.065389302493617 1.4700104918533974
Ni 1.9664829193915605 6.04630212477031 5.8045860030636245 -1.1346669058435168 -0.09129730215410083 -0.5458081772554729
Ni 3.1629970189541994 9.240369823085919 3.8309589663762136 0.08714857009304991 -0.5582104075745676 0.9655965612739951
Ni 2.799234785125561 2.8618783338171037 9.437501705365328 -2.65943418172282 0.009143871282797155 -0.387618484154197
Ni 9.262103488954702 5.605928021268137 3.6849109636933943 1.3075663943511415 -0.7717024727925743 0.30446412282220464
Ni 5.95990685052084 2.261212632148743 1.0476742926462683 -2.384262122996513 0.9976309640017206 -0.06635888704120828
Ni 5.24450934062689 1.594899541790715 5.011895877094088 -0.9845448202417237 -0.21051549908818584 -0.47905102633458135
Ni 4.875548510640507 1.1176609746583046 7.22166286687247 -4.605248396618095 -0.6478076963184262 1.0258696471324398
Ni 9.23498523064346 9.045743310761598 8.795011019153419 -0.6203575705272736 1.261633379264453 -0.3888770391516464
Ni 9.059125743446742 4.358283543037728 7.259515900755961 -0.4071341855896214 1.0676462168485934 -0.7088518560149405
Ni 6.540289657341181 3.547311842243691 12.715082665498771 0.2736998450561544 -0.9587034336985877 -0.19090235284294865
Ni 4.502328365734181 3.032111433401233 10.884142678629404 1.3986742062022557 -0.7526526552499747 -0.9307048916031326
Ni 3.2269425416387376 4.805334913161119 0.9373199069814141 1.528004294759362 -1.9838115200746544 1.4445416581583315
Ni 3.2850570807975044 3.1817175450106236 6.267040655505572 0.03539663433173904 -0.902951118528632 1.68480584926386
Ni 7.402382436988753 8.393993729496646 12.78241704049079 0.5436546212475798 -2.5469538177332005 1.3795732237067466
Ni 6.87541776313816 2.0370964088830816 3.3930046745381643 1.2375537126074299 0.17981729867338064 -1.6837797219921906
Ni 0.2244631063366525 7.742104651018158 12.288221192081041 0.8261352978201579 -0.4223869979836339 -0.9555317208388252
Ni 7.464189002399086 7.450062584575086 8.283963907348616 -0.7480251837802924 -0.8780265873728105 0.059029957479962855
Ni 5.832945786575331 4.870173218012283 1.3574687744838296 0.7126331774342437 -0.3122854186388364 0.01352683084184122
P 2.0517064170473356 3.7769893544222897 3.0569158979306397 -1.354746137360738 -0.9156947913475455 -1.8228962005120992
P 8.745033817450873 0.25941924808572797 2.961610471661964 1.1312661076920838 1.408864002251064 -1.8260573718489002
P 4.959293337832809 4.583292548470015 6.125850875779474 -1.6076763539697088 0.8145943870600939 1.5033451014497852
P 5.1286336552503125 7.782391446287126 3.449913027790563 0.01536928336721869 0.41009506799015827 -0.19442450706359418
P 4.692258471869481 2.52346739359493 3.0353152194054256 -0.022626993370896513 0.7916604039717398 -0.284993929912735
P 1.6928823845778436 3.6348602934583862 7.7000025320103855 0.016839697265158098 -0.5579874929304842 -0.30021074686248944
P 6.923748897720992 1.0959645080464622 12.78560222686651 0.461276990180612 2.94324231885757 1.0999097048679896
P 9.29296027258869 7.175178675396846 9.897179433276504 -0.12256217370565343 -1.0130709527058746 0.5340543791536545
Ni 8.595762499153967 8.559604821405642 6.080131129034021 -1.2293956022766697 0.4943411197244325 2.2388356430981764
Ni 5.547171794927108 5.566840902035573 9.89134007991792 0.9543973501240659 0.0071510092224844595 0.9265679866166237
Ni 0.2883602699871653 8.707843860322388 0.9219259244770923 -1.5010547627537116 -0.12207752075975103 0.5749943119011258
Ni 2.2119794155850516 1.060327619895335 7.963855931523685 -0.8229967521911762 -0.014588953557768423 -1.4636035598857893
Ni 3.0598248798235606 8.719794121615237 12.212093842729185 0.033491446889226194 0.5292662137363917 -0.970967081557289
Ni 1.7839554653878615 4.0197703048589615 11.497723032326855 0.7556729301335373 0.7626318779498737 1.0202314750100558
Ni 0.29119578334762425 1.0449271275210483 12.187199170001692 0.31419523406703953 -1.60598739630306 2.3382005527517604
Ni 8.154830406797654 2.4853474550428762 0.8066035780475377 0.9192143744650297 0.4740450884795578 -1.531393780056885
Ni 3.72983929624739 0.7498244922130147 9.690139528910398 1.2786204007407527 -0.6129579356290927 1.0575988599149204
Ni 5.93913106551833 8.667919757808612 6.084487162022015 -0.440704565345899 -1.4565235131105558 -0.8389926133988002
Ni 5.439256750536273 7.33728373733899 1.2838588848455725 0.9025209729697489 0.36130607151191324 0.3397283453411375
Ni 2.4774798121994905 1.6255796289542246 11.86374233107049 -0.5469767436422773 0.047354320914247475 -1.1779118325750808
Ni 4.26283954953694 7.633594418516239 9.78699709417501 0.975915683811816 0.13368887974643429 -0.882670513902725
Ni 9.060809009823402 4.863681947675778 1.4226037434091117 -0.6119325796883719 -0.31354088831249227 -0.7317141053250946
Ni 6.746550237274337 0.33163974547717473 7.949005988152152 3.007315752298711 -0.36350436471481273 1.325306491943382
Ni 2.0719335130099403 8.069309315086336 9.198011959186665 -1.5713533511689581 0.9370796847812249 0.5932247188662235
Ni 6.1794196657398395 5.815331938412952 12.459464251491164 3.315293287590813 0.7798328152091925 1.2680804204413774
Ni 1.7595992519046144 6.485430053164903 1.4728292501517508 -1.0744231305611107 1.3551163762159628 1.3434769922048215
Ni 2.9687145997566 6.020299844167348 8.172161540607267 -1.3692412456531193 1.0556147396053561 -2.190207340567512
Ni 0.609515404895034 1.2636773579727223 4.735070166703437 0.6690336955767381 -1.8888555381220438 -2.6092945847539513
Ni 8.165497293725979 3.1907755640761764 4.968162570669377 -0.7807090471665586 0.2538293313844725 0.4672416924044792
Ni 7.8381531324442655 7.233916302109403 2.545991543673748 -0.3645124942643529 -0.16606318231208175 -1.3471552123873574
Ni 0.08582054572970575 7.923265032329211 4.150945114634657 2.1817694942128036 -0.24409204949205054 -0.7982336863138834
Ni 2.3038429806051024 6.670719551996599 11.088501446551362 -0.4151354586275431 -1.2547453938953679 1.0100424502921959
P 7.45528908017554 6.405572548323115 0.605812218866386 -0.13111469126135483 0.2459059627723378 -0.6272208733060102
P 3.5678737315187803 8.452963851565096 7.782595112218886 1.1548181839804113 0.2547377021313548 -1.255380970596838
P 7.555689874663944 4.465175607862638 3.164390131126704 -0.07438869932422028 -0.5299298154623195 -0.8122744806776657
P 9.104025246576608 3.8267340607689437 12.902550180824463 -0.8051584384581746 -0.6962984448299622 -0.4407652433805054
P 1.8547177519071536 5.48062232425658 13.149607185846701 -0.6073045939980574 0.9994330502074658 -0.7978714178784582
P 2.2450309553786596 9.140173624510696 0.6357594806681239 1.7992114553006495 -0.09007602815249004 -0.9107772994412702
P 7.438791209721442 1.0958994093468124 5.754196819590437 -0.11823012198920282 0.8371280493862358 0.007524333401503171
P 1.2554470223741452 0.916891005049895 10.074670107890158 0.3049783434544619 0.3966615681930717 0.008465871379166065
