# total energy = -381161.87566659896 ev
CRYSTAL
PRIMVEC
9.27856432476982 0.00000000000000 0.00000000000000

0.00000000000000 9.27856432476982 0.00000000000000

0.00000000000000 0.00000000000000 13.58011678096383

PRIMCOORD
 96 1
Ni 8.429909482743932 2.490941866427309 13.240722474191225 1.0215291107755569 -0.6453528070200306 2.3559442498884264
Ni 6.659633687363585 5.407602809354898 5.638817203041435 -0.5791463863962865 0.3839181524844743 -0.9589489740504905
Ni 3.7563431552558586 1.8040961614028306 6.784789454487713 -2.020762386267391 1.470503629439732 0.32406441355163546
Ni 5.983142859837348 7.194886212669185 0.7841583570977813 1.9328905648550714 -0.43594982426973306 -0.6911870917453258
Ni 2.209458068341154 0.14113809372871797 10.442987670473503 -0.4161785551800768 1.9713894922612176 0.22944267500999196
Ni 1.351450691981498 3.3925863295918304 7.959061326336892 0.5432301321156515 1.41951351154511 -1.3447964823471936
Ni 1.7682252327216466 1.6394016492220203 12.339410183620286 -0.20200771872749082 -0.8042647229993115 -0.04921657093396685
Ni 9.310018398710051 8.812074979515945 9.536568458240348 0.41201593916195495 -0.5032479352957592 -1.0287330847231637
Ni 6.734177671074042 5.583375927031137 10.763845055175954 1.9970118208150125 2.3767696712742095 0.6490037735090565
Ni 4.2307839716694575 7.561287429092172 8.879101470619705 0.12014945049910274 0.9578349150507052 -0.6254177586590004
Ni 8.7236131497057 7.372171736288269 4.267307183404518 -0.08882004425820186 -0.036008299773808955 1.1066400816132878
Ni 8.480023007267231 7.981420810024403 1.9963860509738915 -0.21735231950436115 1.9879083158518474 -1.172409157589297
Ni 1.5538440099645974 1.1850767597046463 8.132507380145249 1.083183136141928 -0.8461227966856781 0.2870140456665573
Ni 8.309353099827579 6.632874308595728 9.051691112964722 0.2696655270857808 -0.5232156366669376 0.09150067641415854
Ni 1.8638501139912487 6.288528238958869 3.1433891508879612 -0.6429436833579055 -2.313657316194757 -2.352948657595212
Ni 2.780637193712338 4.402131214285966 11.594785004440745 -0.008981634673320015 0.8946477408692592 0.4641553401696716
Ni 5.900118268570085 3.0334780645251316 12.724935448440787 -0.5564350608416997 -0.5262009445475067 -0.0356102930044419
Ni 5.6721253923274455 8.017839173985513 6.986250276782127 -1.5065016448008957 1.7312173466488636 0.8583581624096056
Ni 1.9648008910350354 7.847772373210184 12.785611690297417 1.3365283288011305 0.04605077161147553 -0.40103347200852224
Ni 1.7147250323140664 4.573849599465135 5.857782964303754 0.7223802295186784 0.037268140322839045 -0.0717484334878958
Ni 4.046845717614675 6.313812326040148 1.1696632090773358 -0.9018499150446532 -0.6883689055702403 0.3938292409505992
Ni 1.92773302758927 5.600763956091805 0.6799823511844704 1.5556634512375274 0.5908482482142469 -0.32407752617775804
Ni 6.087517427021681 0.7206957624519733 11.867649944365507 -1.210205145391148 0.7667402436912925 -0.5829410775520283
Ni 3.2093068535857716 8.83304453430629 6.90280072728062 -0.17378009134036526 -1.4260816516809312 -0.4323849897366102
P 8.336483621158097 0.9635881568726392 6.106136721533977 -0.9042580102655136 1.980735709362808 -4.5097586536492
Ni -0.06817888876082227 8.994315256346553 7.362826366560466 4.836495986047309 -2.7561004614983178 -1.4569387462711036
P 1.6667826917823338 7.734379041753187 8.229713328731785 0.5986307203731432 -0.3141438120038138 0.36953745828277007
Ni 3.7426387161296018 5.245292888139183 8.443695573233976 -1.604679476124914 -0.7083268367494059 -3.778441783762525
P 0.04013721243897183 4.960088385862353 1.9552244850619755 0.7739961539227573 0.11493653883959559 0.2896604821504689
P 3.4609322325058502 6.421081805213239 12.440676431842332 0.6569389691957331 -1.5668909445222305 -0.3315653499143709
P 6.551937394243434 7.896800305737699 9.410504319694105 -0.49901101439627604 0.9684545995480804 0.1193719489031299
Ni 3.592465156712902 3.064774661121519 0.06646235440851522 -0.048981314994709195 0.3320952542759119 -0.18720433516607113
Ni 7.076269049642735 4.3346018250098 0.7269448753507777 -0.049157435561257276 -0.5289540818126116 1.352459141098774
Ni 9.019534393479368 0.8431709524172838 3.789165147784782 -0.90355095689616 -1.409621963463011 -0.807244631563242
Ni 3.89137409811599 0.6347066699654572 8.88750692180757 0.714125445709054 0.4068516213521961 0.3746331276381225
Ni 6.261017296501624 3.594283755269941 7.225287427833153 -1.1651905283536708 0.24151066191811954 2.0655923980978876
Ni 6.207609881734709 1.4176254109039508 9.369166461064925 -0.8528703998221571 0.865942916735399 0.5269463073539634
Ni 1.5561450938530954 3.5955920328033213 3.3056313385859895 0.041346167046954596 0.7071816674013691 -0.9361358328107168
Ni 5.796170515332811 7.860214927623393 11.554900168944382 -0.5411714498144099 -1.9892296057664323 -0.1334821630522669
Ni 5.945629625316388 6.133028783767985 8.40553562279758 1.095719835156358 -2.0757593113285604 -0.6408173810435223
Ni 2.1443782199785515 1.5460685732768498 1.908604339909723 -0.7935270248668335 -0.5275008943058528 -0.298334355775383
Ni 4.382998815180792 6.751352293161179 5.712611478775318 -0.8499334286810202 -0.7259772028413174 -0.640450998843039
Ni 8.561767156693312 4.914465686347251 12.762701987760762 -0.16712067704231864 -2.6546143917366734 -1.056106077419478
Ni 4.372263516555823 5.5854914396383055 10.362293854499752 0.824667969246012 1.4801838328419734 3.0486338943212075
Ni 4.036797032730629 7.412839682591846 3.356461168255224 0.274752711800701 -0.6010663263978294 -0.04102735025495515
Ni 1.2269416407728049 5.547467884093687 8.942289419769143 0.5773568985960315 0.3627700576519495 -1.3252288446279112
Ni 4.751951636722074 2.9567072254387075 4.875505923688321 1.016763056845481 -0.8486370784670997 1.184721913518379
Ni 5.704674595072813 1.1610545573364144 6.123790117526946 1.1448932115572152 -0.46824827929212254 -0.23926506041705248
Ni 1.4527169402035467 2.854559513630339 10.100401744440063 0.7512989694355577 0.3162922258053843 1.4105257062242031
Ni 3.7579205111471676 2.316681154693912 11.220462677874167 1.3829483108265668 -1.1373439384550477 -0.3787965149871928
Ni 7.961703861383039 8.728725638506356 13.241604865633953 -1.2493753878327063 -0.07325869948483511 -0.046032516779030405
Ni 3.7471666553940657 2.9575515747687615 8.9311672050226 -0.09755665280025135 0.28850734238263215 -0.07051276130858179
Ni 8.47511464687604 3.0508197007654663 2.6977443580548215 -0.3145562169508841 0.034160962152425034 0.16867413757236757
Ni 8.560301143570802 2.655191007532926 7.378362394233454 -0.4873425769194123 -0.3298537665399029 0.19155721281812818
Ni 7.655464854367396 7.2574886844260265 6.7517624056929195 1.4286532690628493 -0.6512190359928204 -0.3047698269880816
Ni 0.7818878924707027 0.20139958377157485 0.19556058340451096 -0.47172441076618116 0.390909753310959 1.3662047728196407
P 3.8719447849606876 0.14130696359472872 11.826040223809176 0.9164362974992604 -0.1603995562684012 -1.0472473414772674
Ni 8.59506792312807 4.937263118258702 6.903642293041454 -0.3870813807038043 -0.9111837908510694 0.6207177820801697
P 0.9539662859356534 8.31111602700022 3.0211681935780734 0.9001776695485529 1.1997327851049144 0.92492119504182
Ni 6.1472713796101 1.4635450244691808 3.3344078771819086 0.5271885052717566 0.7694712694692103 1.2149850832782947
P 5.919120767778328 6.448769040387748 3.7688896295866128 0.2594759881472886 -0.3253715623988332 0.580789064206032
P 0.9509971454343655 3.489955580905939 12.225092707182263 -1.2637529967106171 1.8208652861249994 -0.47572401884387744
P 4.512156426986814 -0.33404407995379626 4.925440371925136 -0.9532390681499067 0.933726966258908 0.23181786011038785
Ni 0.07236352115482483 6.624505043807722 0.32126193009575205 -0.9611205277805125 2.2931545682557153 0.2700424508092253
Ni 2.115930142550587 7.530491874955377 4.8225438799966 0.11925136416486558 1.4511604490264296 2.389392245134227
Ni 5.381279523098167 5.244513488757595 13.002295852655777 -0.8263173319239769 1.0122165751253793 -1.177541850830172
Ni 9.262994636020904 5.027654889394784 4.341318577537558 -1.220140659337305 -0.1185877624389377 -0.09834186770570805
Ni 1.3904206610609007 3.4872276830703806 0.8169395239448123 -1.4685894431361548 -1.6263037392629087 0.012798951536881183
Ni 7.285008905447337 0.2652927037900694 7.773231173068945 -3.3090115683471595 0.3142083466931621 2.05875043547539
Ni 6.307168874168516 8.555838154254804 2.682887521271502 0.08653536198908322 -1.1221227506299192 -0.8610290243735494
Ni 0.6446737034857178 6.678255765445099 6.548549790502746 1.2275269244990472 0.8722601172026785 -0.14966442923908418
Ni 0.6230221742364829 2.403779035586378 5.14082089603215 -1.4282220950627016 3.9205895929095895 0.7598797691260333
Ni 1.6782881112248245 0.6588968143432934 5.429072478748428 0.5489330960376998 -2.9896417320577156 1.0885554561974349
Ni 2.489011925101472 8.186245111792932 1.5271245290222266 -0.8815199452380496 -0.47625006655067653 0.494146230104807
Ni 8.804383049904796 1.6764509555396527 9.489772020370832 -0.24072287590950156 -0.16947503620710813 0.02320703424408261
Ni 5.548757604498935 2.586121376621718 1.3256071074870068 -0.16078496463227793 -0.3457804650724884 0.9263412153177982
Ni 7.485694967642196 2.298003405227998 11.32573541006014 0.6390060388663964 0.32998772101460594 -2.012835161000514
Ni 2.578921210906095 7.284507862987745 10.327230160892356 -1.3899705077806705 -2.221540860573471 0.6987980713233642
Ni 7.422944038860291 6.00534646364854 2.31851923823549 0.42978946109529204 -0.006354995683750346 0.5118179363529571
Ni 8.017384524346252 3.792009955527579 9.663556741767616 0.2565421023299453 1.7895096546318536 -1.3053781284505712
Ni 3.6274824574999656 4.53982510503319 3.944493877396843 -0.3946807903176171 2.253771181362086 0.6579231874858734
Ni 5.714129451856602 0.08963649602106691 0.4235219125293256 -0.04589444853926935 1.525826827492069 0.9058726630508012
Ni 6.219041072664667 4.163087568240095 3.2780359611957386 -0.5648957900145433 -0.13093342848848416 0.054942160563834413
Ni 5.686692737911889 3.7664103972680376 10.550460350199648 -0.9925856882683292 -2.43159921751958 -1.0975175504867292
Ni 3.414084762533968 0.6130068921830764 0.20102101835766065 0.11104723108751842 0.06562535130929342 0.511987372051286
Ni 2.8858189959704603 1.8765246325061211 3.988737782291658 1.1374228713220993 -0.12670164979532372 1.0172754777055255
Ni 4.154013132583033 0.2648538277097228 2.5206462614298806 0.23837931537798948 1.2397764312903616 0.18606662201720212
Ni 6.684194046447675 8.671560405292498 4.862238504929597 1.3408202713082649 -0.37218800853173967 1.0351047925774624
P 4.593251076928238 4.713955916869656 6.278210475716894 -0.41789939452592545 -1.005017743384095 0.7773249611856742
Ni 7.107129553727996 2.940451181194157 5.328838006850577 2.0720101286987735 -0.5625092920602377 -1.8457679629039503
P 8.757192273062453 0.49545398045505706 11.491684384102744 0.22213559982561742 1.4658920988096495 0.5117739704888992
Ni 0.5496983217007728 5.603222775569433 11.029688905671575 0.45742984852037993 -1.1826578319004986 -0.257759262566498
P 3.660718273986257 4.21409183491378 1.9306446409933455 -0.1183152255038414 -0.45618543459031763 -1.5408554396904173
P 7.535001257091708 1.4259297257434902 1.5776973424668186 -0.5552181577154631 -0.7603019442651164 -0.3468942669619574
P 7.396685702552027 6.640139424259816 12.726999928945588 -1.0915531053731782 0.5188223926952483 -0.37586468605237844
Ni 9.415979600349761 7.768264357724136 11.379187361934575 -0.40645618568599035 -1.285416854837296 2.1522843402694933
