# total energy = -340862.9703016594 ev
CRYSTAL
PRIMVEC
9.31491532364163 0.00000000000000 0.00000000000000

0.00000000000000 9.31491532364163 0.00000000000000

0.00000000000000 0.00000000000000 13.63332014221979

PRIMCOORD
 96 1
Ni 3.193777086682949 7.890357414056372 8.800690120370758 -0.3819736271635938 -0.43043995019509745 0.13793325684508503
Ni 3.2028777589952138 0.7061683913295177 10.589409099261411 0.27047053948557936 -1.0640461582021612 0.1819736828947511
Ni 6.533509582230663 3.2147170164249874 4.367693021608309 0.9193470433881523 -0.9035000490535666 -1.1087332166968904
Ni 1.2412217873915825 3.246713750706082 9.837912466779443 0.05704892249419207 1.7010624203320384 -1.6962179477555432
Ni 5.2461696488636225 1.4398716724799712 11.609930733910979 2.2033963284539597 -2.3578409526905073 2.417217237766295
Ni 5.229905806635155 1.026075187190583 5.481467205475187 0.7626002533809899 -0.30364111270027705 0.01576831857785026
Ni 1.539504007231233 5.037115003311775 3.586463179279108 -0.7907921424341735 1.08191918182784 -2.805586741153904
Ni 8.619994734649708 3.681813447436769 11.384327209720471 -1.1838323118245742 -0.5135853126660251 -0.1532212933524071
Ni 2.8667862976862883 7.142900660368499 11.026315889573038 -1.2261511271974432 0.6351884648925189 0.1362432707371718
Ni 5.798339201910116 6.944614056979371 12.299504603516544 -0.8510382317094246 0.09970018150581539 -0.1175822039925588
Ni 3.8965129317002156 3.0462660869521176 11.41212478015472 -1.9736911438112008 2.0411265517460397 -2.1377684060415056
Ni 2.3219755277786787 1.4702010369106095 12.54692179651039 -0.3413782222397347 -0.011868983523444074 0.4402633640434224
Ni 4.222488394922018 9.128924450568737 12.96142900984218 -0.001462957698771674 -0.20157268807260126 0.16134212268732856
Ni 7.215156458860041 4.835307361914423 6.455744942791861 0.9233741622696743 -0.38509597484265934 -0.9395204330122336
Ni 8.356214961324518 7.920323496787749 11.615834527269742 1.7080776753076068 -3.045077544428517 -0.5642931234335379
Ni 2.050809026568509 1.4180934003550227 8.82180796499628 0.07136765310970934 -0.39582673099660215 -1.7989088364585664
Ni 8.2849838035232 1.2317764632107877 8.372467625654547 0.26485782128449226 -0.496515501667932 1.2458861437325253
Ni 6.0039380138612986 6.717590939687136 5.85842878944255 0.6023300236016013 0.5166433827660586 0.15439474483521798
Ni 8.209225596854164 2.3015386034663874 6.269050751575316 0.24299701665565895 0.5903206578455511 -0.416866839496353
Ni 3.97548478417041 5.270639931529252 9.507400639774557 -0.23157309108943347 0.6147890753005606 0.17527210250485944
Ni 0.3533324381592541 5.729278419389 1.046635068385701 1.2236656417714282 1.758051179012256 0.6126213782252804
Ni 7.695647738167664 4.1493849391322 8.571950264176628 0.794090096459155 -0.4720617395009418 1.624904544922537
Ni 7.476486409444059 5.803266792138558 13.464212744602934 0.46822899601841295 -0.15001075683490941 0.3283797530975377
Ni 6.456642900633112 -0.10633907381454778 2.8934399965136315 -0.7825944371147296 -0.44914935367914255 1.564778269054602
P 0.3080749903635847 3.3692235175954415 7.775505439089134 0.046281399565042874 -2.019467835825683 -0.6420602523116877
P 7.059085051908154 1.869168176937843 2.2861988008421936 -0.6675296002273858 1.9110253893508637 -0.19149833455573473
P 4.396761146498435 2.6128710197333485 4.071795420102272 -0.559572835139733 -0.14713626350059175 -0.2072651104716882
P 5.372424011729985 8.390056048848017 4.703699717187408 -0.13404806285806592 -0.7379117494953743 -0.5409086830713266
P 4.224975477324654 2.754494992953074 13.418554755446541 -0.25705529452093795 -1.43568497909865 2.443098219298115
P 7.299549592073059 1.303296383388442 10.69667593864638 0.24771319118440566 0.2626502721102122 0.5128134674970072
P 3.5830008252376864 3.1715330687897167 9.257011057287526 -1.095889785075319 -0.4981352966595421 -1.406385201693268
P 0.9043953792603048 3.3828139791139615 2.36041818349282 3.9450832071755793 -1.3085593543920302 4.364234471830735
Ni 5.7774551616602725 3.8986739920650524 12.609362468681121 1.359999158229561 0.7475315319733254 -0.39889328573706784
Ni 5.467398888798408 3.7196878933136044 7.8612855632000995 0.7493588149900514 2.429212205344642 0.36169302253768676
Ni 8.213296214868963 4.603971438807879 2.864210723587679 -0.16022317859153695 0.2116889505709967 0.4648937609975929
Ni 3.257882334229526 5.339458526250859 7.271235975327552 -0.04848020698857457 -0.04375374804718271 -0.5699210111432765
Ni 3.132540833069001 4.187371163993423 4.98198374522849 -0.5002495147890674 -2.5876806060286017 -0.18881178886250707
Ni 6.126522300073584 6.644282555759273 2.8883549842155087 0.667689779954334 -0.5932514583391009 1.2585537118978647
Ni 0.7532692608760542 0.24081291799958085 6.72794819408223 -0.011320310108825664 0.703126266385073 -1.2226935076661458
Ni 4.110234349850267 2.6089960149412277 6.662413107027023 -1.3627294126765304 -0.4467682550414757 -0.4638948874194333
Ni 3.1682355887502682 2.218905989257483 1.7637289239476193 0.1272516087615228 -0.060155329333657685 -0.12181115447224183
Ni 7.0271162623731565 8.633426842607012 9.91997221369336 -1.1479065444622423 0.28630287853214564 -0.2565580431695452
Ni 4.764942491242112 0.30130956733349484 8.79441838785505 1.1479548812016747 0.6014239668475642 -0.08282885967177347
Ni 6.177269958985782 5.305468400081511 10.581146769332056 0.2332481647990112 -0.6600240358789601 -0.6419080430045396
Ni 3.6888741532839506 7.674996570801961 6.503734455264282 1.3022519241167638 -4.113765058057431e-05 -1.0672286696952007
Ni -0.5017348752905813 7.410313250686301 5.235508728227607 1.8655109498588325 -0.9991921378412534 1.992114897734027
Ni 5.214098395259604 1.1846616212912027 1.244851809909586 0.3126566859353261 -0.17632368369782536 -1.1069049052389002
Ni 1.7649156441652063 3.884673674270443 11.864683422755292 0.3138193387848595 0.52856301702178 2.0260837984803044
Ni 1.3317348199998482 7.297248807977737 7.029639672945717 2.061983854811023 -0.5169112917154647 -0.8529516466820537
Ni 0.5417163550231322 5.884427649719686 12.258304732854164 -0.5533973024566404 -0.14186730179216858 -0.6890222228835231
Ni 4.006140170638847 5.45341720083453 11.822501760013367 1.3277464688434424 -1.734776781865348 0.8058086704476639
Ni 4.50166572334667 4.422181550531363 2.6940663425013294 0.0694480674894933 0.25561830496409527 1.373763301893189
Ni 2.005491963314499 1.7300778606975813 3.6897078382091784 -0.9937745663701077 0.9651353053668604 0.2138779878025155
Ni 1.3006043728477616 8.542000948292909 2.129224778591372 -0.44258892685280543 0.9676205336825594 0.5109630445518296
Ni 7.593342022706453 6.655441824367352 8.532768004182453 0.013618362114382998 -1.059613576352104 0.5853106062254695
Ni 1.204930877126912 7.885495028235489 13.366747990657267 2.362115411696145 -0.4190196241732977 -0.41145235334900104
P 2.018393121095959 5.820508700480423 5.445693273013313 -0.9545441601145754 2.467130834767287 2.0248059602091453
P 4.6939721510710335 8.366060826866038 10.943561249972843 1.072552395900959 0.14836113704662837 -0.946661929153021
P 5.297410998290203 6.43343013154185 8.083113752192897 0.08526755102025314 0.04446748628475567 -0.42745129988041874
P 1.4169010911882163 6.318726263728925 8.992156342729137 1.0202525580559785 -0.4232645154925807 0.3345840821360367
P 2.50175339433621 5.813634292940555 13.212118532603986 -2.271833438180436 1.640612185465781 -0.713817427550332
P 3.2990170004843478 0.3977357082158911 7.11082661228987 -0.5187627431019066 0.00328278451632983 0.009895147626524893
P 0.2682993702606151 2.5221810037331354 12.859043186108822 0.4233012822677871 0.06632186315568578 -2.749630280392942
P 8.80377801481448 8.248320296643902 7.407814058893691 -4.264865191301777 -1.7121626440102578 0.7945994319954057
Ni 6.168625717526435 7.952618308360545 0.9748207968824919 0.19851616063446456 -0.10728236472844749 -1.197310291706351
Ni 8.544730218495053 0.38862572098826076 2.040867217398724 0.6778608069500648 -0.4850632939669324 -0.5898897409557197
Ni 6.291731638999199 3.756453864261924 1.2861932672855256 0.7408448639817693 -0.3607887655558625 0.22429841180489116
Ni 9.42110540084387 5.376168607706986 7.260738065710436 0.26823676505905414 0.1425131629062836 -0.1714712407015305
Ni 7.86509536358466 0.02151559151163651 4.950177035220856 -1.4611954646649288 2.1017356807876646 0.3643358594771725
Ni 0.7179750465555109 3.6107779028581297 5.257840306325277 -0.4845084499047269 0.3319882963844024 0.7468581600553846
Ni 5.603443227714094 2.482136182576098 9.759125981125027 1.5611100761743952 0.650408624276383 -1.6360003977253825
Ni 6.6984022140338455 9.093220379972104 12.557637675147062 -0.7375515379424782 0.7000358003852073 0.2767113781889686
Ni 0.16560894879480234 1.4703687053871917 10.723955599786297 -0.08170220226649799 -1.3225595253258642 0.11520084824457581
Ni 6.616486848308098 8.500353961692976 7.502402366974439 -0.6108038654005674 1.2304479548005842 -0.9076567515344174
Ni 9.065955622696773 3.620493359584529 0.9205772502335556 -5.006402196254565 0.5439279295136246 -4.233512902242741
Ni 4.198949603792958 6.4225130507332775 4.24214379783513 -1.6220560197301481 0.32711065657712696 0.4098793524349264
Ni 8.75100901926793 2.2813531818689694 3.6768523235130104 0.03050999566339907 -0.6606231029155396 0.25122866053683185
Ni 3.0982898892694135 4.383766839563318 0.8681780568270231 -0.16420607449868496 -0.2947263267091505 0.23142345288544663
Ni 4.05674810582056 8.438009233150511 2.887278179999237 0.9011989117242157 0.8870958966639303 0.4867946748357423
Ni 1.9475252449939024 1.9079554845205144 6.2989488354245236 0.3280617076364866 2.3921788067404286 -0.7819467762284018
Ni 2.7274444787311536 6.732345765626365 2.116668272678442 0.6844849971348018 -1.8949056009708656 -1.030488891072006
Ni 0.4706659065799083 8.433165477160362 9.299478687931176 0.4011319452595995 0.22062944759373615 0.7938777233380327
Ni 8.60469964361927 7.279308280983447 2.7387294986966686 -0.5689591614506395 -0.11937914799198149 0.12063616032753417
Ni 7.428393501411077 1.9539245918501214 13.126378462629091 -0.8833870803537753 1.4204311382633732 0.1569283098903491
Ni 9.03886784881339 0.34660520628216346 12.839561040621515 0.8849246000442244 0.35435637966695743 0.35313304878281765
Ni 2.4487981004823465 9.107267272343542 4.775247582111159 0.863645378950474 -0.8096470703571476 1.0392756361257005
Ni 5.174770822585723 4.573474405900659 5.432932770453874 0.5662026817514249 0.13166233623470872 1.0263830964337486
Ni 0.9736787882586602 1.6046152656373023 0.8298183038596362 1.3862130976207674 -1.579356681089409 3.6229990572787667
P 3.070084325542149 8.720269798561201 1.0339882077937241 0.19038324711468504 0.6820077392389029 -0.43895415831369566
P 5.006152224636271 6.048407419817032 1.1124980404617806 0.6632520558979546 -0.5564304328560095 -0.2869651947064929
P 1.4581661662581573 8.753682399977878 11.28774830422608 -1.3796369870651466 1.376870480063603 0.4407906973018022
P 6.396105265671589 1.7515580555308283 7.409818628680384 -0.7971198844244143 -0.2879797520139363 0.008217759924101977
P 7.720248429648412 5.8966208739333545 4.4554376613698965 -1.648698304908025 -1.4077139478070206 -0.3079952759039147
P 8.541330274386581 7.9173706686168295 0.4753680758565011 -1.5770802263504067 -0.876326059741936 0.9819773166248636
P 0.4594032424112704 -0.25810698986749336 4.080752642717905 -0.12042044477230229 0.9399639483075554 -0.8458808558782014
P 8.2580636981164 5.637181851168569 10.810309522683788 -0.760549027278916 1.9524774858480634 -0.8576912182495681
