# total energy = -340897.4296695946 ev
CRYSTAL
PRIMVEC
9.02399155390115 0.00000000000000 0.00000000000000
0.00000000000000 9.02399155390115 0.00000000000000
0.00000000000000 0.00000000000000 13.20752379818569
PRIMCOORD
 96 1
Ni 6.335609232737258 1.9398784778941234 11.360597369198775 0.40214598834641063 0.546380247708859 -0.4039388185807753
Ni 4.543588859315385 0.2422156691834615 6.001525718160492 -0.17480493306045378 0.17136659680286617 -0.5983437852603437
Ni 2.655453949992753 1.4920267923980404 4.852497241767849 0.2522802417297978 -0.11350314882717871 -0.10681288129119669
Ni 3.3403929701729638 4.278888109941902 4.771851632488167 0.3823081276848771 -1.2529165682167454 0.23580898354765195
Ni 5.100315005016394 4.438405211727435 2.615142876542159 0.00809151875888284 -0.25653310346888075 0.4808739384759332
Ni 7.202327542297329 6.0873050763345455 2.576695257383509 0.2741600725220246 -0.11290279623901847 -0.312508590393236
Ni 5.193550887555746 4.70539805499997 11.598187340222182 -0.6165618509302672 -0.5938173581448999 -0.6194340302717397
Ni 5.625330843783286 7.90447531470388 12.29372142909088 -0.22368546081124058 -0.2562320272886942 0.4326860659167967
Ni 2.0240813447132 6.439078321896784 0.4879994246963907 -0.9606998953033262 0.3814120982331689 -0.9337264520382759
Ni 2.7737765295374675 1.5707340482544316 0.26157754583623294 0.11268116714651562 -0.040763555070607214 0.8953637930996773
Ni 0.4252393670226886 9.289567805118633 4.787265512759698 0.09706711475834251 -0.8025433694328308 0.05927292672870437
Ni 8.604628784938422 2.3106472260449538 1.4058088682259793 0.08467336907967998 -0.0370771073579555 -0.14515317163229197
Ni 6.8184649821483765 0.6666870945100507 4.786921698674841 -0.27050113561319866 -0.03169784532391315 0.036862163133672
Ni 0.8911399383750394 7.461496584741213 2.465026066940253 -0.9149715400282757 -0.6316033186444219 0.5105146441605014
Ni 7.641904227378334 4.035267405246305 3.8646535008321767 -0.4446982598863245 -1.3597957839695034 -1.1244987070612633
Ni 7.6714397523058695 3.7284877824426053 12.521116094259376 0.14318242105916631 0.8064797283727594 -0.10263869530884903
Ni 7.989472292795069 8.926749193680653 7.0399272751545245 -0.33344045544989664 0.04692623223789338 -0.03819733700532777
Ni 6.82497128018466 0.6448625705145586 0.44196443329237856 -0.062363906949202276 0.17188493120018142 -0.5452790442248803
Ni 1.850631199698789 6.291310457341819 9.423198684231656 0.7025955906925835 0.5617094218667618 -0.2853060618365151
Ni 8.951095923364274 4.796937427094356 1.4041845497148409 0.8031383227043523 0.05215019964099406 -0.1827722675366465
Ni 6.430758201523062 2.1870546353307674 6.862484013800231 -0.5408073816067719 -0.7142838256637891 1.125208074423462
Ni 3.449790821898145 4.330938494232163 0.6384429027988701 -0.2839132952540465 -0.3976100481492701 -0.13193615872138567
Ni 6.088505267234442 5.813020847745345 4.782232832572688 0.21922639659862245 -1.5182703553010497 0.6092925709623636
Ni 5.369455558320322 2.9542292921332316 9.007716057065872 0.03746045883930323 0.5108509444539976 0.7424394621623989
P 0.1858346712626697 5.617236323202778 12.497170932207675 1.0050498821736111 -1.1491599572533693 -0.4924395318263454
P 4.014349792419533 6.2008088442962155 12.717525079029556 -0.24134251177137145 0.1250314611817524 -0.7157676092981674
P 2.4806231342438743 8.483653151825514 1.3528335247835412 -0.2286348343967159 0.09469450076110787 -0.39243621725781447
P 6.421743233786244 7.767274544463044 5.798354153988936 -0.5067973432099143 0.4954466940837854 0.37267291858795815
P 4.817358720376058 1.0127625916948837 12.598102474893134 -0.10586928643100478 -0.4174301681989907 0.07327489743475123
P 3.9056287400739924 6.238700585564387 8.098629203941098 0.06966866814073162 -0.8246674550253797 0.43317277574522817
P 4.5209837600353735 0.9047905306628132 3.7844969919041813 1.2245930386817039 0.29603913198330306 -0.23839191378347974
P 0.12245737255473502 5.578604614612867 3.5972410419442653 1.4397614631608688 0.6208265397438921 -0.045673590777714886
Ni 1.4375128583658852 0.9557941319125635 2.626923697743777 -0.17164221906175603 0.8445832201127003 -0.297978515097861
Ni 1.9224351018828412 6.2954975895038645 4.89184274810349 -0.20912504649856245 0.4505544615567853 -1.227384485383912
Ni 5.991506380144285 5.873084536690557 9.261486045258565 0.20097027860191197 -0.7844116928291264 -1.0113107754816582
Ni 8.683399208736914 2.3651611600771094 10.262748461894589 -0.46263813219419686 0.5980614781332345 0.008844594874823478
Ni 2.323163502572449 5.066826971711754 7.002299034444827 -0.5002014351599515 0.526409718124203 0.40801838796678763
Ni 0.5070147800667859 0.26103339913500156 9.30464779769621 -0.33850578578794605 -0.6488824174398438 -1.22087419506922
Ni 1.3989623657015302 1.013854494694038 11.310012481165229 0.651746112140884 0.03292528997311104 0.9716509949981911
Ni 4.116880386439289 6.7105290170832195 1.74087058350612 0.30627752188185964 0.583554028545679 -0.14813128042400941
Ni 5.384399288622796 7.794896983144128 7.750994360985572 0.9545174206416982 0.9882981166365691 1.5255085249207019
Ni 5.347590426362052 2.8477822857032855 4.790382399502739 -0.5534435823135436 0.04401780034184677 -0.11825249058670602
Ni 0.7205810803104549 7.271640822764303 6.7034785723457055 -0.6190257390897275 0.07609462627173347 0.8116396753071441
Ni 4.991025441191955 4.587264979281556 6.883497280939327 0.4237311707163541 0.14898874332829826 0.4916509744867791
Ni 8.354050582620117 7.198176506102198 9.3305213867803 -0.365550448610564 0.467903237247878 -0.3055434719293125
Ni 4.545312441735538 0.19571864940294775 10.34941578085473 0.6176699963927814 -0.13721283373929272 -0.24217349231309906
Ni 8.106071289919631 7.331136000230616 4.507582229919308 0.7936694639819687 -0.09333078764436185 0.3109929250796579
Ni 7.446652118347752 6.288170108220283 7.030946598586274 -0.5972731779039843 -0.2305737032906416 0.08562930523504607
Ni 2.24432088684013 5.266997156234394 2.5673978387055865 -0.4794891423132646 -0.7693884799474168 0.7205406052067784
Ni 2.4569622279316228 5.054021927448945 11.599930775424138 -0.5473953192369347 0.03739746681185173 -0.3267095644839664
Ni 1.0576569505444076 3.267767884741614 3.849966954293966 -0.25566227082815324 0.027709292989810338 -0.8368547411201911
Ni 3.5738887561491297 2.547788704679453 2.6184050495520284 0.17930667758554927 0.05688180078870849 0.2684141711771829
Ni 1.158987353664267 3.252932442339882 8.348727329899445 0.547573753796328 0.5242929288915164 -0.10671723625359684
Ni 3.534814871964519 2.762884571521111 7.256636631717246 -0.6037389881339861 -0.17011524089426833 -0.7500578979396051
Ni 4.1450171926489 6.712243575511644 5.9316312926262 -0.5948224023706467 0.9457707847973196 -0.1648424225311032
Ni 0.8701943511739078 7.434821665191627 11.393616154933529 -0.5322862315096382 -0.19608698236768166 0.7176735680716285
P 0.2693823962822537 5.660028091979551 8.203682003648984 -0.06805350113481183 -1.0890280249584792 -1.536633688299586
P 8.573784781210247 1.842031335581483 8.017019832344806 -1.4605850847744395 -0.6122593669001714 0.04224296782961112
P 1.9892667846244638 3.1674210967201657 10.484595176948373 -0.7749898852945943 -0.11497253428385361 -0.5948725388822916
P 4.069125422211815 5.987436559874711 3.8204215029755284 -0.4868604950766712 0.9530477780747072 -0.4036266866569952
P 6.814891481423872 4.084682783951831 10.340897132662983 1.0260833058051426 -0.3964345397839302 -0.3564762542234377
P 6.337504271000253 7.868559827624261 10.104482085362633 -0.6756321747298623 -0.07732927000978294 -0.5231611292799183
P 2.322901806812321 8.353012823571333 5.7567896480872465 0.3540545321558225 0.4638900023234269 -0.6369519845508449
P 6.932374829737832 3.924182067067886 1.5492560455413158 -0.09785335810506374 -0.4348149393343415 0.200070649605778
Ni 5.382468154392888 3.0297330309259882 0.26043510848339885 0.03319499869472993 -0.773001651219972 0.2827874091797194
Ni 1.2915136961897153 0.9775329279866345 6.9492045743115725 0.6967908110853483 0.8538674736281038 0.2906254171668995
Ni 6.82670388659654 0.8832060448473005 9.189201164315383 -0.3761565062611844 -0.5307445980541311 -0.8870611867712529
Ni 2.8162434346120118 1.4003791324029122 9.247023293715223 -0.2078461797861388 0.5623336857143219 -0.5256679548621721
Ni 6.235560236442852 1.9704246898952564 2.692419829709575 0.35359353335900395 0.1549390473744622 -0.8267487630344408
Ni 4.093174360168395 6.7183618419036 10.414726920990093 -0.22293469868814506 0.8020193786085607 0.5522942992004488
Ni 8.19124874784539 7.223858786561644 0.21009477062569673 -0.8008145596671821 0.2973105424965589 1.1494859731342204
Ni 7.755155323571604 4.065687281363239 8.10294808638238 -0.3938017301467734 -0.6418069986503011 0.27933313208253185
Ni 3.1070415680644543 8.410901730509964 12.331178213957736 0.3374269509014705 -0.5102143393112633 0.33718269610114837
Ni 0.08375437443016773 4.7579718308104875 10.328547799982466 -0.16933465397450193 0.07946971339155345 0.44639647352435374
Ni 8.449777086876548 2.3945342531535307 5.721882140883707 1.1795485968475556 0.17197620536240704 -0.1708876002839186
Ni 3.8301881692233355 2.459867953268215 11.370198896397948 0.06442953122897936 1.1319327947418054 -0.3706782567554326
Ni 1.132204146213938 3.0854471558580405 12.568702309841527 -0.650644394436273 1.014099393970389 0.38219139960135473
Ni 2.781167178763148 8.198413797277857 7.964731214672911 0.7463269701422631 0.09615977245272472 -0.11772901398306822
Ni 5.644407562297435 7.721847770101536 3.6528180022020433 -1.083161281765057 1.8565408851497383 -1.1130405858229928
Ni 3.043395354403009 8.235258755505516 3.4962030161564104 0.5353774688404521 -0.17319593670212108 1.0000202901695034
Ni 3.5125165884032783 4.496609958376567 9.292192884312469 0.06572151056752552 -0.9546536891092463 0.3112250956951221
Ni 7.326515716465599 6.3232824600360615 11.362301098837124 -0.1571432541146326 -1.2430599871376398 0.18604553897127957
Ni 0.5557037274381639 0.04341081460935051 0.3826578572531916 0.3148722055294061 0.38540425011169754 -0.09151764569502303
Ni 4.555437360454968 0.24239344182051387 1.4501726163618645 0.18349911840034205 -0.3982245418048174 0.7812410084106287
Ni 5.9752000270908 5.596598454119591 0.4887682687916629 0.21671082926562035 0.28043767800062025 -0.6970157826119608
Ni 7.882447750894496 8.91111964000681 11.222790186713778 0.5372716005393715 -0.6281199880815118 0.39772806178437303
Ni 0.0391514905134761 4.837933421517147 5.759523917580997 0.2366363645449538 0.06183271703608061 0.5657134008198321
Ni 7.859436571986699 8.767466715680062 2.4200676377494563 0.08079357440929956 0.1894851607804479 0.43616631115591337
P 8.367730954080594 1.6471040902531289 3.5029520595701906 -0.25529486018640546 0.15395740018748325 0.3964201416062269
P 1.731252813121834 3.107718367444096 1.639541985184606 0.05080422713606089 0.5663944860472567 -0.7338843735035361
P 4.723328726564594 1.1208970845780684 8.00836943387382 0.39382024208953464 -0.8101006129547984 0.8434133681743153
P 8.426007892663552 1.5750475163006772 12.37618988469973 0.31726950211698907 0.5733693747031932 0.6147345679135413
P 6.2352534207240815 7.587570773180749 1.3494386990952618 0.3073483863485352 1.2526283475523652 0.06577267552043511
P 1.7453302402183681 3.216854523409149 5.932264776845544 -0.2768162791979491 -0.44535671940592975 0.8512020109807986
P 6.867645737068961 4.136841456142836 5.896459382465013 0.45700664494003224 -0.250799029198581 1.0087820955225337
P 2.387251891828593 8.359446929673787 10.174231224630093 0.47568648073772263 0.48918734343763487 0.0089572091932878
