# total energy = -381167.02002388967 ev
CRYSTAL
PRIMVEC
9.26568585545866 0.00000000000000 0.00000000000000
0.00000000000000 9.26568585545866 0.00000000000000
0.00000000000000 0.00000000000000 13.56126783934779
PRIMCOORD
 96 1
Ni 0.858115565893659 2.8730761209172018 9.131751445276352 -0.2633894642690819 1.336017450602983 -1.3912861412683009
Ni 2.865876682887446 7.11050597543224 8.367166493673256 -1.6789689308671083 -0.5661659149762186 -0.33558192727293173
Ni 0.6533364925242477 2.014258216023986 2.2761370794299114 -1.166698737468081 -0.02766764111859751 -0.9153109256455656
Ni 0.7002727515764129 2.1025416723270953 4.579694103469163 -0.17597272811630982 0.5544589109519354 0.052768035730651065
Ni 5.478512901436073 7.101268086480287 0.6898015998165321 -1.240035084268387 1.7193126247914778 0.07252439242197187
Ni 4.800996674700176 1.0685003792991092 13.121191699714428 -0.20548205042933643 0.8044195034096211 -0.892531980077837
Ni 2.3794930271654584 1.427731025906113 8.331378708028302 -0.20682596605174056 -2.4528516991404534 0.5846997121143479
Ni 1.7045341297683163 3.3979587020106647 11.130695335463042 1.296158409624516 -0.3256435851132972 1.7433750650573203
Ni 4.697637947258825 7.5893844254861405 2.72635768922354 -0.9960667048383942 -0.3387014467385199 0.9325859106759294
Ni 6.679141963237526 6.893725985542699 9.231006400383881 0.8028611577835657 -0.8174915061022309 0.5804789891647809
Ni 2.649420992008255 2.555865360365466 3.1805106561598047 1.650873972403105 -1.0858953928667685 0.6550366099666977
Ni 7.184826042918305 6.038345650159187 0.09103351191087157 1.3693042376805706 -2.075694776639212 -1.0894856813211882
Ni 7.627494192045197 1.5492319665550074 4.760181327826204 -0.2591422589569537 -0.3168684100238285 0.2783633119700948
Ni 7.2828106724738655 -0.21466926661646596 7.665900460556573 -0.0054648797693131685 0.3071514398463807 -0.6977670589556887
Ni 4.923804077076477 4.8967204768693 0.4137823729907731 0.7118631320374386 2.5754555247173196 2.0462988399755986
Ni -0.047886918436789196 6.7565475041649155 3.3944127239746447 0.6798066178225259 0.4269828448844324 -0.5115749671042158
Ni 2.586998065359006 6.449000854121591 3.9246990531491286 -0.5751076975505386 -0.18338136187555515 -1.0794390957184636
Ni 3.812385040179131 3.9745438110398266 12.522854466208232 -1.8132116262344837 -1.8132391370383092 -3.464803707750536
Ni 1.894082268474519 8.904426178138852 3.0118223563678748 1.6090958600250544 1.3860392910470647 0.17314811418332113
Ni 7.866020747000165 6.899665290275097 11.639948557394865 -1.011210245348052 0.8797664528820526 -1.7021921630611072
Ni 4.779240843948738 5.022372444850666 8.722485167646845 0.042631204406965294 -1.6945271903166816 1.4529296251117108
Ni 8.57595760908499 8.915192905282451 12.501848229455002 0.4285710153071587 0.6376364122123793 0.4115019756400139
Ni 2.1240287981842436 5.521857780590768 13.423295685795487 0.30489735370488136 1.0631894666288204 -0.7708133853194016
Ni 5.381380714993431 2.2198915856435177 3.283413511849463 0.04813053695863969 0.9736412859553425 0.757927787605985
P 2.152122358166509 7.17221544425872 5.949206044468756 -0.2770674759768067 0.36560212778410583 0.26114283432675023
Ni 8.315378721426264 6.66629045674168 7.229783151438738 -0.6945115281328684 0.6846876000639112 -0.7702857949507056
P 5.4556266569914165 -0.011703487999208319 10.32670249469089 0.4417767153641553 0.28846903294552895 0.7668919387778083
Ni 0.8741313041619129 4.324851602019218 3.4253323181899544 0.13802221701446554 0.3400834146877111 0.1107366418256351
P 7.310264900121442 4.998995119047482 11.334616406307926 -0.9148393853257859 -1.9089672212702542 0.11840341434227349
P 3.3629529402649525 5.718151338712238 1.7560624628070287 -0.00974808052569934 -0.14948548045905868 0.5194669682577827
P 8.773622488735937 9.02986503534199 5.667538455451313 -1.0570267894615342 0.4809158474574621 0.6638588362440179
Ni 7.763078975429265 8.865982846883437 10.109179396783349 -0.2682455068098025 0.7458551727121672 0.09283173652075626
Ni 7.901860420486776 3.6504393800966652 5.638490529810018 0.20646806849168958 1.066575609492234 0.40889359148288934
Ni 5.083553769574578 0.45860976190706615 1.8416607233044449 1.6463652858994742 -1.0895481591280074 0.2617879241099169
Ni 0.7204283983539267 7.18221311946349 12.060374427254796 0.4378712096621621 -1.3804970210725966 0.11242199994785801
Ni 8.531315533888895 3.2898930060762437 10.837473435991148 -1.334681762510695 -1.7034268067991565 0.013130109624054807
Ni 9.018199536655422 7.255940183044917 9.30180921346056 1.319740310709514 -1.133115245085681 1.3622072216244734
Ni 7.633489090893656 7.8638247794158 1.7800114814370291 -0.5885226854048639 0.2403644641288183 0.22580739225024982
Ni 2.0018607281426304 3.7623318043532086 1.363639349206466 -0.5644448185200537 1.7238814751090827 0.0979546595696184
Ni 2.6242090603750943 1.8506725295177533 6.046264105423318 1.1366793082878552 1.7107901891427633 -0.24624997637531784
Ni 4.764332355158676 4.83496467961277 3.4468815241433695 -0.8542834781195997 -0.7203696268465529 -1.7059032933641074
Ni 3.8505411351682373 8.03364627260675 12.987586066862093 -0.0026526071314986574 -0.572583131356472 -0.9804372258312534
Ni 8.974511827118356 1.9053215456046275 13.432232439952116 -2.109495013018109 -0.41476496266200186 0.20206865387241327
Ni 7.54359340522481 1.2884584994900727 2.192734786516861 -0.5595435245636944 0.635558446637428 -0.3287427928639113
Ni 6.538498115292008 5.875158388151384 2.3787684505194777 1.129310783737926 -0.4325181728803647 1.1345386077957684
Ni 2.715698444037657 5.091327680136953 10.046946416697304 0.9071684990440892 1.0853238366340148 0.027355252084501274
Ni 1.9020414927570937 8.623490578316197 10.32687854272508 0.3507722618601249 -0.45883032841233234 -0.1139032124790748
Ni 3.3984034549391438 1.3388453000123552 11.00555205364362 0.15999640729271153 0.16542863405187636 -0.2712110171960297
Ni 4.498351572556132 7.377014902137353 9.76736731330651 -0.3073285888541933 0.6464527249524287 2.475482292055775
Ni 0.6430617733077788 1.3543745897650852 11.228350106596647 -0.1965736921961131 -1.194663083891491 -0.17475042567343455
Ni 5.179796450160262 3.042814222934063 5.6230446312313775 -0.8993844842232963 -0.9803454374483954 -1.506144004351161
Ni 4.5274736236855055 7.242884831456853 5.003538084898175 -1.9025644030677042 1.0398608192052092 0.23647052839105082
Ni 0.4541029322318109 5.549071100402085 5.6134426008192335 1.4428038495316184 -0.5358983743409288 0.25501846659656724
Ni 3.4299160530590926 8.80761829070656 6.835354016817014 0.12307922255138805 0.06711273448809732 -0.005287730761500571
Ni 3.238718622243113 5.43854999767502 6.474528745647693 0.7932184924874791 0.9971000311989151 2.6745594674000324
Ni 5.055089582151913 6.877427643851141 7.597144437519501 -0.3689803002277194 2.5630111283063797 -2.381619286057027
P 4.06619071136456 3.192158550042953 10.00597818600417 -0.6472104290540596 0.39029963053078587 0.2475015893942318
Ni 9.007636654604042 9.199047196198253 3.427420803816604 -1.4067379570469967 -0.037158611328168265 2.5827299468915457
P 6.420796105907207 5.314158162991011 7.289819237371815 2.191766971745148 -1.4749272124287245 2.6392983302048934
Ni 3.9576061370135798 2.9117788913808966 7.815154910511167 0.15437571867182445 1.6803146462617253 -0.40054959039356824
P 2.702726483623682 6.726971434421053 11.573647014581839 1.4228132653423042 0.09605924231911844 -0.6841666945634346
P 7.072127503978894 0.2143903694675655 0.4084027156933775 0.4386466543756058 1.2053316193489305 1.090275267102019
P 1.4160099331034854 3.5624709571178954 6.697855869271886 -0.3872808983091201 0.38321367021828195 0.11248987707131596
Ni 0.8150894263377062 8.30208246200194 7.661615080776956 0.741892331409677 0.4939559684708718 -2.2026990452766197
Ni 1.2654610668132975 5.4037480810215275 8.05345352959029 0.3051794037216744 -0.26044400848751276 -0.48274055937102667
Ni 6.278113807039492 3.4199647062843717 12.58421925151514 0.43267166773909355 0.3664138250521238 0.019316955161057057
Ni 6.3474118727081486 2.9531872421595065 7.49138033798996 1.139737892608521 0.3314128834969066 1.3972660130008192
Ni 6.544455951396427 7.564570918351409 5.820807727154031 2.3518076020122334 0.7518018772139052 -0.045985722701494994
Ni 0.27555594252525994 9.076953251644719 1.2593253295374873 0.11932695459780739 -0.1225500895207954 -1.2762791542020857
Ni 7.811047431902941 3.6682943570379005 3.1216003510769403 1.1400834488733977 0.11979566670410981 2.583642431403486
Ni 7.031821769835472 1.2516551946584242 11.502355899852436 0.41124615087546595 1.0487192980371036 0.7609578326815604
Ni 3.7220816643258465 0.4451309684683453 4.328173350453796 2.337379856622678 0.26408957565990004 -0.3319978094660992
Ni 9.21584588493435 5.662520159908306 1.1845401246137202 0.6933501608349156 0.0808236563162866 0.8411248292504547
Ni 6.414912395290868 3.603073193213637 1.479751366871955 -3.2409657805218317 -1.0058019298482872 -0.2725665027826596
Ni 3.063606422340462 4.191490583277547 4.8459834334158405 -1.0723045415562114 -2.3297277393940585 -1.4083428396402713
Ni 5.332541284034815 6.1405276354772695 11.756087445549783 0.1988318921026705 -0.2669671543180112 -0.007837493766547793
Ni 1.7332855534572909 9.253316319158717 5.2415791179062206 -2.7734001291190298 -1.7614931148142696 0.55646360008679
Ni 4.784049734987918 0.8104834538221442 8.426998734514113 0.5917908146331743 -0.3597677804905159 1.1416939878936272
Ni 4.084416315746195 2.8028329552755276 0.9948845039498018 1.2050876216589246 1.0091289373389911 0.9437079887310198
Ni 6.261574557511675 2.9146883167880313 10.267195479428981 -1.7032306316279504 1.4628851936625258 -1.445780672771755
Ni 2.326521100246391 7.64662783365581 1.3638978618461446 0.45221102332360186 -1.7092683531815984 -1.0450973850138001
Ni 7.975652343870273 1.879266436544558 8.997304488134311 -0.5221838529683135 -0.48621823350698207 -0.14469808637274434
Ni 6.301880291655097 9.09621661285947 3.959021933835905 -0.5738802529013407 -0.24968985529480223 -0.3811231062378404
Ni 0.30367359329115146 5.1363959768895056 10.309086572448711 0.06520394750115867 1.7974636193716076 -0.22833941464348417
Ni 0.05188506195009644 4.279755508208636 12.724632383879008 0.1372722262223184 0.815218393797338 0.6418612489270042
Ni 5.704938470462003 5.38169574831777 5.431884263159438 0.45387195596579255 -0.6892801045306 -1.4395282641041403
Ni 6.138387262008964 8.603207991640346 12.415693101228385 -0.9175704111037036 -2.8128125694783814 -1.6885925699998017
Ni 1.890978263661175 2.1131230857504946 13.321843836534994 1.9546294991940594 -0.22702455248680256 -0.5862683421530483
P 3.2115979592918955 0.9892787639137627 1.2350001240554815 -2.942605199494203 -1.7034309205642149 -0.15922301946179673
Ni 8.404264447320022 4.522266308147896 8.05516304865913 -0.9935120567373404 -1.5717549574827512 0.40616076593275857
P 7.843431004507829 5.684868994564382 4.559190066897674 -1.030154904771355 -0.5848287814930445 -0.4473724642843779
Ni 1.7726739846857245 8.926923263771089 13.025218650591635 -0.12626379092695675 1.7323429756128743 -0.6013221511623773
P 5.179342431545772 0.7328981585861606 6.3387669876608355 0.7697638610089645 0.33406831884188276 -1.5764186815070078
P 8.324950175074576 3.6540807946985883 1.0108742982972279 2.674156318424343 -0.014519533772413704 -0.5457981499531439
P 0.46051015410771345 0.5609955923173677 9.094104963017797 -0.5713667424508676 0.35806442464616395 0.687712502933164
Ni 0.04016211601026716 1.745015911945928 6.895199229618286 -0.14442683498922868 -0.19174156091479236 0.3231799540641531
