# total energy = -340869.9649931883 ev
CRYSTAL
PRIMVEC
9.27874267882897 0.00000000000000 0.00000000000000

0.00000000000000 9.27874267882897 0.00000000000000

0.00000000000000 0.00000000000000 13.58037782014445

PRIMCOORD
 96 1
Ni 7.227128946089364 5.22762491024913 2.1291447688939873 -0.23073414012790586 0.06608455033389908 0.1510533391668108
Ni 2.159701523363177 3.3959362094416194 2.273083116110736 -0.28519421884899915 0.08577560100492324 -1.9374784413360697
Ni 5.280532299409619 4.777865708672987 11.997815691768055 -0.23662453747041184 -0.07632036912929437 -0.01391121076445346
Ni -0.030630056534143545 0.04588616478698011 7.665471583017477 1.9948148131636934 1.713326839521688 -0.05535327995932403
Ni 8.807614253922148 2.0989350393905295 9.161879422347996 0.7426855167349339 0.008710126179488227 -0.309119619316345
Ni 3.8713325762668727 1.1250660733931033 10.705750812673365 -0.40767026059874956 0.7368779089142212 -0.431838630314837
Ni 2.6327410896190226 3.1520166292502996 4.591430721267702 -1.0016876505695975 -0.6173712342054399 1.6178196130512976
Ni 3.4313067754675366 5.570891985309153 10.613852292202774 -1.5077486298341194 -1.5350066942191243 -1.4868926123207167
Ni 1.7517430562956267 7.689952616963643 4.5598829971102735 -0.0633308988481619 -0.17687904198066312 -0.053559421283694855
Ni 8.648678675365502 4.186921162749951 7.550540440289245 -0.20127983942253078 0.6165939897197832 1.8821063923236683
Ni 8.808282323374893 6.642484666255415 3.545714597124452 -0.9903848239622686 0.23166487947229134 1.2452919617919522
Ni 8.633795572557116 2.2440916854842987 5.881430152304324 0.5001870369822483 -0.6870152197558232 -2.2768794852447756
Ni 6.965737493960269 7.499562101673559 2.3032046975614007 -0.7751580354413424 1.4577494150978572 -0.8871619740151753
Ni 8.086442558425727 0.6075367930813637 11.108761854293638 -0.8521062679626229 1.1681835495437236 0.7690251830707272
Ni 6.217508985627652 1.8426468955810178 9.670342443461433 -0.4402600216093127 -1.712386844205922 1.6320362708713119
Ni 4.585972037114227 7.254686811015118 11.589589069045168 3.0579824254156427 1.84365605876727 -0.2712475268609199
Ni 9.542351470806265 0.9911181481176203 13.150056418025825 -1.7761471172820185 -0.8055304770856127 0.867912381756944
Ni 5.585923547995928 5.813939363714944 9.659709004671901 0.7936373251924524 0.19876041543478673 1.902922300627755
Ni 1.1764517488001152 1.6290131305808297 11.098712976275255 -0.4561944334513821 -0.1693721920806567 -1.216877415205001
Ni 1.1186359049104273 7.137403507088678 1.9620253395412082 -0.329198135233775 -0.9780833808870962 1.799346438216617
Ni 4.049438036620357 0.8281426051203435 1.7414121045083089 0.6540829878041766 -0.15699644412412317 0.008846651757352506
Ni 6.279323967491413 3.749669705927989 8.607270431660398 0.6539708877063447 -0.29842100195191834 -0.5578558524486263
Ni 3.898055354376695 0.6678913008914845 5.316446599740131 -0.3219597085038068 -0.22467379286643888 -0.8108200076193263
Ni 8.232313667684238 7.310127296850599 8.000118706388603 0.08491530988715698 -1.091172839215624 1.4689023463908832
P 8.727928414197443 8.395870059955708 1.0589336926909731 1.4677052407589886 -1.328551738353557 -0.3780997460304843
P -0.07592887692725153 8.14629044690085 5.841613212920688 -0.11474550587471205 -0.39777254186906336 -0.4317237020035275
P 0.47367237648747407 4.9794092723269605 1.7375957577594998 -0.7986265508769278 -1.0078734676653351 -0.7139611522170478
P 2.440225742319513 1.1301601029702881 12.903042377244358 0.6822807903946314 -0.08710640400120483 -1.0460911163856372
P 3.0451811892654073 6.599431301522924 3.248385647808845 0.28546855555630835 -1.203198632166328 -0.9054615436553116
P 5.599832382852394 8.739721695786882 6.188876642332065 0.25244427811148784 0.06551016588766782 -1.537081574470282
P 3.880286562682143 3.036227202850137 6.414012336410355 -1.3155843795596116 0.41017554351910646 2.1322181656472377
P 2.2384687675903567 1.1215587087661891 3.4403850970309566 1.6653089168815125 -0.11778069315661006 1.2888662468384773
Ni 5.791763169380752 0.293410536400406 11.787713416125019 0.35620680261213494 -0.7917853595853783 -0.05277600615045104
Ni 1.2867481596999255 2.808239223358319 7.163811735831165 1.0618026135836232 -0.2931792939370048 -0.16074922629833605
Ni 5.9556257601513956 6.145060564974356 0.40558589263606337 -1.1762745540819741 0.29245398573520603 -0.1292598974408032
Ni 1.7728985889659026 1.1364139753473783 1.406248155185546 -1.2576314571939113 -0.47520928399098805 -0.6706781731586966
Ni 0.16197807818935822 3.470852775573113 12.786862315789186 0.5949697265817883 0.03088049162894037 -0.7246939652535197
Ni 0.9022129499450265 5.706946185109264 12.105208784171143 0.8653081113648774 -1.3277025029793843 -1.2655473696068784
Ni 8.682119262972376 6.1354849028183365 13.710477612952308 -1.027635737893927 0.377577297868111 1.2914098391959372
Ni 2.693758099636449 3.2774188327760787 11.84011975319595 0.6074341775973862 0.5267491037414928 0.38758248870993894
Ni 5.786947502075543 0.4844886065022725 3.32219525997211 0.10389365076187268 1.7044573049462002 0.32891917054077546
Ni 1.503286171071077 5.031797051913092 8.778152391056071 1.0625302357782667 -3.811073710864933 -3.764855046217025
Ni 6.606297570898364 2.682103999182999 2.168976554265461 -0.7155266969319548 0.27816070904098544 0.5452402205671449
Ni 7.0326650628860135 7.572873445369985 10.589828700256891 1.1060546414234627 0.1022255190308304 0.3211364412715631
Ni 2.3551767894880453 8.441178159091216 6.7088016939312896 0.16817482933844585 -0.7381362068013546 2.2519942919673213
Ni 5.401573494007753 2.4214270102186455 12.427512396528556 -0.35060514015464134 0.7867537106987419 0.4108846537709892
Ni 3.2708123681878174 2.7807370308869603 8.687123288748289 0.4239710546413021 0.4267936116917618 -0.1951683272081542
Ni 2.271046432154102 5.8406435843399676 6.261436407894151 -1.137782568654363 -1.3070999962376841 -0.04884298964463201
Ni 0.24882710704627975 9.196644086495242 3.326323372465533 -0.7465642829640498 -1.1579986385909218 -0.5344567567983958
Ni 4.642145543599249 4.65341921561433 5.100450466925095 -2.0204281428564235 2.0371716808633495 0.9990527840499116
Ni 8.819639504071569 2.9473646868925796 1.4206840226102893 1.1415052689215888 -0.15564558652318355 -0.019763298669856287
Ni 5.59423730118565 7.557906833880005 8.001788880020467 -1.366639032143582 -1.8453288184840027 -0.45652636286950404
Ni 6.8742769301309234 8.125858656137714 13.184495398314857 3.336378904616519 -0.6088788804637127 -0.9091652177591439
Ni 6.387152232913024 6.17973522532033 4.466626996626674 -0.670351385946897 -0.28691505819484775 -0.6827363898748113
Ni 3.0025453679408822 8.499791974827238 9.27042771817979 0.9587918796473359 1.000375359516077 -0.8203176626971164
Ni 8.372450514140017 4.031929049712984 3.6596538422902056 0.23047060205387407 0.9489314419134883 1.6598445513328317
P 7.529393258487128 1.9685037574843602 13.06056109183664 0.048818307054283666 0.01741819547644742 -0.23534952741273013
P 5.477371540667176 8.709742079094926 9.819047280648673 -2.3606357418268247 1.740022089424687 0.279337502957906
P 6.073799823348164 4.128734169164294 3.6744562200397195 1.5352828306986461 0.8253829930351656 0.2175754912587608
P 7.45280651872377 1.9018174358609954 7.509744593582489 -1.2799915700566666 1.5247917013593353 0.8543048182758385
P 5.321497947102279 8.627244780423249 0.7201705191915436 -2.1434752266182957 0.14506241169069858 1.8503319281255486
P 7.731187348185882 1.2014950745356738 3.9493092716416376 0.539330282840613 0.5762549237811043 0.38260766120316686
P 4.670018885766577 3.324257924407461 10.322159251020468 0.24465254998121092 0.5440767963866631 0.16402712571865946
P 2.8297844632093625 6.713179404595252 12.332829325463951 -1.9301135163305663 -0.1561091564231634 1.8767335580475293
Ni 7.198531862014894 8.360304640339406 4.61772203785596 0.7802714454085078 0.22898964663297341 0.8719682969938725
Ni 6.991671578966155 0.04178867214347408 8.29940361460197 0.8906010816037114 -0.2548608579727804 0.5865722465467124
Ni 1.3528499205521378 0.7224716473065561 5.469931845011462 -0.8711406588862546 1.1962527969761139 -0.6500754093066804
Ni 1.2236341539002695 6.658286364561327 9.99697737277081 -0.8925286376437275 4.21043390893609 1.4780531596522157
Ni 7.8722242326543865 3.22280415501413 10.92197798617414 -0.6146553779361738 0.14651585630777347 1.0548007283444931
Ni 7.087660169086331 3.9721832274042534 13.779736929842985 -0.6261086140784378 0.48467274339673305 -2.135524090092019
Ni 7.09712448633356 3.958961019485331 5.838122550030092 -1.7064992750768933 0.9772264322034397 -0.22971058395939797
Ni 4.357714974092831 3.14809172121542 3.045589453930974 -0.4056730276630627 -2.869944538604683 -0.269012209772498
Ni 8.089430313478283 5.431831472971687 9.962917893045907 0.45430364418657243 0.25760448215618864 -0.20347838973574636
Ni 8.164235534700985 6.143074914100918 5.98919068290642 0.9164293555207248 -0.027952262238551857 -0.5260088831413586
Ni 4.782978295734971 0.7397013440677118 7.693854328142524 -1.140917514738919 0.7446027883623046 0.34180245426134687
Ni 9.206516668408037 7.788223777714033 11.885708998226153 -0.9377219463509142 0.5926534197437857 -0.04022979405432427
Ni 0.4009975545196373 2.2526188497492035 3.472964617343181 0.33280487874842685 -0.41138293356364636 0.8958736428565602
Ni 2.388339014822942 5.018593401478967 0.21989784399391757 -0.5448843798896229 0.471998233252858 0.648692927136857
Ni 1.510031816795327 8.066094276344185 13.664711143942279 -0.3970130379952195 1.771317299993543 -2.7250132531752103
Ni 1.4235075439223792 5.236309813134823 3.5857356688408704 0.6436988163563753 -0.4265637550691428 2.4108979804164865
Ni 4.318632911107216 5.008934230641355 1.9453208195998495 -0.08522229960461451 1.9247352827377884 -0.34392438570035605
Ni 2.3159369878816434 8.659367786609431 11.383438609789971 -0.5641702247024284 0.16392865246758218 1.3479237151222656
Ni 4.40300451574354 8.089931365567843 3.605807444398914 0.19326982463386072 -0.5078581803742608 -0.24130343100331988
Ni 4.354254003177913 4.998838958910977 7.941641288165849 -1.7313348460633342 0.46384372246652367 -1.7554109131759315
Ni 4.121246224048104 7.17135442552751 5.780012570006349 1.077180381591274 -0.14824492318373825 -0.244828670547759
Ni 3.3241465794986707 7.284916953751854 1.1555040599595825 2.670360855937653 -0.017107863324880214 0.0047226022866499314
Ni 7.541826773302114 0.6517184528896027 1.7510814819625606 0.3540681590025773 0.2145225633650499 -1.2283131678457686
Ni 5.358956230168026 2.493893988356739 5.12481366084279 2.019845016659444 -2.3247567685420285 -0.5423801254105304
P 4.054077407819979 3.698942821231323 0.23526900865250475 0.9446207303532763 -0.4573583718524962 -0.24982740931393102
P 6.760269022271415 5.628939797758822 7.816620440952678 0.7091107661032819 0.5302918267874287 -0.9373072274109986
P 0.13162174455599238 8.796349860649467 9.939913107015464 0.9373884742708953 -0.5239599710321299 -0.9560413134853922
P 0.36632567779638314 4.33160459298136 5.668314141130012 0.6411711648385151 0.3572324156631719 -1.0862417204625938
P 0.6401395102495865 4.170145196492118 10.429878955156008 -0.6225208967271796 -1.6365678401930783 1.7784629098993887
P 7.212561320522552 5.893569530985253 12.074041488452083 -0.06300668273952374 -0.10133745999892226 -0.32869214213163395
P 2.297045468356783 0.9739060809670232 7.986606073832584 -0.09903812244178427 -0.5151349165413321 -0.2960638145736514
P 2.6838576814964563 6.753746066364746 8.218803818750938 0.804541630809782 -1.375824812407908 -1.0254137905419438
