# total energy = -381168.08096812706 ev
CRYSTAL
PRIMVEC
9.24298392399699 0.00000000000000 0.00000000000000

0.00000000000000 9.24298392399699 0.00000000000000

0.00000000000000 0.00000000000000 13.52804126790775

PRIMCOORD
 96 1
Ni 1.4228279509374075 0.608932392823848 13.14740221341338 0.30129420973465526 -0.36495163868430053 2.273482029527452
Ni 4.173937371741267 4.628793846468301 0.3989965022612679 -0.09659788843140783 -0.19708739860773797 1.2669046549657215
Ni 7.521893984078498 1.1901081053606613 12.149749667693273 -1.8992129700969678 -0.031321692931417025 -0.42655269932554923
Ni 3.449463060193448 0.440918979487334 12.163954285164175 2.068312368132212 1.2659212080065294 -0.0861520105077355
Ni 1.786391474883541 0.3433694529867214 2.0334000490835735 1.0235137453057535 -0.5395007469802064 0.24226425225469245
Ni 0.5366818372235498 6.297864128250497 12.054498871258392 0.602597161220059 -0.6954147566734281 1.0304593233856512
Ni 8.121356940021204 5.904510467586045 6.312914478737137 1.3787579268943029 -0.9839092435402538 1.4227734132433043
Ni 3.897895661194379 4.473326859312813 11.631368938351287 0.7757807566270059 1.250304070294563 -0.8576775914028133
Ni 8.585206837964783 3.7661461704146926 4.451199156146925 -0.6689236523614351 0.8426299530410714 -0.6324402127234204
Ni 2.6597147972013935 6.952766500897047 3.5165329233858604 -1.0704551470522983 0.3252283519527496 -0.32524943499867215
Ni 3.3832185954524623 3.0881917962243994 9.198797694613031 1.1167866831289863 0.9019242199260145 -2.3216321068701173
Ni 0.5450790879863774 5.649394872313832 3.6056426813982636 0.04474902208091648 -1.5335265101291717 -2.164710224737672
Ni 8.396086146871536 3.902905358402362 11.729934268769163 -0.055188729357001726 -0.6865483074217337 -0.1353374710934508
Ni 2.7717582465651764 8.224148162622642 8.707540501169245 -0.7191352402188196 0.5143784979912818 -0.8565583901967055
Ni 2.5652052880655516 6.730167722557829 10.908227465064337 1.2325637155920062 -1.5116466793369447 -2.44138509326175
Ni 8.095069894154962 4.877550268900861 9.610293483838053 1.6699456443225755 0.030154926316825488 -0.9620836630247301
Ni 3.9952520093340196 1.07225081920016 1.1142047225710734 0.052325548876593755 -1.803124931422443 1.0717898067033218
Ni 0.2626430812614776 8.027087748463606 3.0947561633039373 -0.7375939611446394 -0.30305027319381356 -0.5939184024991384
Ni 6.286227211673284 4.473567176891056 3.552165550150612 -0.4032261087844668 -1.2191870371747842 -1.256328936332404
Ni 5.979055131760183 4.211879820152282 9.494966926636124 -1.5282876303277357 -0.27791773979224393 -0.07495279935780641
Ni 1.065836188457835 6.7798025454487325 8.391903696711735 -1.1598079238855186 -0.6256239611325354 0.7267595895332967
Ni 7.820747378590887 8.48922769440815 5.005077564690498 1.6641652901953725 0.6624277602244463 0.605264680749893
Ni 4.922323282324236 7.199443251979428 8.400020885066072 -2.356963178071244 -1.0908133989936761 -0.7298747381235107
Ni 2.799995562008697 1.1147315726464517 5.34697183746616 1.8139168798316243 -2.2652316165932023 2.3177739094662924
P 6.280367159957672 3.737548378603808 11.664918196572348 -0.5611826028290142 1.008436796367973 1.1218756676161195
Ni 4.895685003074409 4.935623935981593 7.411148249637226 1.8771493054287092 -0.6770077149211502 -0.6524009721160635
P 9.26766254525524 7.167046593835552 10.28091909619032 -0.7863924707045811 0.9688238099620411 -1.1662984167058688
Ni 6.833642925958882 8.314322712366337 11.039463045945936 -1.087383804486837 1.2395126361060136 -0.13814023064956854
P 8.518296878391741 0.7683257994884711 3.5509750538399323 0.7925680033876737 -0.8078547543434151 0.6937160288147666
P 3.5157075249344345 5.199677496567681 9.113165147098123 0.13056524651578805 1.0526816251189612 1.540323221336031
P 5.0268891578111585 1.457618541879932 3.568251114820451 0.44998676197877335 0.6871175496616424 -0.3190587328069279
Ni 1.1413790948800588 4.221788298762905 8.468580717243588 -0.004532083542398647 -0.3592795280001877 -1.499134148692231
Ni 5.409068051087324 6.3060718978458645 13.144156077510347 -0.7046347326097994 0.3436611047366404 -1.7907142164629162
Ni 8.564826058733045 5.061596561899676 13.690512545854922 0.7882655193575779 2.5433401322400133 -1.850860546935509
Ni 7.592371735390068 6.39133842320314 4.189688340398321 -0.7671071401124079 -0.1450708963311308 -2.22059520883075
Ni 6.382714719337739 1.4168754693840109 0.6780893217534603 1.1440468043965202 0.09666113756917546 0.011047258953097104
Ni 8.796519933110371 8.452634721628804 12.269906608217882 0.6580910805223054 0.5484803247709973 -0.8783780571749583
Ni 3.449952938333712 2.888561832574921 4.0776356480507605 0.5400270517973216 0.3865897857793664 -0.7655382529633913
Ni 8.414729245152904 7.913103272506324 7.531493747030917 0.28598843261552037 1.8348639143969367 -0.8299855248041834
Ni 4.4311233953798785 2.567183286594165 13.045293123014801 0.6606485568368364 -0.007880174079025137 -0.9323763657682845
Ni 3.618369345762972 2.818176511101137 6.831268403426169 -1.4880228692704178 0.7382945867560898 -0.8286837752736245
Ni 1.7576642812997565 8.95249528437368 10.81825256377026 -0.3685203298721653 -1.729118812248622 0.37122281640499294
Ni 5.122082647746614 2.3067807046006115 10.719971917252764 0.0933528991315489 -0.30299525158616203 0.501436078898001
Ni 5.63870074008203 2.4992381128379226 5.763784190960615 -0.24233290070909877 -0.025249261485092 -1.0659585447335254
Ni 6.936720681057454 3.7539177028756496 0.5519004100149595 -1.6376273918058444 -0.6863171652475342 -0.9041693072064492
Ni 5.2833727146826 3.007121585502593 1.8679515637456114 -2.659416441111007 0.3002796524272119 1.497612569841382
Ni 0.9088330173983493 8.59322974788458 5.296349863907707 0.8359078038258895 0.06371836409456769 0.7474004057120999
Ni 0.9529701135377598 1.9839972250855136 4.881985976816194 -1.7589598068694547 -0.1073291588059829 0.3787335229597413
Ni 1.794599244478908 1.3523409566420597 9.297673589285866 -0.796603349799312 0.1737322688215653 -1.877569680795579
Ni 5.73154651213773 8.88189737427299 4.591782166523787 -1.8402665734697465 1.2690463838990724 0.5857363809089783
Ni 0.5121500339768565 7.558773489354978 0.6547923811395836 1.0350166037390303 -0.38004607112357774 0.799800773690687
Ni 7.342487668936523 6.162602303634957 11.473767746241327 1.742833333621237 -0.9436380547250329 1.3535454321844174
Ni 4.267827600963945 5.436436526055661 4.867781359345294 -0.4275394887188508 -1.3215197712074402 1.4389230264199735
Ni 2.7513959533009946 5.67384256440814 7.1863930831824705 -0.49697007270684723 0.592487840700199 -0.9626611327947551
Ni 8.906160206691727 4.0404039850923175 2.0554103663554737 0.06996923010028594 -1.5020379526025875 0.32861603747805984
Ni 3.599772462400496 9.01324017376642 3.6552091062092047 -0.03539586300079065 0.6998756206582591 -0.9512526338474971
P 1.4735349599466234 0.36469578945900777 7.15411473523096 0.5728541256296714 0.11379239793282336 0.6051734065876674
Ni 5.088096196392826 6.931738712800808 3.4973093657231975 -0.4525789481859818 0.733410262080595 0.03191536065135794
P 6.31584173169981 4.856106546534587 5.5278413169402825 -0.32163369262295577 0.10638273573231356 2.1566721849245436
Ni 8.87280227823488 0.515712279925116 1.3710940464303933 -1.6866315896186888 0.008106945377850555 -0.14676448198346984
P 6.528495059493289 -0.06142887019235274 6.698679649719388 0.5480674056032948 1.376708757674758 0.02838446467996402
P 1.233235867671452 3.2464594074647932 3.303128141011184 1.729680598289363 1.3738368354436017 -1.373008168894719
P 8.462099537018057 6.231601177541955 1.9015285509180102 -0.8772290311721797 1.1561654420369252 1.3179276829808078
Ni 2.6846708534035235 2.6629221125725566 11.103653719691325 -1.2728354186278596 -2.529643865699843 3.2429545288170862
Ni 1.2731932865461952 4.407905020128119 10.780522703986152 0.4391935280180113 0.5274769830464529 -0.24225191095951826
Ni 6.575532603942413 8.506105382787812 2.3749966977815657 0.4215989548646997 0.43794242921972965 -0.33308435766205857
Ni 7.222670870214965 3.5911025436162007 7.379532623622639 -0.5569487672533247 0.39247915468060796 -0.09068666515329543
Ni 6.172834286677829 8.9954381870089 8.824977231567821 1.129620601668861 1.7453918383770328 0.07076652919060071
Ni 7.32064649826777 7.363469242113869 0.25368755427842454 1.4760348436706063 0.29312530077061777 0.13555704330342463
Ni 7.249410822286358 1.9774716785378457 9.510591266415412 -1.2176178929154513 0.37040829092349753 0.08250592911471596
Ni 3.3170388315979267 7.540786642921888 5.697510148671538 -0.10811488793207188 0.3253113985848591 0.15502492222004916
Ni 2.3548349772653787 2.568301687631371 1.4744620312196135 -0.8753775797857375 1.429508675084609 0.18955046680074453
Ni 2.010848092962249 4.349286017004451 5.340911213002554 -0.7561146456566461 -0.5887767103971989 -0.05869699962057633
Ni 8.668892813095924 0.2608813685532828 9.78461523360344 0.0897718666485099 -2.256424045603901 -0.7967270198613698
Ni 9.057754383643996 1.9935267413612157 7.76655668899553 0.9547817300466781 -0.6083011535833718 -0.07871663727561282
Ni 4.175305333340495 0.5218542426459735 9.808641445637445 -1.0699938911451639 -1.35025981945461 0.2784802971639333
Ni 5.490822242608746 8.750009238736624 -0.042014907063851734 -0.30358891930610293 -0.31063605596087146 -0.5143828688666561
Ni 3.2094135284802987 4.940883193751598 2.688765495217428 0.1404976751381516 -0.9197933868969513 -0.7265857829595939
Ni 2.67025179870896 7.63948322370942 12.938610604242587 -0.3580896214571446 -0.5016769912642134 1.0668679439216724
Ni 5.3982352740988455 6.363701901705228 10.472083410997012 -2.6542071289959255 -0.8920007901647153 0.3748485860830383
Ni 0.41543422461307056 1.4129009863592272 11.42595933694507 -0.009287338839196907 2.8741984287850304 -0.880996725744728
Ni 4.287117708109813 9.156016544193935 7.124854221483152 0.5226322533596419 0.8111789336206418 -0.4216218376828352
Ni 1.3996188186694274 4.151486164143129 13.157115665066275 1.2493175380115773 -0.25495033236279313 0.2664102533732767
Ni 6.15974622164738 5.997633529155102 1.7837267226601805 0.5551855047053148 -0.46981768066177154 -0.3621023421609635
Ni 6.031592251557555 7.144142480032265 6.284329627103543 -0.7573829708461085 -1.0926139425375248 -0.2929265544962504
Ni 8.932946373682013 2.418084715262109 13.440636798086778 0.539106082644949 0.3639293680673732 1.8435856105406505
Ni 7.953291765975531 1.8876298762101795 5.610348811639655 -1.1620008177717795 -1.8169839487927226 0.097282058982626
Ni 7.271538525452247 2.3157094269307072 2.7949063751402186 -0.01593852560712739 -0.6843045056928796 0.2344439848793253
P 1.259744745148381 6.416054161827028 5.254332183948722 1.541418768393055 2.1264686647579705 3.1140823537330045
Ni 3.8344148486031844 7.842440661519183 1.4307260805761928 0.1392064671305538 -0.7628992726786473 0.7574207660625794
P -0.1339483966206074 2.901206234384 9.801404189338827 1.4976673343387175 -0.020464438501938947 0.014423117403865484
Ni 7.066436715405857 6.863063343326059 8.978114062512732 1.2917039733975881 -0.7363474903320479 -0.08720924812765626
P 2.442929855658896 5.762898713114628 0.7262027495144102 -0.427260009805219 1.1710462158034993 0.02582698836543294
P 4.667900910835416 7.9609357135604055 11.618680170220069 -0.6626902698572136 0.4773134748181844 0.24214263907516362
P -0.013633401073385539 3.835875240040198 6.442594465448804 0.7210687097961066 -0.29765069944479705 1.532624824250509
Ni 5.169184893082189 1.9098869811489678 8.206245427341937 1.4952682379789217 0.6629905747064517 -0.28794272812841376
