# total energy = -340883.68544940464 ev
CRYSTAL
PRIMVEC
9.11879434026026 0.00000000000000 0.00000000000000
0.00000000000000 9.11879434026026 0.00000000000000
0.00000000000000 0.00000000000000 13.34627725882881
PRIMCOORD
 96 1
Ni 4.885001967320359 3.137713305857799 9.992972134802248 0.9268492653024684 0.2629420923190181 -0.17961135331016162
Ni 4.451950423420346 0.8296807993888761 6.48188614657756 0.23773011182976478 -0.962025298982969 -0.5367825767180949
Ni 3.371282104456555 2.5831538271827252 3.2129698037868875 -1.4810639214540815 -0.04991565388352048 -0.9950110098803703
Ni 4.818580669241443 4.348479463878686 3.1745322618233724 1.5913922720977045 0.5242859869129809 -1.0857377842429818
Ni 5.0405321238324365 4.959940219326471 12.066182008448658 -0.05563121621105903 -0.7133636278423651 -0.40094039807408366
Ni 5.800775127969895 5.782583133232466 5.351376321430389 1.01514069075071 0.48752512524386354 0.8123374727051171
Ni 3.337551684138885 3.260388446310249 8.336337967415957 -0.9178830572481159 -0.24004204779239302 -1.1399744340993594
Ni 5.389481027399962 8.120787906461894 13.032292737694464 -0.5506817032976904 -0.04671848710246147 -0.20053704771923528
Ni 1.8230567237549404 5.93214047944228 11.899087396936073 0.9801569755866734 -0.46405198182258783 0.8264957664833701
Ni 8.089501323031257 7.476271521478679 9.776882241222392 -0.5421628671934017 0.0105849746046979 -0.44257350023383774
Ni 8.100297975547104 -0.07436103232346661 7.519719840940047 -0.29803559358804155 -0.3219607369450713 -0.7789627538994133
Ni 8.244575539825604 2.46928744207682 1.6214921577025287 0.07082283634983287 0.45410335525030826 0.23831632335053796
Ni 1.2361255251210328 1.2741508975797198 3.6541571360100744 -1.2618143849270074 0.08130008173207288 -2.5834876509931766
Ni 1.5366536306656253 7.056405754215421 1.243377702271247 0.18942731095931892 -1.8385300503946143 -1.6032093193372905
Ni 7.611685617644508 4.3930521306839765 4.177571372567008 0.44011424006006783 -2.0064423701002925 -0.03865936424341084
Ni 7.2499248080087675 4.269683961860577 -0.3804196866441248 0.7742638057618472 0.39661631677743303 1.4396915291548817
Ni 4.447992866670449 0.761309903076947 10.73877461619976 0.38389449833539047 -0.6962506223111622 0.3179392744905041
Ni 0.15092060596582754 0.34486094805835726 1.012707768397819 1.0471848636704482 -0.05059211112525481 -0.6478305791365617
Ni 3.1865900435984615 4.810091071697308 10.369243681894464 -0.18375340050299319 -0.35431215669258337 -1.1919801377426893
Ni -0.4363078653640402 4.871296419405392 1.9560032741684137 1.2390830047677628 0.16145679388832193 -0.40103707155294804
Ni 6.541750119636082 2.382804796417782 7.384254679525833 0.3216064389294461 0.005215739872984566 -1.683080896152953
Ni 3.3331473064656123 4.552694863449981 0.678679948032728 -0.5473832350520766 0.20138525465214352 0.07763266018281469
Ni 0.5767163251978835 0.27416019978882766 5.675917860028389 0.4144320048026152 -0.3418693029435403 -0.5491493258135639
Ni 6.862312216377734 0.607391949406762 0.7725998823673788 -1.5059334310022516 0.3916219488866352 0.25786596334769135
P 9.240439071291604 6.12001499953013 13.054274503365665 -2.038368272274612 -0.6374615771974118 -0.46063395727997447
P 3.7746428539379853 6.439428128183101 12.950519949319578 0.6040390358729081 -1.3595931810403938 0.8278371110026131
P 2.107344256553988 9.017256579462739 1.8099685182177814 0.6268251805294883 1.428624986928075 1.1388994558676258
P 6.5796751853568685 7.866400900351583 6.306262726705117 -1.2448332769879786 1.29857756058897 -1.5018098957521815
P 4.524800471519255 1.135299015942207 13.192007508935868 0.33028828297416024 -1.176736324209741 -0.7823846350967687
P 4.271516839525852 6.131231116586289 8.703480689479782 -0.9623888529699749 -0.9336619173489276 -1.5658666170227744
P 4.644785567637098 1.4185014122130573 4.362417541049694 0.15036762595369588 -1.6046918174200882 0.4939050606282784
P 0.29179138867344906 5.899942016576183 3.884486938854076 -0.89677687139712 -0.5289926483600309 0.6034242851070446
Ni 2.3947139418448913 1.9133510254542019 5.442798617991315 1.212432749170086 0.3108869956294129 0.479648036488632
Ni 2.1064688522959463 6.741807348981677 5.400437258817015 0.547717992683676 -0.294727355150415 -0.5537256323303367
Ni 6.7336916220060825 1.473752187207586 9.384087438759638 -0.8964500841853206 -1.3016446295500679 2.736980195729099
Ni 8.911815960340485 2.2306485938169063 10.689687234309506 -0.0026778039424792594 -0.6687601302003773 0.7443472207080729
Ni 3.4732667005184146 4.351187745802003 5.097971409472069 -0.7252791483330284 -0.15141946425697794 1.6259139600236576
Ni 1.6073060493250757 6.900319351247711 9.707695212815725 1.284739112043981 -2.045387383904923 -2.1764108010040517
Ni 1.6016341592365135 1.0697804785043972 12.112894856288973 -0.9602620364349591 0.3655748740905962 0.4940554701632136
Ni 3.6692751851705685 7.421394617052689 2.103600079591989 1.1533156312929558 -1.5195157976723765 0.08598437458161966
Ni 5.854384519980595 8.392345602341917 8.350379086963173 -0.4173802887976618 -0.2405704094920373 0.31648248743931945
Ni 6.895969686340567 1.122952168386077 5.203793194198346 -0.4476714835820355 -1.6198284159512102 0.6191856617063595
Ni 8.51084433497996 7.524318448933072 5.13321828529091 -1.1942668768943367 -0.48747396029095397 0.8578642534923225
Ni 5.204916629662833 4.322162623371307 7.566832091973095 0.5394395547249677 1.5591416395941147 -0.13810783474973637
Ni 0.8447532545775964 7.431097014245984 7.305938826090776 -0.16488150329915474 0.23272623085727015 0.8526372007654284
Ni 6.236042538898076 2.496251716983376 11.846502957410829 0.34225831085184283 -2.3587596078500344 0.6884699499244789
Ni 0.863661074671862 7.783966999385988 3.3561084306504982 0.5280896769297873 1.847529168569431 -0.43576059107706244
Ni 7.75293574219728 6.417725397619151 7.280554838245873 -0.6165968179332607 -0.9482580699955474 0.898636293203362
Ni 2.480822716935391 5.6454091097562 3.114353690359617 -1.437396305362802 -0.6889180932054909 -0.9592994154113738
Ni 1.4873118344128782 1.2768227043256182 7.611689265162248 0.47211110468163847 1.5113057510577586 -0.38936863407608424
Ni 1.1496519982563493 4.0102451436778175 4.3745628632505875 0.4438230563702228 -2.0045119858467992 -1.9862000749114892
Ni 0.6187329939455796 7.93837554419245 11.354158276978893 -0.08608156228111627 0.21468479997452705 2.8473172881234703
Ni 2.2480837286229036 5.400150016794845 7.624915164494163 1.1748254803402733 1.270371016247767 0.9993183790064726
Ni 6.14092439498523 1.9684650185334118 2.9746847647479324 1.139330372757457 0.9315839517739761 -0.15023007193456708
Ni 4.2834715789247335 7.2104130720702795 6.721398575336645 0.2092839406739299 -0.31578828958577226 -0.20678817083526965
Ni 8.370104862911045 7.183950330853228 1.315878500546375 -1.6014159748822936 0.7057662751110813 -0.08132013633673092
P 9.098331780069499 5.596970074144558 8.840333731394766 1.2562371479495462 1.1622209042023854 -0.08104785651195075
P 8.677955360322382 1.6072057425871749 8.609616379790694 0.25050823743103956 2.0639684893412196 -0.6003824129569273
P 1.7821771686632633 3.311663426966172 11.271771793743943 -1.2301167967134106 1.0662061419679574 0.3972603781193352
P 4.172696465105038 6.167186522726482 4.161182163473483 -0.32710500015017213 2.4851887207102616 -0.05567801028859444
P 6.68104882219697 4.228886475918091 10.775530652484287 0.5865431930809899 0.9752919341848881 -0.2698434474245417
P 6.053766958543951 8.362408600475762 10.579193891235368 1.9933333435221607 -0.6029972248719551 0.7728928935562496
P 2.5815853945537346 8.633948058767077 6.599574218397478 -1.597097550012598 0.1069136685351191 -2.510042546529148
P 6.645521999391443 4.146406980980723 1.8547317678250834 0.27927296826855774 -0.5673563357398939 0.714431406985247
Ni 2.6973940828571696 1.9424764546227982 0.8000729859989213 -0.6967352752570647 -0.38978309590568355 1.0080555017691541
Ni 1.0341989429327432 3.573792289483539 8.826319968230615 -0.0716414755963863 -0.2019095025867297 0.2088100863613049
Ni 0.7392260069089738 -0.032711850988260974 9.335760564318557 -0.20502285140473075 0.03183462801209356 0.7109239080526208
Ni 2.3506154523460396 1.765416824639506 9.985044254990356 0.6649063036719258 -0.698355841579623 -1.0217543394124855
Ni 5.1490640142409 2.818053969757253 0.8956087706932074 0.13530353253172184 1.2596669995667016 0.3044353264667982
Ni 4.251957025635232 6.971318284092636 10.664142755683962 0.1988367771986769 1.2936793519564043 0.8335483024547774
Ni 7.017605284236592 6.4697845945895684 11.965458541646038 0.559966728144042 -0.27804552361935986 -0.49677004088089927
Ni 7.817360024312538 3.8592014339882024 8.850143730361447 -1.3397802600795248 -0.2699558046326899 -0.2792320877282933
Ni 2.8570368156231734 8.246909951180383 12.973008719956894 -0.2626975804083798 1.982940944544243 -0.49484325617183167
Ni 8.904420618118904 4.633222936395463 10.963246505550366 0.2737453535821092 1.3521817190676713 0.11259220697713512
Ni 8.712004938442464 2.6282097900888104 5.903618714459959 0.6638040717466825 0.5360991774978251 1.5308492204073247
Ni 3.708841633875183 2.942115166951603 12.122890878660487 -0.28640752243080997 -0.6284146365037951 -0.17444652127977053
Ni 0.5176766911490179 3.6700411638963546 13.176846601441909 1.0053866966877394 -0.24348526914598712 -0.003498242961245588
Ni 3.249081141310544 8.757407415534024 8.530740632382265 1.2599737321738431 0.029939982092541985 1.484228178114676
Ni 5.536029171472758 8.061825782165041 3.9956888122495675 -0.4059918444550621 0.5835792253566595 0.7221349462770918
Ni 3.0037855731717706 8.80117762843611 4.218144536168371 0.7254460129281958 0.28141983940823145 0.5019317875874969
Ni 5.493389689070642 3.1657718360869067 5.3631614512542765 0.32474986965443425 0.058553274953860444 -0.2893280385117146
Ni 6.328516232448086 5.865117340935962 9.321440409664092 -0.43772080012722675 0.1320289755455081 0.5762014448353496
Ni 7.882951512105184 0.04747700280723128 3.0163385054803147 -0.04168401000234757 -0.05680775301766345 0.6368439982180709
Ni 4.43870081522311 0.38078899781548614 2.0995558942957233 0.5576861596399816 1.6538219992878356 -0.5499859627822464
Ni 5.422326924665236 5.745706728862458 1.0580099387514779 0.8040662338352604 1.2970253856105016 0.037676174394535106
Ni 7.771446894737121 8.703004688414472 12.076125141812915 -0.958268403043698 0.7002965102457617 -0.2686532837711825
Ni 0.32100709390615595 5.076277797702474 6.142384313961402 -1.072365990921766 1.060343255429277 1.3002351507970509
Ni 7.213604650094391 6.462580747049433 3.379637655723676 -0.1928139680433647 0.5251128536896504 -1.2261138462016046
P 8.328678180158091 2.1521996059842716 3.9147832212178035 -0.21342315965328407 -0.8229653847326084 -1.3777449122487562
P 1.7565624753211884 3.86428972123807 1.9964697478758275 -0.6310713574003518 -1.1054434902020251 -0.24464946465741735
P 4.642359968338774 1.5325775295891184 8.466210572252495 0.6055495589801636 0.20746848473174592 0.9554823556581287
P 8.282518843135101 1.5701104871526572 12.764019631540966 0.7676650694984068 1.113179168283386 0.15685786166372984
P 6.309321170331652 7.853525162722885 1.8492331348292588 -0.810291645919682 0.002100591282770576 0.2874107668843437
P 1.882912489898543 3.5951576246563692 6.626426332133473 -0.26767523612862937 -1.0254551853028404 -0.4410174686006276
P 7.255450797387655 4.493495650499909 6.328631129256954 -0.41182259220422623 -1.9074011623347151 0.9851207473498518
P 2.5891904690454717 8.603828681013828 10.660098570387696 -0.8071631275930293 1.1562770279141248 0.712393807729928
