# total energy = -340858.15576892666 ev
CRYSTAL
PRIMVEC
9.32506776606276 0.00000000000000 0.00000000000000
0.00000000000000 9.32506776606276 0.00000000000000
0.00000000000000 0.00000000000000 13.64817926793052
PRIMCOORD
 96 1
Ni 1.4958993740686737 4.85381892751147 8.627737208001292 -0.6688544896863965 -0.7460438916842054 0.8648334857213041
Ni 0.5623220932629582 0.7952044672514772 4.52583205377385 2.4766441735743605 5.58528170214271 -0.03321222508591054
Ni 8.234985874556898 2.236990473860838 3.134822905425638 1.193307855415177 -0.374294256241465 0.9140282022784
Ni 2.3808203169923967 4.714371866166208 3.2125352215372476 0.7325134612979384 2.345943172811656 -2.4676453125098603
Ni 4.4278591632216315 8.63647666138452 6.039401498495401 1.9180121050813421 -0.25120989148375444 -1.5184097090923914
Ni 7.055178317956483 8.693070496833522 0.48901120907290546 -0.49531659626382435 0.5695183763882191 -0.29085347401730555
Ni 2.7793830325840685 8.34558117665365 0.6444460988705185 -3.6408867361924653 -4.367161672779859 1.0906812442911862
Ni 5.9949834038514345 5.077583250370967 7.314264131986476 0.006896727119833284 -0.7867575673534837 0.16667279087162262
Ni 8.204688729825671 6.688041080279319 1.1466653337351473 -0.6180651749486711 -2.2621200675474133 -0.08030480769833911
Ni 0.1557090467859473 8.262196421902456 0.203708899906758 0.6027012908980911 2.071396663484491 -1.834732016804763
Ni 7.622748559281841 5.5337282585804655 12.517140856053258 0.9696290794721558 -0.580471018744981 0.551128818137438
Ni 2.5241652566071733 2.6262374468897227 9.787546224561513 -0.46103582070408344 0.1252299503458037 -0.16569448611875334
Ni 0.44048448963097614 5.278137479898354 10.99673333923832 -0.4888348451942226 0.5419821186411634 -0.347001481963783
Ni 7.6072782720829775 7.916861192345207 11.874147602719558 0.41178222588459407 0.9624420748054134 1.143029161765283
Ni 3.6394153700022076 6.435695425132593 7.895103012043153 0.959865829437805 -1.591677150327975 -0.06241455768147962
Ni 1.2555550809622948 6.693589495519418 1.3710273934297537 1.0159912116764631 -3.0395100776430684 0.5295395220024364
Ni 5.3435901295962545 6.191742330853242 10.251843206893524 -0.096860140953859 -1.6247610773661374 0.4089252160517732
Ni 6.891113078066919 1.9985951198892165 1.1930239749530045 0.045032614759606314 -1.7366377463334866 -2.619652788059824
Ni 2.1426301145086444 4.082067005350493 12.03029679269766 -0.04994496445955914 -0.10241475222350105 -0.251099076937503
Ni 0.6259740724014246 8.498605536468798 6.820172626068518 -0.5683148429984213 -1.1130503560150056 0.07233155968487544
Ni 4.35990739539878 6.1160041315589915 4.9803433101345 -0.24139444805522944 -0.4704861674837058 1.6279384466528546
Ni 4.695964182663763 3.884328946247491 0.8830736470261376 -0.025487859858459326 -0.07482758663385178 1.7671976213982146
Ni 8.087649805996302 1.3170539019848977 10.334770100824063 0.5828194643724994 -0.28039422635719446 -3.033708126249311
Ni 7.784603758142996 0.4964749932042916 5.576304652367426 -0.7057426209619975 -0.03895555532759097 -0.066132372852699
P 5.791295951600226 6.935658926137423 6.291769533804441 1.1373097427830026 1.629987358762083 0.7546054081009713
P 0.07204920253965726 2.015091164527425 6.561198712850091 0.5685333867671305 -2.2047286741121384 -0.09339377967181334
P 9.081114536138085 6.5208332925983035 3.1119895448257973 0.6258587028511609 0.20722448704173985 1.2012124549742345
P 6.242293522477734 7.065062889644726 1.7460527058154884 -0.5388564285279881 -0.9775287939352069 1.525351173407231
P 2.267054491901304 6.279910845298839 4.6765755020465996 -0.5569179140153893 0.7802809584902046 -1.7140773445344675
P 7.385537488899281 4.282947612244945 5.597773755572936 -0.20442429858878344 0.31344755726773754 -0.46895610399242466
P 6.0956195337188985 0.1332990442565281 12.251042591165191 -2.6299410573597095 -0.28017722525038197 -0.7719295012017158
P 4.389458534719573 3.9935068380644183 10.637759265764823 -1.3533178895546434 -1.1882862338308697 -2.4741949407029193
Ni 2.3220444157178757 4.299630158235762 0.7585317737813344 0.18829551134772088 1.7253644874125122 -1.0731985141253904
Ni 5.804276445741768 1.6684970508400698 4.8349356655598745 -0.5654940857201745 0.3486215340657093 -0.6524827331965924
Ni 6.262472968829958 7.698570684184765 4.177434472006772 -0.9195900126368936 -0.6589904524081232 0.22913054308621184
Ni 6.757671360275646 0.2765227579921095 3.065599198377997 0.3727932462159063 0.3824066009359543 -0.9214406926923874
Ni 2.502801526665887 2.396663606896476 1.9611064830014124 -0.4877022742516762 0.23403106571162277 -0.4354600291175081
Ni 8.311787131561015 0.5074636528999754 7.875681693689283 -1.5799048402833953 1.0863347943970323 0.4235997873448124
Ni 7.9229504615078685 6.393070540993954 5.454495023938335 0.19185828899831475 0.36846479404388155 1.5307857141592411
Ni 1.1097669736283484 0.7335956104308352 8.544647125387222 1.5997979796628963 0.938979472907099 0.6262479678697795
Ni -0.003544458206321667 2.60629112722826 0.2355577358916857 1.0563688441625614 -1.0767296672071005 3.685682552350917
Ni 2.6744853468095027 3.532540769889993 4.8965986077727734 1.0767558924593457 -0.9060999485702588 0.8709259717722873
Ni 1.1595908099776688 1.8007544850422803 12.100502429366784 0.382132007118329 -0.8705827295002554 -1.0826236640940323
Ni 7.758055290599197 4.103039082451302 1.5086290238909565 -1.8862438115308096 1.4446951530170602 -3.1695916996542186
Ni 2.07574140439566 6.928422673656219 12.44106602181755 0.42183652479680256 -0.4396064471857139 -0.4475262162534228
Ni 4.443329450420495 3.074036519569998 8.376556253801606 0.21507920719946827 0.9084332246891257 -0.8238788976858135
Ni 3.557821028236055 7.297546150738663 2.9245314402785683 -0.3135059213094988 -1.616084889748378 0.2911329529309373
Ni 7.999863619323552 4.706529484289026 9.273815193707135 0.9988753779317829 -0.1552573499458294 -0.5964943907564307
Ni 7.78380180232678 1.307906010639458 12.414629455085315 0.5162551461887045 -2.311695564482696 3.708488751612155
Ni 0.9183727580343197 8.632429582032918 2.536391352777414 -1.270980881917624 0.3652398593486807 0.46066763873138733
Ni 3.2402838252850805 1.317081877187789 5.518163788198536 -0.4097844787282749 -0.3167213429230029 0.9515830206037224
Ni 3.6591378880405405 2.0956783989894925 11.822189258389635 -0.15989099206309884 0.5807155306556192 -1.0445104021620786
Ni 6.316483760545336 2.8130465267298757 11.195655681930385 -0.49259714045013225 1.9455956711265654 2.0659340977080225
Ni 4.514461066305319 4.749676572214969 12.544013835950594 0.2151519694189327 -0.30705476636751633 -2.156047663966668
Ni 4.630707359386102 1.3968764809012708 0.030724232828699363 2.898849137454175 1.1386852829742906 1.7816960721247055
Ni 2.072701432348144 5.246907828404087 6.395127650913224 -0.39251617856613047 -0.3061769917482533 1.1016174315877156
P 0.20122563439677782 8.996536172730197 11.75877973100956 -1.8009011842982467 0.4541244382962308 0.8514357242581594
P 6.387279673995464 3.672687211307537 13.23188211224215 1.2883049750183684 0.11351137635729483 0.1145138494798802
P 0.24368546483835754 4.823167430210288 13.761595376508303 0.20755770201144255 0.7969262803563695 -2.148282675309268
P 6.3771899508193535 3.307340386615412 2.7728191174790173 -1.3961907776587696 1.774170453171622 2.931279490068739
P 0.14637278907437334 6.306366062166333 7.5129813231906715 -0.3966931927619555 0.17100201437459583 -0.5182032710540108
P 8.527615821867027 0.4781503028037583 1.5121231267320738 0.9135957427266717 1.0208485397687646 0.9839588658312667
P 3.843447849755741 6.143056152754832 0.25219272403758736 -2.1662055783362755 0.9289544845709292 1.7317223113097402
P 1.079441853694231 2.8311651331357766 3.5849942753110913 0.1467292578701602 -1.7920046531395655 0.48752975322955383
Ni 9.188343488820255 4.017462936806961 7.077235832929473 -0.7803395796422818 1.0556515063805625 -0.393479056700032
Ni 2.9250592391064494 5.756979702720289 10.175303984289819 0.10416618769696899 -0.7580301175118042 0.9910623096452674
Ni 3.8551414845642844 8.913599021225265 12.665114759239772 2.826818139728854 -1.0212555453991963 -5.232572114050556
Ni 8.737271317401701 8.160506559392752 9.721679541860821 0.3638753749009862 0.6667749814495484 0.07387036492690503
Ni 4.837630610105066 5.084847478055062 3.1104061483421526 0.31057666347784574 -0.605928282475821 -1.7415081870519105
Ni 7.109981740420447 2.4368359982483145 6.569182835755255 1.7129195767809402 2.5363762993276704 1.3887839436717373
Ni 5.804295095877028 0.9483314028105618 7.361473219372227 -1.6420666585241201 -1.9078462202919333 0.8647658657081623
Ni 2.2277027065009425 2.7660948112107238 6.985479032459692 -0.8351017629848263 0.13542000350492805 2.575936578118796
Ni 1.4538712942583822 7.297844552902836 8.921022707565841 0.1836148180425999 -0.299576198602284 0.705693512891617
Ni 2.847605227368202 8.43675236287624 7.513841094426196 -0.3666004871416332 2.678662948045445 0.551160956926954
Ni 2.279969710569432 8.356920458892235 4.810860205951663 0.0317531240418808 0.8078334141871764 0.12586809815043484
Ni -0.009308282508682684 4.435720195234074 4.643915385177825 0.8453578934951957 0.8603104010399699 -0.43481236823118025
Ni 7.4162076363357246 7.680181650817581 7.748767523239302 -0.4172059680033267 -1.0350693113538367 -0.5840453663598006
Ni 8.43322748731194 3.359849842442293 12.112759298260205 0.594747326158337 2.4465141869581997 -2.915596789226159
Ni 9.109751818831095 8.324245421915252 4.701824987669481 -1.744780944265911 -6.010820358381448 -1.5981321619246993
Ni 4.824500914881438 2.109311647865163 2.3006461830263567 -1.3172270573693574 -2.3067168803211824 1.6323527736704662
Ni 2.987677068244703 0.17341641770934696 2.371507371949899 -0.645033990228031 2.4323268397142237 1.6917437140342735
Ni 5.758247911918026 6.709805788128713 13.039879902238619 -0.4501127460336764 1.702293464525662 0.716776767288972
Ni 1.8948071171626706 9.04324543649096 10.73590373756144 2.7126711866700894 -0.08024078722962309 -1.3668611754567168
Ni 7.170370878395031 5.402571182358645 3.4370483473274667 0.0488087939725869 -0.17243720415922562 -0.1681779146622394
Ni 4.86699524807325 8.602207037842737 1.4477848226160086 1.3529211683368572 0.6357134841580535 0.10301073393628711
Ni 6.0780884065737135 8.270943335339787 9.92752201724142 0.4063312300723519 1.5470682533693485 0.1221821646584154
Ni 0.39934229124557447 4.267458674910822 2.186315258836861 1.263154701004986 1.0697120982386867 1.2087768975850537
Ni 5.373812673786437 1.5325095895856924 9.780708152468128 -0.4762392679173992 -2.6852352019463237 -0.36500948850542947
P 4.218791146947673 0.5472695690939383 3.9239474285820823 1.6992027414154798 -0.9778000453187224 0.20051904999710626
P 3.6971748389050134 7.620892870823387 10.797170364400046 -0.005193885496113636 0.3373927552294254 0.03143662124272651
P 4.306456107741227 3.8745749255060744 6.335157208475247 -0.6403880068155874 -0.1456797335597233 0.25185369571534044
P 6.855677821071333 2.9728781859152305 9.076653423783693 -0.6264258882085406 -1.1704368643542746 -1.55574495520774
P 2.5849926727603862 0.9975864100344267 0.06660895808407173 -2.0700103246599255 2.326297116445955 -0.011080426183877692
P 0.3325794695456008 2.857769551085357 9.895707684006727 0.5400432497472376 0.6927099561477554 0.259834657038288
P 3.645075686053871 0.8602468139736388 8.705068128846818 -0.9726025602781831 0.12242461968652464 -0.741164452104717
P 7.643832537194214 6.374159303839468 10.47359891018543 -0.36237153666195016 0.11225153580826475 -0.46970018124730073
