# total energy = -340860.4106791629 ev
CRYSTAL
PRIMVEC
9.40374913098469 0.00000000000000 0.00000000000000

0.00000000000000 9.40374913098469 0.00000000000000

0.00000000000000 0.00000000000000 13.76333739872165

PRIMCOORD
 96 1
Ni 1.173089460637513 5.793687295539086 7.138753455937595 -0.6821568632222574 1.7962904249991127 -0.5266853403830929
Ni 0.15041766509517135 7.572415798581615 8.596552698198341 1.7312001202576832 -0.9575052996254285 -0.2359766194737678
Ni 7.517450886419989 6.693579043923471 0.4593787746865167 1.0892519680438273 -1.3357120035474221 0.530406497988422
Ni 2.709925331424526 1.0276792918171178 9.764895146404855 0.4221216601373891 0.2135594281208322 -0.920478328779118
Ni 7.462984372948624 2.253937548581548 6.235204589616571 0.13058864355455574 -0.03155772020162307 0.22248449852460392
Ni 3.475982925850955 5.310146528498749 6.304516801433456 0.45600468603807914 -0.19829350310069724 1.142115648812078
Ni 6.462980314064211 5.230966962989616 2.5898338160693077 0.26679643306810186 -0.8470941594600121 0.6847025124622466
Ni 7.220819031975797 8.054367332062446 3.3306583311453024 -0.5436067987287799 1.8765371257660068 -1.5778402444448827
Ni 5.625679918177308 3.6224651220428514 5.9760955739247 -0.5066543898741468 1.2268633227731194 1.5150343648622553
Ni 5.080065004827494 3.1810531499527426 12.304258101898858 0.08428256139916453 0.4073660990947694 -0.43717701180861485
Ni 8.42944525960369 0.8616325960953217 0.172168536238001 2.3702282706112667 -0.8260252546048548 -0.46988221535111974
Ni 3.7711854104664795 5.667037605719964 12.948877564131482 0.17126863777242118 -0.3204957223637706 2.419783970052207
Ni 0.8237712223835791 3.5439814339503073 10.709802640643423 -0.14050950221269348 0.9845052252530399 -0.37689595553037025
Ni 6.498009278615461 1.5976499147475314 13.397549230351407 -2.8490008464734804 -0.23391947983442293 -0.2857367216160305
Ni 8.665893121261846 4.403540503419173 1.3111985588330521 0.44700942451800435 0.4398463311106618 0.5846012388632706
Ni 9.08514045725872 3.900863107422649 7.825392629633521 -1.136818404968881 -0.06040524056093467 1.2930265488637536
Ni 6.557948773930807 3.8043148177454196 8.501255107121198 -1.0297327296322718 -1.4882054175948691 -0.5945807186734857
Ni 2.863159419307107 9.06565588959424 11.77059817449106 -0.669325258675228 -1.267039894992005 -0.2345324308280735
Ni 0.0352997925187868 4.407179754232954 5.47926730972707 -0.07616661716024947 -0.8396816690460249 0.5433203778366127
Ni 8.138493269478682 3.23402446735333 3.7955702716685855 1.0751924046269679 0.8726648088402649 -0.2567336495154611
Ni 2.7477754206376215 5.163965252270783 8.62801576117702 2.0659040158010358 -0.916597248557157 -1.0297209025577299
Ni 2.921001878623814 6.472694386649833 2.0395884967745186 -0.4263704081114141 0.337993879148534 -1.0549555087548024
Ni 5.811723685877152 8.881671542897543 10.531182192303783 0.14115999131249884 0.06984658847949261 0.41671488729952105
Ni 1.801551401556859 3.628455310074837 7.049815620223138 0.5188488750578096 -2.0980438337583736 -0.8322622366535021
P 7.884366359939628 7.4579251560550475 6.913489472813885 0.17742000208579767 -1.9325488652449365 0.03191304665851278
P 1.0368573507169887 2.1662005715981496 8.715495075441302 0.7368771375832729 0.6751493215561727 -0.15934977484764815
P 0.7516294225308633 6.1907888029404745 1.2864441303002443 -0.03485953088134641 0.6642738122942495 0.8866917192469761
P 4.412389431108495 7.103714147262585 10.990863767704003 0.04548281492314748 0.6841263282438024 0.9608942707023191
P 8.776650475485903 2.322829412823818 1.824027301737783 0.8626249081057595 -0.6834809813503196 -0.7185564848972141
P 2.921810601026877 1.4403910223473844 2.330077822454986 1.5279243334510462 0.9900228126371594 -0.08170914424503348
P 7.304634645679229 5.738722383377461 8.391864117608359 -0.11168332200962057 -0.566614829588179 -1.2258004287262436
P 7.664017716351742 6.4771705711132945 12.136854445214714 -0.6487019259979215 0.07975304895992716 -1.5318007856873168
Ni 8.600527662846881 1.6231999004349797 9.87771286200695 -0.09072060371502441 0.6483036621182384 -0.12401793231557352
Ni 1.1892639086987613 0.179501579609025 7.728733375719592 -1.3226536277015672 0.5286290943730251 0.5880904829634517
Ni 1.3614183393134531 4.392810825955286 3.025745535443705 -1.0490293730783546 -0.8169004094854512 -0.12262028063709848
Ni 5.000669153094286 5.604248774496154 4.644988338353003 0.226687480862358 -1.7844044721948045 0.39700378202383885
Ni 2.1382620336970053 7.4005340766842345 13.24382614752744 -0.7174691653703062 -1.7356285883426819 1.2244832525767169
Ni 4.753585651460975 9.182046089393117 4.475080463344027 0.41694705791498515 0.5398216206547348 0.4078862332642975
Ni 5.316663326467613 3.009876709220824 3.7637084897377013 0.23431491550062872 -0.9162540062851252 -0.11700730532569527
Ni 3.6021530244775635 2.584516936456616 8.154543588054809 0.6731328053467762 1.0745848529499558 0.31193703416048213
Ni 8.83088189523545 5.644891777124476 3.529194979222687 -0.30209845080350556 1.3017580151994805 -1.1389354513118837
Ni 5.559449314866046 0.848368608310211 1.9889944470889795 -1.2165940796366272 -1.1695197518566438 -0.6939618262769854
Ni 4.687815831844481 -0.020444690424395114 8.46108041118674 0.6089806961488996 0.21244794022420832 -0.6183605947019027
Ni 2.9685190216781674 7.959822040895126 9.499758327685509 -0.5828163790487059 -1.0751594945065033 1.2831162317285774
Ni 2.225970799433785 9.074570643525673 4.914695379024542 -0.9608397633153001 0.3736188274409952 -0.5833712231109114
Ni 5.389570591478576 6.835255924441357 9.060197953748455 -0.20911141965180763 -0.3354986235305061 -0.3478969971948589
Ni 7.366699388239834 4.030183461921652 10.737398882085598 0.7885799652742032 -0.5611525209220272 -1.1378306482834792
Ni 7.2958609479808905 1.277254786901726 3.445445191761364 0.6458004360804104 -2.450114245604632 0.7505628626004816
Ni 3.95768055811222 2.3434142191064176 0.4820502728439953 -0.28048987139479437 -0.11716362839790144 1.3745785987056327
Ni 2.7927441477474404 6.90465559112276 4.50237296369761 1.2734170021629423 0.1937033126268535 -0.46319349047703456
Ni 5.6448447583801125 5.413992127301286 11.687592223565577 0.7994025098110039 0.8516282998849397 -1.6635631378349995
Ni 2.920136733727515 2.29848310699209 11.989077352803031 -0.6161183356349453 0.4464047010544699 -0.39523203483539676
Ni 0.7884817739885523 1.4895444177056079 5.774187681876409 -1.314011378645537 0.0976075606428448 -0.013760801229518237
Ni 2.328499873394127 2.788822784467475 4.711479425508042 1.432977864580132 0.744065427801596 -0.1867867880126783
Ni 9.348915613141285 5.531830504426576 13.08111590190572 1.6512259564258853 -0.3844472855150669 -0.7501136908782049
Ni 0.9800869187717823 2.734911092179605 13.64143545736796 -1.1626885878674234 -0.02065418591524185 -0.6815629383920004
P 1.9920619499712928 5.020097298265529 4.858719563859088 0.023843125166184743 0.023547705412952993 0.9828010980777397
P 6.644218766090046 8.687756837391149 0.5628049662893257 1.409167906644728 3.4099708190710563 2.566572877515709
P 4.2533908451668765 2.0593363694074376 5.472757094382417 1.013643537379893 1.6034330053123225 -1.5295991500503077
P 2.7146178021120626 8.179070445864893 7.455806491434001 0.6887327166675622 -1.266473995186206 -1.5715528687742741
P 5.294874840329292 4.264148733877381 0.5762175333066271 -0.06550065280597106 0.03296977005780128 0.24387607682650256
P 7.259129904883659 4.726681525935841 4.930151380671906 -0.6014784742345834 -2.9490630393044053 0.3832938886369141
P 6.824987030672239 1.3455071962206437 8.848655920979963 -1.5654259299409299 0.925227156318013 -0.9208097439766078
P 4.534290227746844 0.7879354161790417 11.885797859682638 2.18636482689297 1.6406713208384904 0.8142213199913914
Ni 8.231957129525627 0.04655043767022708 6.351972820120135 0.7451925994275037 0.5307931919038794 -1.311887904544631
Ni 2.2100220413454847 4.437854783056088 0.9770946458804515 0.45726015571173506 0.3476424579818916 -1.9323382918960268
Ni 8.394689003769754 8.80132591252818 11.2047050170719 -0.6936340106239215 1.5443601104095661 0.797421217714917
Ni 3.8772314865052557 8.653856322704636 0.3967460456939951 0.15174188059340318 1.2086344584699185 -1.1055699884775605
Ni 5.241517969224919 1.9960303319956225 10.14806594022605 -0.6200120142623967 0.5505068682827229 -0.40671226756085443
Ni 5.492560449133686 6.943972665160015 1.4582120668362633 -2.0872266885382116 0.5780210145425916 0.9897230220085537
Ni 0.9558628616754015 1.2075542002563937 11.222336105833547 -0.6200842622612288 -1.0643976280043088 1.643669998455498
Ni 3.2933057002475796 0.7442860350360792 6.627294839243635 -0.5728376705694392 -0.3938482671139927 0.9311558630976221
Ni 1.3688190896763615 0.743361646521881 1.0697789351458398 -0.3314329381015647 -1.397327205256058 -1.0865368831055093
Ni 6.699475194466729 2.9342235495389977 1.81126923564203 -0.6135624019823112 0.5061265423951349 -1.5720354648376473
Ni 7.220772013231433 4.192971758659016 12.96650865289313 0.5023421356520381 -0.14167446905507214 2.222619181239314
Ni 0.8287646130350458 7.5042292155048065 11.142164444818333 0.5698626471015154 -0.9824475713930628 -0.48295961736036824
Ni 5.5915631172667215 7.466736468748878 6.599424008334374 -0.3020927943765507 0.8925504920205983 0.1202993458134057
Ni 0.9492426224689371 1.6895339449838427 3.2024805321343472 -1.2868530730631902 -0.6121470096920232 0.8117564033906665
Ni 7.765089209236797 8.883383025192394 8.571888545654712 -1.2699979491790643 1.031261250461656 0.8356764045413737
Ni 7.712559868033232 7.009403949817087 9.917172873027072 -0.2725916995936402 -0.7355203664450624 2.7216201683332613
Ni 8.695110569009692 8.40354733520795 1.6749430882327774 0.4781120594600798 0.33374590250545744 -0.9222791294332826
Ni 7.129066654223705 6.659452839264012 4.9344733436538535 0.13249460232801696 1.9662825100519554 2.0067375327432084
Ni 2.8712090283422396 5.433203986248455 10.850436645411314 -0.19826419252465854 0.8223920287276417 0.5989479945032459
Ni 0.29935235899309925 7.33379567093384 5.162311132844055 -0.6833339142494942 -0.10879108806349007 0.9377227176818625
Ni 3.8005909331917835 4.499778469383599 2.8148777514693935 0.5139352398062762 -0.43015070108945275 -0.1530567427500848
Ni 5.562815856962515 7.604397948498072 13.074096943747048 -0.6564489169331921 -1.4680009176225362 -4.604889984837412
Ni 1.1275377010975793 7.948688002229709 2.952400996110156 -0.6207807741076212 -0.3667115587982007 0.25031771868678826
Ni 3.2017508012218165 8.749558274983313 2.4382717147363144 0.9201371433896154 0.40578281376804953 2.5009449551032543
P 1.955801094317704 4.390253006261879 12.48980159015867 -0.2996692725367226 -0.7336360049381558 1.0826681441787227
P 8.030284331199157 2.1926909321728796 11.971240321941067 0.6170624447157694 0.4839083544268828 0.09861877551617854
P 5.171253157647217 7.282902582034146 3.563066342287693 -0.891777875520632 1.2927344715446316 -0.8519807981283519
P 9.05878174916821 9.238543812621012 4.196799084450253 0.4069328682120928 0.45793789850505 -0.15474570041673352
P 4.254368835049649 4.040602815672735 9.896582424495145 1.3182524133100781 -0.9323599107080524 -0.36411037372992777
P 5.751436251853512 0.443946282411334 6.545553692541545 0.5239088060792203 -0.6321864448414016 -0.41104149106382754
P 0.8746125906644734 9.029742972648945 12.826797155889661 -1.178537381974222 1.2646994197842865 0.1870816935452778
P 1.0977184134218714 5.859682805128528 9.677263491408834 -1.6188696515823668 0.0002828213477414484 -0.3260981561522126
