# total energy = -340858.9222937458 ev
CRYSTAL
PRIMVEC
9.40497549518082 0.00000000000000 0.00000000000000
0.00000000000000 9.40497549518082 0.00000000000000
0.00000000000000 0.00000000000000 13.76513230668688
PRIMCOORD
 96 1
Ni 9.088657964408224 3.403331461329476 7.241244268830945 0.6723324209326679 -0.3954680621056028 1.360763032978779
Ni 4.576790255161648 2.1692764103148034 9.178494290437598 0.011065256675226105 0.7494068946191674 0.3548891122419759
Ni 3.7538078735452003 7.602455520088746 3.5876059679031065 0.7414585863063682 0.20373755693440396 0.047543554106918115
Ni 6.847405276549158 7.792464240228134 9.900846255636909 0.17759586554202964 0.5852789816565855 -0.1584455178658239
Ni 1.9431902041359819 6.397518273239373 4.631677692212257 -0.6486479328315344 -0.9286662639065489 -0.8860453439122289
Ni 5.509528700928304 7.843157058203252 1.730373477897994 -0.39550508599112527 0.5905708261831442 0.1897381573315184
Ni 7.9308490498173505 7.488692936373158 1.9475324813269117 0.5582698000575934 3.8672014070964362 -0.15808067832723743
Ni 7.785419913574449 5.292452461283835 8.729819588470482 0.6867501390198947 -0.0063498534774277735 -0.5585724188996767
Ni 3.0140125002756752 8.104737641940162 1.3177414635609421 -0.15462537278878533 2.39160956450052 0.4929578662236607
Ni 2.8962998268477405 4.137229914956998 12.433920285473551 1.420714988052379 1.9327393839891878 0.6705796999076193
Ni 2.929790944623138 4.422623896674056 3.5577912550528437 -0.06877855222629445 -1.6087397622372166 -1.6586950111094207
Ni 5.307528637019291 2.6655581577936527 0.9890262836700471 -0.21158224978980336 -0.98618878360305 0.22701812472889935
Ni 7.900978847611604 5.436743595490561 2.017692658101045 -0.027642958528249165 -2.007434301699917 3.944663603139658
Ni 2.8720726099453464 2.456222212990283 10.816530659319282 -1.5699302455691866 -0.9817580015252059 -0.7500249878191405
Ni 7.263584847646918 6.2063715510638096 6.476811621726982 -0.7756393459531351 0.20511566822885322 0.0741866106157432
Ni 7.982755109632689 4.025338921367021 0.5239935078060634 -0.830846330142582 -2.5417187945865063 -2.171866119056163
Ni 5.772294311578917 8.898856153729959 12.833467157389679 2.068662295272463 -1.8461070914109237 -1.278698819387172
Ni 1.6736342011703342 8.783447699300893 3.5788104348102814 0.9520604744607732 -0.9296165436349603 -1.8026518484407663
Ni 3.600290458367493 5.891088557189995 7.649532124981965 0.6557575472931222 -0.5172049116964835 -1.622970818234934
Ni 9.190024790407449 6.213810886688729 0.13023069582587224 -1.7121140501605097 -0.040789523212536205 -1.0442540631768984
Ni -0.01304940351400287 1.4083386521087176 3.9325052296440175 0.6720015199558104 0.891040226023659 1.442305055518329
Ni 5.5837151477163784 4.9378096449191355 9.315057356271382 -0.9858643103840956 1.1322081598903793 -1.3118894472065277
Ni 4.6410732627423394 3.2640813939937456 4.930518907907204 -0.45755403280307005 -0.6872563892323519 -1.140701542073371
Ni 8.657148283236358 1.1929364981042436 13.066551605842209 -0.22447041860638114 -1.7289673742724223 0.957342548795319
P 9.07387334291344 6.041116726455129 3.8634049936093637 0.16090452092927773 0.7807689538702167 0.7403334715629895
P 2.768965863477589 8.019368679275942 8.400116886151501 0.6898722295886441 0.7659074633773518 2.7922496577253653
P 3.380439750948876 7.228607743741637 11.731843566469184 -0.9971869344857665 -0.03392210666874158 -1.0472293437551383
P 8.278419324601849 8.872390552657237 11.115371875014228 1.7886241667031066 0.35180995909601986 0.131137059858858
P 0.7384692717232371 7.879215734291675 1.3687314787620362 -0.04494956812749678 1.5332873975351724 -0.38474090549608575
P 3.463316395104114 2.3525041431146625 2.6110393957828624 -0.5230891383914024 0.9816384452282061 1.1107031959390679
P 7.518713618186994 2.908460460176465 12.4501626781717 -2.0644888806210635 0.540671627359856 0.008743293410268813
P 9.234726638985506 2.290356064973739 2.018560737340211 -0.24557917556053832 1.1436092026384692 -0.9073765012898374
Ni 5.484972309883214 4.830592924155436 2.111749937137326 -0.5699156118266377 0.46609086662948757 -0.3364208782344593
Ni 4.624623960583067 8.980293836632844 5.553432067085938 0.6081972810156558 -0.45078431817940434 -0.507690287337829
Ni 1.4939709540870931 1.0598184747981558 1.1317524299526431 0.021106185850995905 -0.381710089089562 -0.41617958362134133
Ni 4.132649691885777 5.665999278414765 4.918446681348232 1.962394744961775 0.2902901453146678 1.9578824589137185
Ni 1.7886382416526598 7.786501485757591 10.444693666735269 -0.06257242341558256 0.8006631216909824 1.1552161907497782
Ni 1.5522629922707254 6.126429259266314 2.3472853222066115 0.4146328079595117 0.41711957893710744 0.2631670638456306
Ni 0.20662919285286185 7.1323007945644195 5.935923956420233 -2.072160281123393 -0.4319059932176626 0.9104957636451092
Ni 2.896882935329087 0.5101644318226473 9.784132390607667 0.40828706824714195 -1.8137073349239796 -1.1275403221010645
Ni 5.937699615795687 3.232480676294971 10.828754305983896 2.589732603461624 0.9579542142373889 -0.663169009265845
Ni 8.43282080747708 4.485985216655199 5.412395054404144 -0.37248214273339075 0.694444679450675 -1.6777358297909557
Ni 9.15565900991003 3.6332454925390723 10.17230864713754 -0.43236827756606183 -0.15768241444755426 -1.4113050075923887
Ni 6.235066131331358 1.2142387676243995 7.904902603392535 1.410145697176965 0.29394471134811956 -0.5839332662619686
Ni 6.508600438935869 3.0941522965587875 6.18526584553172 0.768125039853961 0.6178646289020908 1.3932067553297813
Ni 4.529605493050115 6.944699748154463 13.327057200878828 -1.9919110092533372 -0.6596136878144189 3.1692186325855163
Ni 3.0006762450087523 3.061629891260466 0.647517515598901 -0.3148228403487094 0.5758232355603244 1.5147985947023654
Ni 3.2559366852059064 9.316446471153558 12.944096943764354 -1.4527234226381756 0.12051917513369566 -1.3852391637432724
Ni 7.782541991069739 1.69421228757656 10.665705888628825 -1.9414189140410565 -0.6993171770516279 1.0220127352801949
Ni 3.2732700550627047 3.258259714155787 6.966396086148303 0.43851938476912217 -0.052618654636980344 -0.772723714968237
Ni 0.6949176516495122 8.360741075202258 12.717275268500996 -0.9780468712222059 0.8827754149117054 -0.00283078458057577
Ni 2.131289714247735 4.051070934350309 8.872164833245101 -0.14707147170092735 -1.0985256800362695 1.106148743799166
Ni 4.010084051096959 0.7827873973006672 7.469662908935152 -2.3959760689993317 0.31463000761161297 -0.9993183790064726
Ni 1.542970876471205 1.4843684740958882 6.836576387752024 -0.05912740228977559 -0.38254955427172177 0.40195521249184324
Ni 0.5340455456264355 4.013808421397171 3.471346363190785 0.027952005128235733 -0.7199592787820116 1.089740991865104
Ni 0.25536295443016543 7.74223226605279 8.834296639869404 -0.5187059217220421 -0.20633668512014786 -1.0626893870639504
P 7.747273332923785 7.859559335484996 7.886071961435248 -0.9124037793010997 0.19029505827625293 -0.5888204191509407
P 6.294797130767345 4.506036624433112 4.098953545644357 0.4224029388232338 -0.39061099112361763 0.8794661480328143
P 7.497195034230209 5.364767317946298 12.153193993099917 0.07091513895332302 -0.16748783057375027 0.792438419788345
P 7.515929745437339 2.836183223416024 8.693658398149049 -1.009674525429816 0.9451969145717204 0.3247421563449504
P 7.746060091083565 8.853364287209432 0.23268473699354192 -0.6735745208698851 -0.4201869050085215 0.3560967593968319
P 3.7974845797931494 6.16422785582327 1.53744169137147 -0.009547020258486784 -0.6865642482613337 0.6574454765185065
P 0.9560345700939963 9.123625663337998 5.664627092488501 0.11955938232358763 0.6449640562220441 -0.5728199299576263
P 6.404948203888787 8.85317618769932 3.5341565516073015 -0.6628301378691874 -1.4381673792008718 1.764923480652057
Ni 8.622237014159616 0.9202354713295274 8.733219487115752 1.2685797286752991 -1.4199711679078189 -0.7257748570225243
Ni 8.992228750549435 6.5421573915398055 11.13462950285947 -0.5131639088578904 0.5472094284783737 -0.4700735054263195
Ni 3.2365812456154073 6.074156405406258 9.756202434848724 0.7253657945095636 -0.2736191124168901 2.414127543097378
Ni 1.3116837188377934 4.962535325523325 11.207570730890607 -0.04864192937741945 1.6977516107912505 -0.7105022471341699
Ni 5.441634182753466 4.209337862158338 13.062257294026356 0.348307088149084 0.7576099992552501 -0.1281754061273728
Ni 8.953988120143714 8.498636826065182 3.9436830430324084 -2.6284616446007054 -1.099496528589971 0.850916618529896
Ni 8.297398565172124 1.280167645918569 6.436217866449765 0.7670104666335436 -0.4440068902462546 -0.4171555743813654
Ni 1.9349514455930872 6.58447978131495 13.737588143687931 2.6395423278948993 -1.4935021472174341 -1.8649255096690074
Ni 0.2445340656330318 3.1569963428871244 12.462606401263145 0.8550866907471855 2.2861552541197465 1.0619525088979258
Ni 6.906242803312115 1.2439773001730678 4.6631448592588525 -1.0880034403487069 0.09859023627108826 -0.40393907569109144
Ni 7.5985054303764 0.6805656590279855 2.3879336263417614 1.2298208627395466 -0.871027530347158 -2.140642128044875
Ni 0.80282187612267 4.284549451276523 1.2386211666226357 0.4160219749975545 -1.27684736800073 -1.6072680627876965
Ni 0.6163861061778553 1.3517771294181133 11.02303570649547 1.3792736901884568 -1.8200577026220397 0.1196992503355616
Ni 6.59912332817715 6.767293695192563 4.06758324984547 0.1582089763749856 -0.5216698894463725 0.32596111635371605
Ni 5.375667684557275 8.496266772237774 7.997858559797113 0.3072918220789869 -1.8103990964863532 0.3397885091551116
Ni 6.577811653681489 6.329407440627908 0.21251200503160694 1.628343652511073 -0.39207651992555054 -0.17867470042850517
Ni 2.9060998113245624 0.8505267333796622 4.691625006084873 0.1957313988004758 1.749821334903296 0.5222211339641522
Ni 6.817488049465884 2.733593750601074 2.7337968980719944 0.7173321255718097 2.1437346509272697 0.4951188784307215
Ni 5.838486529187243 6.6374015784848925 11.644641574078928 0.2762796899681887 -0.9648805090435769 -1.7879600507565467
Ni 6.938633538953359 8.62126830168254 6.003400893682621 0.4980728188527228 -0.27868727096841683 -0.3128819145722547
Ni 4.834044550165987 0.7683027945245117 2.7768810908630917 0.18472887704238508 -0.5014491915241235 -0.40325027715418293
Ni 1.5397825897748108 5.017893011349215 6.795350618120832 -0.7153858004787164 0.6283207912384082 -0.8108531748501069
Ni 5.226156788944947 1.7083479657614582 12.216788556473599 -0.6334079759533284 -0.584632092101206 0.7016291130142561
Ni 2.455601484606914 7.511575241778253 6.510177653328157 0.2253494787772248 1.234812402416867 -1.8218806147633912
P 4.0606640093660085 4.039982468229222 10.591814758071626 0.07041891604319486 2.796787140584403 -0.5887276023268183
P 5.30781078628446 0.30411176396827794 10.392275976252426 -0.24802146645344386 0.13281161934780353 -0.35954692272896144
P 5.4219871889222935 5.128373258613352 6.998881812042153 0.7177453018498284 -0.9339802199202947 -0.31931507179210816
P 1.2431402573530703 1.8932591891768171 9.054374007197707 0.6271558243960296 0.5759067964130662 -0.5481951894304108
P 4.783878410819183 0.6382564362185489 0.39070243295067286 -0.33386494458182503 0.76102493847407 2.5611151968352477
P 1.3501782835821636 3.1476383922590645 5.460807165819157 -0.31557565935433396 1.0573533195630178 -0.24614944624171153
P 0.5429191400159574 5.570858546200241 9.044779051186906 0.2979198939457837 -0.43548239771501124 0.5025205702114313
P 2.1284023867675197 2.185189628870258 12.709471019826461 -1.0112734944858195 -2.807365430320881 1.6373916216459543
