# total energy = -381167.0470918695 ev
CRYSTAL
PRIMVEC
9.21703335858908 0.00000000000000 0.00000000000000
0.00000000000000 9.21703335858908 0.00000000000000
0.00000000000000 0.00000000000000 13.49005999230200
PRIMCOORD
 96 1
Ni 1.1509770529985714 1.8104189287450043 0.035703100800762895 -0.18120800837332018 -1.9005165193997398 -1.3337299401203868
Ni 8.21505896732052 4.171868985709961 5.363391768887838 1.7265399957778524 -1.4821347859207572 1.519744368743415
Ni 1.4309536613019518 5.485563547366285 5.034085597520206 0.7006515795923353 0.7235935331004894 2.7090865546426244
Ni 4.962524549756595 1.4496365881201947 3.4950456282694766 -0.3672954563261287 0.4563792957686786 -0.0599522121839161
Ni 5.104734158971531 8.093891845488933 5.03818717740877 -0.21255335545382104 1.947765682194691 -1.3690679533000485
Ni 5.203208944430884 6.766427035847186 6.911686561433189 1.4404626029929515 -0.2668751088248371 3.3932151968792725
Ni 3.743562657975902 7.305199509568735 1.2593887222283975 -2.0134920778582224 1.2349720679231828 0.342164722696772
Ni 5.3057392246115125 9.119987312172569 7.282770780353386 0.5988438648252138 1.1905169229336012 0.6567008850429981
Ni 3.9111836284330157 5.856622880296147 5.540435312648499 -2.552054886405192 -0.3853847097276718 -1.9060258792537432
Ni 5.2792955556221 8.47099755236688 13.045980869965007 0.5053513547920071 0.0674127822270194 0.04700079422957067
Ni 2.652606926852219 1.2330916040709579 6.949282840906112 -2.9345098240805783 0.5852203605045082 1.7673950821210012
Ni 6.6650857529825664 2.463473400305427 6.082816254968638 0.2973277688877396 0.21698542308324564 1.411080036065776
Ni 4.720466817097148 8.812138394693871 10.877170499074056 -1.1051496131106902 0.04719851206267356 -0.7012717296748374
Ni 5.3151959009388525 5.091756575863446 9.2071279115893 -0.4236452958707672 -0.3279408657879062 -0.7033036725032016
Ni 7.475309079059358 6.812484552034043 12.349111386457924 1.678671711341664 0.10153054984633482 0.7164720915643596
Ni 4.6816631062413006 2.85307740455167 7.949125431192904 0.160163271887879 0.18131856580925546 -0.321536247813143
Ni 2.9915909833501693 3.594182196731075 5.175096992385673 -1.2845159402895812 -0.6222650719626315 0.22349494206698928
Ni 8.691330737167126 5.861581644296253 0.8930328414718702 -0.4235817896226834 -1.1713375217916728 -0.6561514402974312
Ni 0.7796845291222364 3.9802376430962014 3.5719921886822736 -1.231121326718525 -0.9039695324908174 -1.0328234527424536
Ni 0.9359713135367282 1.6818413120136322 4.183227136039572 0.3516389807357944 -0.007418146840942063 0.573189140371587
Ni 6.958307238364297 0.7369386930566388 2.0763635253127686 1.643061675447538 -1.594565013398731 1.1280864244125217
Ni 2.202824911162311 3.1950754309902045 8.91245105662464 2.263427473504928 -0.47744074442466805 -0.7831271696897482
Ni 4.364458899803296 3.143939329368294 10.539163448122595 -0.2460679422714988 -0.1876743328239542 -0.39826105146970764
Ni 3.6380368419216027 6.71819429976437 12.26663276256397 -0.6569664799995588 0.30207685353695074 -1.2989531987608338
P 3.191388617607226 7.261455468779697 3.415359765513127 0.5182310389681527 2.2287150097244073 0.6233598476887071
Ni 7.696075464432106 2.114581032840723 3.914316498105201 0.17835845473966705 0.4279884033308113 1.2844246661273557
P 0.39946807345240193 7.290175745033098 6.031540976141519 -0.7664679638665122 -0.023599127476178712 -0.8191717220181312
Ni 7.815933767512734 8.649577575604896 6.703237819572973 -0.8135253223656311 -0.46749828849997555 -1.0274349347370304
P 7.7239754247077945 2.009792579463019 9.048565441614166 0.6224203665935731 -0.8433200371295605 -0.4631032447560734
P 3.1370081202082947 5.030647644040579 10.59359556090889 0.8780826374217264 -0.05594463368641978 -0.6280351416771893
P 3.8917541219047194 1.667637863455708 12.387463462674358 0.6563846393541599 -1.3127664504948422 0.04184650372214083
Ni 8.22331742929839 2.0876212099776934 11.564610035650828 0.7978019980931035 -2.1051758168174644 -0.25434355201672965
Ni 1.5293454934601878 5.145630136422219 11.91512275759735 -1.2493134242465194 1.7280214654193855 0.6846318071253111
Ni 3.227113839288287 5.2548611999264105 0.6201745481076756 0.06399707167725106 -0.4922487559717781 -0.8134777569571474
Ni 6.351439321459136 3.0281918232096867 2.279105080056134 -1.4880223550497857 -0.23748045771280388 0.725854304110208
Ni 5.362958568315337 1.2013020556762268 0.7280663766505014 -2.4350619792572 0.22536516250650865 0.050999116755686365
Ni 7.826929688427467 0.22115903099803422 13.106483320986376 -0.27119173392232004 -0.6156470524254816 1.2585490839121742
Ni 7.268663188943418 4.706005291602415 3.49261693995344 0.9450444481542563 0.547527988160057 -1.4838378846547928
Ni 9.006203034140398 5.517620389731282 7.16663523708622 1.0799229773334176 0.1763735630991543 0.5917656178221938
Ni 8.720207702989304 8.024349328052503 1.6634588604861018 2.276255221397215 1.395479867634674 -0.5908377066912857
Ni 5.961623325443371 6.683446083629798 10.74999940164829 -0.7120829613577284 0.004611787740398509 0.28067859036683274
Ni 3.607316469407935 1.2030717261000563 9.142105427360402 0.26611071985498685 1.9387891897276932 -0.8754464853504601
Ni 3.0879274170473945 5.199337790378756 3.338884195510006 0.4401600056963387 -2.009011673489366 0.48294624762392957
Ni 1.1914859150440467 8.31931283275769 2.991528307522658 2.7291105631730352 1.0567671080422445 1.2366473987430766
Ni 1.3857072440593492 6.124598911037933 2.2129230930182886 -0.29431057932797056 1.0941008114956965 -0.5290870078460501
Ni 5.704643215616319 1.2720980896628695 9.554024791310468 2.417066571121044 0.017811317149808034 -0.43959307744927517
Ni 7.248441017537782 2.4849030030939887 0.40824453271058203 1.9178277569846778 0.7052062888425532 -2.1903060709289055
Ni 5.619763554506699 6.067139924464214 4.161089665081478 -0.9310368210212546 -0.06928994464507422 0.3780259553697554
Ni 0.3917847543622749 -0.1963624458874672 11.599306636398037 -1.2354317811684208 0.0642824641281538 -0.8282806262979348
Ni 8.12251995140776 5.326108868552469 9.933959205756503 -0.42988510613289194 -0.5343647113052216 0.6655827609136603
Ni 3.248174760738551 8.237484009722484 6.740753910854815 -1.1994023983486894 -1.1012232814730905 0.15763973413507687
Ni 2.672939702659345 8.639014855262664 9.181806877275005 -1.5689087462832076 -0.7653852723252947 0.04166369828737341
Ni 1.2567978141235092 7.241675714980017 13.26338672493917 -0.07795276252639477 -0.7686426029203278 0.37877286083810896
Ni 3.18311172156244 6.521899138221142 8.962607387590024 1.6295384441501226 -0.31112328000993517 -0.05187020650673003
Ni 4.250444195934688 1.6153035474843294 5.684414592287263 2.925799183680458 0.24852771666590104 -0.3477100779950334
Ni 5.110577758183552 4.952487200321436 2.2703636455250926 0.2178626834818764 0.5127124231427685 -1.0504877027914359
P 5.591384308491222 4.373712801394571 6.713395912146424 -2.385333244573505 1.9922200558533236 -1.3191993506043795
Ni 0.763539051614828 8.513377472204215 7.819121939385664 0.9093441665391695 -3.0798213756676054 -2.671021372339787
P 8.868657243854932 7.344399552863253 9.899923466308193 0.25831616351123254 1.297339574416811 0.44462112679148585
Ni 6.840845363982604 3.383278037157795 10.36705746918509 -2.194355558407931 0.3970405487990452 -0.8228579126204667
P 7.197655163187255 4.52475232866174 12.048350367708004 1.674979607202057 1.0718815950861798 1.09345237927842
P 1.4797670704925858 9.027033529754226 0.9014922347791141 -0.5198575188279821 -0.29037550593962247 -0.26333187155826904
P 8.435742399392149 3.8740942858002527 1.7736862853070445 0.3160351154892557 -0.45953326801662797 0.1540224490974638
Ni 9.200138635118519 1.2565766053205305 6.448302969470127 0.30233962028003414 0.6764119903186803 -0.13023588820082732
Ni 5.466336815574052 6.323216765012436 0.21582329032951872 0.9683666678199645 -1.2350957379852407 1.009328969164939
Ni 2.6753822165255685 0.24827001320976594 4.684706570688949 0.4692625794892498 -0.9338933166334433 -0.767281203796427
Ni 7.148537591892525 3.9895007617209344 7.8864643509358014 0.9002509459886496 0.245292497558055 1.616843108070641
Ni 2.3790638079021362 1.4936940080467869 1.8841837692082906 0.9855328951866059 0.02801833958979691 2.0834119427778117
Ni 3.2198692509907345 4.871487910297401 7.426143579190651 -0.2926077377042509 -1.1375995061092794 0.0452285328204963
Ni 2.1433381772279545 1.5221746414302948 10.790428997206032 -0.37365713687809843 -1.1544029508198637 -0.04903967903647038
Ni 8.508077677966185 9.012018982252046 4.123371720766918 -0.7611180124085085 -0.015692213924276197 0.889026795138056
Ni 0.705028401523615 3.223832575377436 10.585326038490868 -1.2795400843415448 1.0011196938812692 -0.2853124895944183
Ni 8.944900544614924 6.429784105847427 3.9053584632879095 -0.3887788230108853 0.8339681636010152 0.4615094179063923
Ni 1.6415813098715082 7.193055863491989 10.705414767407932 0.1066727561689066 0.4088899919384636 0.29270132585932174
Ni 0.09285608186369416 3.271272646582911 8.097071722031751 -0.12475121093717226 -0.3457454980694949 0.5872091087997628
Ni 5.105572909016158 4.70147972817481 12.256758554621008 -0.5713353749922999 -0.4914571133084181 -1.3021583359616928
Ni 1.458936574878758 4.055439419075503 1.2443179508221274 -0.309183382674745 -1.796646522786951 -0.02852021892687991
Ni 6.044530541393099 1.5237415371180607 12.069422349598415 -1.034354030454367 0.020744174525886852 -1.4903062659879558
Ni 5.103425340220573 8.708446768297604 2.3719574751064454 -0.6375315112033988 -1.5115356076803774 0.6532422370704363
Ni 4.5499793492347695 3.312730863074503 0.5851000489887105 0.6197690450136552 -0.3304836868144179 -2.1752589467877956
Ni 2.484368415153457 9.046481470349438 12.310246843181258 2.4599880530749183 -0.22286193646868072 1.112917172871251
Ni 0.29171818722482074 0.7002595084127324 9.205859647785555 -0.9432220502335369 2.8715239672766613 2.5823558513815783
Ni 7.388622879392079 6.995332061762857 8.337005850182605 -0.4882951706406687 0.0571193707208113 0.17580277819734885
Ni 1.1516222453405927 5.322320667801458 9.227011817867048 0.30307109912942 -0.13625869735613952 0.04763020028345346
Ni 6.994262885881794 7.2803872555012905 2.9919467608416266 -0.32298583577547596 0.4751324080064656 0.6651058212772416
Ni 9.0383889149738 1.6760714490692712 2.0800724595760447 1.2863020856557266 0.29774094516575816 -0.7550728346556932
Ni 2.583442307787544 3.2485803102106785 12.202743973450335 0.4810279475552942 0.7707136265167437 1.4842988834516115
Ni 0.08743923130075314 3.561120697719216 12.87047472738505 -2.0500408235165337 2.6103109418336077 0.5241489471144843
P 3.5810387070207566 3.226265872210202 2.340944000928831 -0.5449450579242293 0.4542403950488048 2.1291976336533587
Ni 5.276521228551409 3.7168148268823935 4.659385536374654 0.09757207941921905 0.14562496906238792 -0.9370174640847218
P 6.548093947307204 0.6636098182758898 5.158720167338483 -0.2605381108632158 -2.164427917610563 -0.6745445980926383
Ni 7.212605191455232 6.196040137366596 5.853269723524328 0.14821021329106088 0.6761021723877453 -0.31985808877977173
P 6.923697277731587 7.668645572862746 0.9500088554924184 -1.9691546893934282 0.45004486891021844 -2.1002087026201766
P 1.13672751927336 3.122859973851115 6.275427368238925 0.6523724328709732 0.24019785664396698 -1.1953678232679994
P 5.3716778819660815 7.720675726730029 9.013869762570302 -0.6726926324855641 0.43416830688927804 -0.5188743289791065
Ni 7.269842969225972 8.943693113231998 10.79842846054375 0.3635061644870256 -0.5370232319739913 -0.6603780767842691
