# total energy = -340852.80519587774 ev
CRYSTAL
PRIMVEC
9.42301636535587 0.00000000000000 0.00000000000000

0.00000000000000 9.42301636535587 0.00000000000000

0.00000000000000 0.00000000000000 13.79153694378994

PRIMCOORD
 96 1
Ni 6.736731021458459 2.9535125103568545 4.678958182576033 2.4942235772190204 -0.06774059788008333 -0.5970451210535782
Ni 2.100635312739482 6.347607566861073 5.398779564333097 -0.2522265056737269 2.7483992361993184 -1.1017171903903737
Ni 1.313521345286418 1.018053248849667 6.654954317538421 -1.4374353861308533 -1.3703434775783625 0.06788226566427019
Ni 8.923125204770427 1.3105436721624861 10.774238105835753 -0.7301665583323167 -0.019423655942250418 1.0211550152655897
Ni 6.351254274136268 5.286123636276587 5.875677472671352 -0.6772524839421046 0.3447324834239482 -1.0274112805879467
Ni 1.044286925992157 5.054147823096336 3.772716559530015 -0.8820184821410229 0.9029292641517611 -0.8497650214239558
Ni 4.845286668691419 2.304021694723499 11.667309179118101 0.21127808828582323 -0.07400637628413707 0.42651027612338804
Ni 4.983861545148839 7.993375040871289 12.320724681004995 1.530973661800331 -0.7423463882279603 -1.0158582856430247
Ni 2.883716229252536 6.012911453921382 13.112814001019563 0.27618044538616304 0.10112328710558714 0.5143792693222303
Ni 3.624148574376614 5.711488011236766 2.590809308623015 -0.3553233715659171 0.007209630374561776 -0.5919486803672773
Ni 5.443045125304563 4.372307792796971 3.340613785674507 0.355417216831304 1.5916866634096718 -0.6056580595335698
Ni 8.689321326444471 1.9062384882245507 2.3071171555501175 -2.95608780736167 -1.9568236786319009 1.6281204807566734
Ni 4.134960860374186 6.575625713231034 6.541298607461503 1.243266189611175 0.7690920317529206 1.7697450704104167
Ni 3.1868829299369215 0.8163997595475839 11.99971267221269 0.16184477335535996 4.102690031190193 -0.17748093723072014
Ni 6.8335996281484 8.070295122234128 4.418698243924914 -0.9679766314703975 -0.3070714785380647 3.1080536310404216
Ni 2.7793092095906147 8.27003479694295 12.008746517857986 -1.8869971447570661 -5.566194860714587 -0.9248564032421556
Ni 8.293611183512818 3.4027265393571353 6.994571129545572 0.598706310806085 -1.7642843044061614 -3.1626353229410435
Ni 6.373633937646834 8.32096619958489 9.307507939910058 0.9056317506845887 -1.7406921189085183 3.1023745783777734
Ni 5.848885010667314 3.849594237319887 0.6069572050422025 -0.18580925459075742 -0.3212454560456016 0.6730124777188281
Ni 1.238231445728769 4.177515201601011 13.310694514629173 0.7805956615171459 -0.15740344975455473 -1.3608368236395079
Ni 7.059478749837562 5.64639381522372 1.873332373300237 0.3992380706709963 0.07891024134365764 0.5867486242235767
Ni 4.190848769545201 2.0595792310908365 9.600178342832585 0.2954665473092847 1.4577072490060121 -0.9033586383796959
Ni 0.239340842653875 9.565869140793861 1.4471321768017893 0.07131263150205784 -1.5747001561540042 -0.8988247550650842
Ni 9.270683734843558 5.600466034191932 0.6044045099495658 -1.3938047939250964 2.1482921883909647 -0.14521796343195634
P 6.893228474756762 7.079728811683543 10.995840120464939 -0.07870892396612897 -0.8356221542646706 0.7133520578781392
P 3.7955343932945764 4.234995600512359 11.972267195184953 0.8239069227102713 1.3907284689926176 1.1592960172461066
P 1.5170773415623047 5.4844781276018075 1.6983450775849112 3.275013357024844 -1.321349821288479 0.21402916866839916
P 1.686201636588673 8.378371214366517 4.871101963913963 1.492233822027972 -1.119015572459505 0.4718365108640132
P 4.206632321705284 -0.05215733705150725 13.720468509261675 -2.2416864822834106 -0.03234782020308623 0.1916924528444118
P 4.837861331914019 6.5766433989822515 4.55750963808933 0.6584199246166338 -0.3478756570386203 -1.1751610093028213
P 4.52455546578232 7.0213626492479895 0.9020841882919716 -0.575502361885796 -0.7100163086366869 -0.7997256974783775
P 4.029272310507028 0.704701209938515 6.50395048269345 0.13668550048091296 -0.04215606454275966 -0.17509572482799524
Ni 0.8008404751734174 5.279150604277505 9.411634153688773 -0.3783838529298064 -0.7623182033641968 -0.5019814098785097
Ni 6.684357897335629 7.278092726024979 0.029767308223105526 1.2444560961542181 0.9247023941627945 0.45657187139545885
Ni 9.257924970888483 8.415375399042723 6.070179834967891 -0.7268549774605804 -0.28800906258997494 0.1897399571037313
Ni 0.5019942274235978 0.3507039328856907 4.152769418718866 -1.76177002262474 2.3457148588509344 -1.383544549649669
Ni 1.5969091349355715 0.729627914731988 9.95242765037753 -1.2449119527447141 0.9750625917829016 1.3458424071132047
Ni 3.121411813275276 3.703556332020207 0.8048226418258657 0.13222386516513357 2.2497628315336415 0.20093736848144747
Ni 5.081323801860323 6.162369914107098 9.270505639837095 0.557893390554781 0.30563371765027364 -0.2067650309068181
Ni 6.261226777218398 2.254315284189506 2.10211943779334 -1.1613079054698128 -2.092389463686074 2.1876856025869227
Ni 7.447367789310786 5.213698333648289 7.880318634625642 -1.3325852849929825 0.8135911426065601 2.808720658797195
Ni 5.140019769863402 2.620710423676373 6.1656302777174785 -2.3022755567203768 0.3371878383074709 -0.22042144534798816
Ni 1.5410966098942755 4.293173302623613 5.915148602992638 -1.7580640345280625 -1.3596651719289101 0.7565905568518002
Ni 0.6493306243577014 3.475707799942115 1.7200255532923252 0.34718480161918275 2.110286655681469 -0.9128436950519957
Ni 8.53477443750267 7.1440785894156065 8.938432894611653 -2.1493152303388405 -1.8194681486671567 -1.7792216424422842
Ni 8.236309821909556 9.514890623070846 12.648190513602934 -0.18980886266845373 -0.654703394996995 0.7408759743300208
Ni 7.4523714109209385 0.6039361860436816 8.792035972394183 0.24697297058427145 2.857827443626175 -0.03999170990158919
Ni 0.897954080284948 7.36187276319232 2.2358838644730152 1.2196554921707705 0.7267017397121678 -0.5926624186048502
Ni 2.7524724594103662 2.154129775791894 5.086470653316943 0.47332003738807515 -1.3115490331479736 -1.3896416636863422
Ni 2.025910794154731 1.6081036781989617 0.3389270472202151 -0.40767257459159467 -0.26419601933077724 -0.4470063391942108
Ni 0.05144024551754767 2.9767213992943375 4.179373420398605 -0.03939804218164828 -0.25588287147939154 1.832980838441611
Ni 8.85441257053083 5.7851383059730095 6.06874470959835 0.6683348697375007 0.19322354477695755 -0.26704994383980457
Ni 3.4349438317961343 7.884115167858655 3.5072287314828277 -1.9538486551639769 0.34029398803662037 0.4330349646157833
Ni 2.9472179355252512 5.775225292914856 10.580425508326151 -0.08875988044422778 0.5167750232479165 0.1119247485964653
Ni 2.7504276648917165 3.287812856615517 3.0939795284702414 0.35237945844624474 2.515500741430242 0.6796472094265263
Ni 2.623452521394931 2.815964742666867 7.140995378510066 1.4437014216452233 -0.4226366521005947 2.3208085825275577
P 7.075394224224654 0.04212842089390952 2.8580064718115983 0.6040441780792307 1.4303928774617753 -0.7931902103527049
P 3.4432078170166673 7.9454213113532814 9.70207035946673 0.08347497789620463 -0.5005840153103508 -0.05151616560142096
P 7.860934547969818 4.516225519448282 10.10275585495989 0.6730232763521053 0.6365753179377166 -0.6861832107728312
P 6.6327668835586415 7.370428861915517 7.257975528707628 0.138808974581819 -0.6189753454677662 -0.2537573404959565
P 1.0994304168821898 0.09871174866159045 11.901586092858048 -2.3732536877011516 0.531596147421149 1.2081474915311707
P -0.23916651685389798 9.118992019814893 8.179029190941966 1.983266703314778 0.01759277338109873 -0.0038916217449223296
P 8.835359231744151 7.860859163840098 0.17553759986228032 0.06157869204374556 -0.7408919151696207 0.6728808372369702
P 4.64983446636041 2.538485184184503 3.9230852830820973 -0.2571941340916474 -1.2416556505909455 -0.1955974443257728
Ni 4.376406804850486 2.0647147749279977 0.15534878762169674 1.3052835118542359 -0.6952286088045511 -0.20111426037894398
Ni 4.947092935878008 0.0901518807319073 4.154327985600823 -0.08411723946589385 2.5134824254486325 0.9466660429180792
Ni 0.4908185301926376 8.19296394732067 10.122794841242655 2.038211949202406 1.4289317195352165 1.0586303865032285
Ni 8.725609361888338 2.7873753114706328 9.081837066879247 0.7058827460842876 0.6710437840282315 0.20980998838072898
Ni 6.06401247085519 0.22185643606698915 0.6635838786844723 2.0418346335566575 0.24711746658193567 0.8270907197548918
Ni 5.568964890985272 7.9811816578891115 2.55991594996222 -0.4126168059707474 -1.6608678503910235 -1.9397659518186658
Ni 6.35252638132529 0.47802867028405227 6.213156202299326 0.5622131009760576 -0.4488187098126012 0.7314014591806823
Ni 2.3074422496095344 3.0299425948765157 11.160855980421578 -0.8980259133128727 -0.3570462677942948 0.4114762646084011
Ni 5.336753502399647 5.496671510583984 13.218719280259666 -2.427121127143568 1.393832047618606 -1.6547877056352147
Ni 6.979194651685977 2.725720516376053 12.374483930813046 1.3852275937790466 -0.5575388354288398 0.49427092860812943
Ni 8.651233494903543 7.347012666621305 3.5669602889679317 0.2279889732826009 -1.2152293380786168 0.8149857089612416
Ni 4.804550969594083 8.45791089423712 7.937525766066755 -1.9576173781777897 0.6011429452720357 -2.319232753400006
Ni 2.3175248769595576 7.90690944408268 7.5236414517612795 -0.19695807211872532 0.4995254921388494 -0.20778961551659056
Ni 3.031855467168155 0.5381098216707318 8.51492202694096 1.7458345823414063 -0.8995714034231217 -3.0541540528084887
Ni 2.3901480629283687 8.692289576552188 0.9849794042367268 1.4759592532376646 -0.5303337357689576 -0.6211615544858077
Ni 5.885945733440811 4.175903865828251 10.824536281788045 -0.4676183590176075 1.4374893792972403 -0.5534947472664532
Ni 7.601622564749925 5.165838834292433 13.070184275663017 -0.3192865325470179 -1.0150368181829936 -1.6866112779037148
Ni 3.7502662233978374 4.734603920230324 5.326015975422683 0.9959093533249235 -2.2862388149724886 -0.9800870415806862
Ni 3.5483215628947113 1.2078704874841202 2.3074064421479177 1.2111047743872818 -0.936916162620167 0.12323271741011678
Ni 9.725118114826936 6.446511545053449 11.460505069152912 -0.4311542026533026 -1.2485978862367333 1.6701551892302202
Ni 9.227695934870844 2.247690903790379 13.432143059115875 0.4770684486869139 -0.8994377060587349 -0.8003934129693635
Ni 3.2235007709483137 4.9064891590076805 8.137889244449006 -1.1237037219637938 0.493696287051582 0.07753135871826002
Ni 6.1501576850924895 2.5944013624041635 8.110526689963963 4.6650075189545985 -5.084467315989108 1.4905685185104072
Ni 9.26102514322321 3.757220409364489 11.500748886803827 -0.060287226925831654 0.08511302772025987 -0.348623076727606
P 7.93693117374359 5.229406501678653 4.164561381210286 -0.07230867686673999 -0.432776568748074 -1.0781008365230142
P 1.3472086282549534 6.042772992306637 7.3711629148786635 -1.2379684315473454 -1.3158108937481208 1.073589578916222
P 1.4849071642043805 1.7395924464627206 2.5350090335027984 -0.6814791204289424 -2.099566183940171 0.718410189127337
P 7.7559809933674275 3.0210472675695796 0.8402192599357973 0.08125945830212457 1.861091480634898 -1.2386351185970668
P 6.628903446910502 0.9019927850346863 10.996764518355628 0.43155169520203746 0.13882902918647705 -0.07667569558618408
P 8.2347644472503 1.5039793490234896 5.5510112181908795 0.8020690008995736 0.29126382208184676 0.2612495351079436
P 5.164142691373738 4.120374031273404 8.109395928018166 -2.7222128076119376 5.536658541818368 0.2887842501931026
P 1.8989450736741602 2.63133016295065 9.111971872734738 -0.2542427647728073 1.4159283652970132 -0.7939396869242198
