# total energy = -381162.8026350437 ev
CRYSTAL
PRIMVEC
9.34487642596089 0.00000000000000 0.00000000000000

0.00000000000000 9.34487642596089 0.00000000000000

0.00000000000000 0.00000000000000 13.67717124398704

PRIMCOORD
 96 1
Ni 4.162852709776173 0.43581699697584203 8.750749643105504 0.6000813367767407 -2.1406004761736614 1.0561515859454325
Ni 6.933234743857656 4.879950484009832 10.775080672648414 -0.34639418739708727 -0.9450236222186499 0.14784588797310666
Ni 7.001648583402656 1.8021780882300553 12.16060530177381 0.5075774159090485 0.7769932888778682 0.23996594313881897
Ni 5.663163258213561 7.268211180455123 1.0480568485007895 -0.7436144563071064 0.11615524173804513 -0.49944475949958506
Ni 4.417668797293322 5.209908722022998 5.649806626488159 1.4508421464550625 0.3925750568285239 0.01826614529903951
Ni 1.2631095527850564 1.272725430519219 2.523151182673975 -0.27687824278413603 -0.32883201014360786 -1.3568166467365212
Ni 6.679184936198818 3.5870494655138825 3.9671868859071577 0.5677283743673319 1.5411557445396555 1.9619969953027243
Ni 7.74286548342045 4.085327615818337 1.9431838615231098 -0.911734778258533 -0.05280608805743809 -0.4837363476253927
Ni 2.602576089987841 1.9160734408286695 8.088665155772734 -0.6380601300133592 -0.4621092562739203 -1.3577769537672615
Ni 3.1711650897304295 9.363846419789073 11.812534824475557 0.6027123466416846 -0.1641600517520979 -0.35124380217990475
Ni 7.287835420728924 7.077444875241133 9.977660882974085 0.8738421169778176 -0.29569229016684556 0.7580062062524042
Ni 5.007685598439638 7.4026278814543405 9.793046309842117 -0.5670030661655331 -0.9677004949908753 0.3607568838766626
Ni 7.2354573889505165 3.7284467891247806 6.687602800788648 0.5507212982863741 -0.3489519208219345 -0.7800531587501146
Ni 2.8624010312129693 6.035033266525774 8.351731834593567 1.687305732867578 -0.40044288961237484 0.8397233209172378
Ni 6.060395260860583 0.9448324101729628 4.421952488598803 0.21451742115872735 0.9273092356580224 0.005255334861668369
Ni 8.443207894410811 4.985482172301279 8.567858265167102 -0.36411243061245674 -0.43754647933289165 0.39839834837852034
Ni 3.996766222925569 4.067534971303425 8.92313644557163 1.1500770697509999 -1.6657506324046214 0.5222332181490102
Ni 5.592160887927684 1.7063931059412636 10.172313722249921 -0.5704712272197917 1.7298299793830336 1.0494433206873217
Ni 3.414589773012453 1.4483997604750234 1.3168444606052523 -0.07018597409678236 -0.43916910253797914 0.5783344320179524
Ni 1.546829342762618 3.4628186797044 9.246068271079142 -0.5961020404140185 1.6082841627570368 1.1432703312418118
Ni 2.89890211812224 5.4375499091990935 0.7666041255186679 0.28265654002880997 0.1791380132181689 0.38348826403590724
Ni 1.3298880389739056 6.524452474078055 6.84610778948014 0.6146353233315157 -0.15322694977936194 0.8656282137084577
Ni 3.1627827356706204 2.7508418976945697 11.423269328892069 -0.4545532983035333 -0.6314979034148092 -1.434831372849103
Ni 5.474153789747892 4.831927164596946 1.3821193561940759 -0.6711103756001087 -0.5177368729405535 -1.2939336340590553
P 2.038995943953232 9.352539119440836 5.803155112425802 -0.5675206292318999 0.3325714225813821 -0.14504261419635667
Ni 4.472130736491281 2.867437919549912 5.472071751303606 0.4714140786146139 -0.8571844538164786 0.5638750620595127
P 3.9743011402502266 5.007928565223979 2.9670982220489632 1.826762882556357 1.4763395193952187 -1.167292662298338
Ni 1.587414140624103 2.5082208737761404 13.611192697795545 -0.26308298877225655 0.4092021238622437 0.5080024192616089
P 5.067221805479822 3.9670775508542038 11.780338922087306 0.607125902328348 0.4112970587180594 -0.5219753365019334
P 4.305782593103692 7.234177140894559 6.934763565623749 0.16673038358243542 -1.6687148572392683 0.6692039026060153
P 4.9504015065927796 2.0016351284224427 7.640423211240679 -0.2787626042910425 1.7744059662211957 -0.8198443226051234
Ni 2.5859515550130356 6.2824575568731245 4.841842078373376 -2.0767216752418296 -0.29705111818758523 -0.5165652212299555
Ni 5.628559181197426 9.26903330463765 11.620617230498839 0.5435126963530769 -2.3489487924071994 -0.29043001332664176
Ni 6.207707891182584 2.7943329520918416 0.5300768954490699 0.1860015731072216 -0.6328204788809747 0.3044841774268627
Ni 4.548216719495705 1.4886761774179202 12.92898869174397 1.5242147458099427 0.4861781242976659 0.033318411646471646
Ni 8.645393638488889 2.1569469728750983 0.6305343158982905 -0.08217579946880686 -0.9846661763109363 0.7611246972767278
Ni 2.5543191486669317 1.8283811214337404 4.293551084487322 0.14062160231052556 -1.487556985377593 1.1605016075184338
Ni 6.436704085425203 7.829726108822823 7.8138912158971285 -0.557637308679917 0.3155180666435211 -1.5927855529008053
Ni 0.3040860134312389 7.645669424807208 5.033458767332563 -0.9788092033095273 -1.207603960322875 0.15594589137242174
Ni 7.765040874929846 1.083613168414021 8.988937457697318 -1.0513402805997183 4.022994060720446 -0.04615130174508181
Ni 3.7068040555656743 7.250063430640017 2.441389121792262 0.8397114938426957 -0.9354879148140727 0.2648367382385697
Ni 8.68897814164937 8.656869146610903 9.000932540942772 2.7420789504082457 -3.9648323647780495 -0.22640645928682945
Ni 2.0177737298285643 8.452823772144974 3.77872876514442 1.026218031610794 0.3225528620031155 -0.7966599140688603
Ni 2.5238735416135776 4.0717308207714895 3.932651960975796 -0.19200767009198547 -0.5741239934810306 0.946013754046061
Ni 2.117371421656266 7.894906621160805 1.087547361345102 -0.8137621209667856 -0.14523287583029182 0.2765619970952979
Ni 1.501030103914094 6.533993592801652 12.84086650803828 -1.234188909900255 -0.36089778032990105 -0.5623046322485993
Ni 2.747318879321606 7.530475134399995 10.069407009717002 -0.2733833422570002 0.08722390341567558 0.7750788454639748
Ni 5.899355007223241 9.558032949736498 1.8094895194634946 -0.9540859895312342 1.4278608550685408 0.3591466019667492
Ni 4.4136411555990325 7.461977190968109 4.610779731976215 1.4839900939619408 0.6718107441012431 0.0234515461547209
Ni 5.841005599475805 5.318879324800521 7.829400907126857 -0.30848198573234614 1.860273869829609 -0.4140090583325838
Ni 7.00343345477994 9.009881194507624 13.591305866497128 0.8111239120129901 -0.052562347477748184 -1.1087828389879035
Ni 7.655687132223169 1.8420620203674762 2.8891245740277265 0.14848686399121525 -0.8973911079423512 -2.1593129649815004
Ni -0.09760723317135901 0.3108591797885967 4.140311933602632 -0.0384863290006563 -0.14084888782998323 -0.5969754441579074
Ni 8.541114163624439 6.181402064339369 12.564287138057486 -1.2046718742777447 0.8152168511354412 0.21659641517494307
Ni 3.192134992194435 5.220365638626038 10.720344928574253 -0.366142316558292 -0.12352685161176791 1.4676538186957626
Ni 6.888024232217347 5.6329232384392665 5.363420743296257 -1.0915862726039587 0.4671879563484083 1.6816364503969425
P 1.903027993484752 4.238022894901153 12.501167170948252 -0.5208687337013159 2.3119063949419214 -1.036047101886074
Ni 8.308267880337626 2.0587042881139213 4.990238714348596 0.04324698361409326 1.8098295971361282 2.294445776263313
P 1.891870211157648 3.199405305972062 1.9646303526794784 -0.24662587165749783 0.8001237042477446 0.40516934855376674
Ni 2.515154772006217 8.36028146193952 7.887624159043961 -0.5186182471042423 1.0636633209414457 -1.3436459136825183
P 9.044055407213001 8.171963514321595 13.422105666856416 0.5288622934297537 0.01988131230495931 -0.9960489642265813
P 4.518929877106136 8.872632995983187 0.053014417855858004 -0.23928177258760078 -0.9055610453476532 0.25883784034265744
P -0.07794935134280269 7.457650513231551 2.6595256352624124 1.3365820648572013 0.39040633131197927 2.3186223735095166
Ni 8.452048147410343 3.014591686974459 10.450835892017821 -0.21841855598534643 -0.4820016243224731 -0.6565304209034049
Ni 9.258707216303103 0.14792658869628164 6.765139108598067 0.2790901628337903 0.2460154917670086 -0.29708788496279154
Ni 9.56513505574035 3.879357196830312 3.5550937264470774 0.4726217257694699 -2.5218865903519276 -0.306384222663053
Ni 3.620457398360949 7.002844727571726 12.529546625847066 1.8279232214130456 0.8884542104640377 0.09310530189711708
Ni 5.048905847890941 2.615827124610817 2.9453928778185072 -1.4915506799180185 -0.33240404376558236 -1.2123237343960476
Ni 0.040054943374092496 2.3143801042525887 7.857165469163757 -0.26936599356749097 0.7582293780068039 -0.5901087989450611
Ni 1.3570909739439223 5.882618333732585 2.511730809322255 0.7264618557872199 1.0407817883575816 1.3891570107404396
Ni 0.31603624127035185 5.076258300882091 10.75739549421119 0.7013889719789921 0.05127499612489234 0.6410608645128959
Ni 1.0895097853724822 8.572410154422991 11.1220017301592 -0.6124851097577323 -0.5993272322195355 0.2762058993074598
Ni 7.889720214802729 6.6179105821629545 1.3924454445286236 -0.8021193945215347 -0.5314341679219879 -1.001922649398539
Ni 8.51173387247166 6.999013328280174 7.102636792826901 -1.2577942080240208 0.07058346664551714 -0.061189941245759126
Ni 8.329620922730786 5.6449127147589255 3.7300242042477416 -0.09658580424654979 2.0958756224624615 -0.9339344542840238
Ni 8.396576961569732 3.8170829410281164 12.881241980670179 -0.6344724126621009 0.15308425355391053 -1.9874881975952932
Ni 6.108801720202625 6.540675179371065 12.31002800516906 -0.32873456533379514 0.21707592591452293 0.1090404850701348
Ni 4.758719403499346 9.110815203649208 6.1356747810385155 -0.5333889776555137 1.782576160736814 0.7175056750351966
Ni 0.2388578422240199 4.818806958242461 0.8867633487151528 1.374419704530265 -0.47215661320759333 -0.8716250547218408
Ni 7.094050720463297 8.473803019485299 3.495296797357541 0.7947511270819216 -1.73547329371174 -0.09095046033764337
Ni 0.605918042693887 1.557136741344524 11.6372754070284 0.6801390614612802 1.1023591948497466 -0.7065430053761057
Ni 8.860232345105409 9.257174656586482 1.7023701366851343 -0.6344181623853977 0.17586936976922615 -0.9374990317068306
Ni 1.208479405813322 3.1444761229580602 5.72709622956271 -1.1764648157159092 0.28599820280753324 0.6856646192651997
Ni 3.8390807798874156 3.5105803425803033 13.588269716180482 0.7096931209693133 0.8297271289364743 0.5106164598456884
Ni 8.383961378536574 9.331625286234756 11.277497668675377 -2.8034745799069074 -0.4405628975617123 0.7913477578273274
Ni 5.823997924571844 6.115025407832316 3.161820213409572 1.1222232807635253 0.43837591721272245 1.454364300675708
Ni 2.8501125188510414 4.164628236277136 7.024075352085083 -0.7139938052271962 -0.4984029484986319 -1.141295209793312
Ni 4.106690003087818 0.30913131215687006 3.4507366891091626 -0.1979546317040397 -0.5262922187097323 -0.22414388850489783
P 7.434961153524508 8.719246196052628 5.676148898349026 0.1800373851039867 -0.6660051931630594 0.12523946342750045
Ni 6.769120025910753 1.2063581188884873 6.652904340521671 0.4873536326630058 0.5004611165792413 0.9833428295138226
P 2.2276129276134244 0.7750575006385156 10.033942269591714 -0.2513744420860768 0.6843469288950407 -0.5413043758478484
Ni 1.5574357773867915 0.2559599003788216 13.4834884214576 -1.1815895385369843 -0.45559768040764753 -0.12644042571413708
P 0.7411598962722364 6.432657753978271 9.076239161262036 -0.17490083520836974 0.7369491284717888 -0.23989292380903843
P 6.176860454447432 9.178976731533545 9.426265521174242 0.15168660187543553 -1.3327655193245886 1.2819607779678956
P 0.46752042438198405 5.39262908872473 5.381570362086626 -0.4678543862878136 -1.8956789888017807 -1.2854777899822185
Ni 6.359730339170297 3.3713136507705603 8.803037964071232 0.8782315042947648 -0.5796744909856145 0.2783766817065335
