# total energy = -340862.87615734624 ev
CRYSTAL
PRIMVEC
9.36277386067702 0.00000000000000 0.00000000000000

0.00000000000000 9.36277386067702 0.00000000000000

0.00000000000000 0.00000000000000 13.70336594878673

PRIMCOORD
 96 1
Ni 2.0727027363878965 0.20922334821659364 4.965400931806977 1.8479639421140044 -0.11308637300473426 -0.4983803227908127
Ni 7.382912150081425 7.117112369691791 1.9419590929585075 0.4322960295672297 0.36188328417162197 -0.088668349171686
Ni 4.966895230477244 2.3600462588845628 1.6249177888063449 -0.013380277961647924 -0.304610675702398 -0.8794800319898853
Ni 8.154535775465598 3.2770550330901194 8.678081478374171 0.0016617039731390735 -0.12429535434667625 1.3830652960204053
Ni 2.3204042753638436 4.656809530849772 3.162476218321222 -0.14342796141106912 -0.35151145401899464 -0.7839861752559336
Ni 0.6140855963998488 2.1615835463931377 10.226863064631203 -0.8933022825849583 0.5615523274636072 -1.023059174266838
Ni 6.525768950422747 4.375813968869649 10.602732548012792 0.9509237897531688 -0.4456781073010906 1.3097353769780025
Ni 6.775736280615513 7.962318032980861 11.038773768638736 -0.5276600455915365 0.7250678036531706 0.498928739095115
Ni 5.005769466560859 5.529494934722997 12.909872581984617 0.48390552621340527 -1.9429237807213569 1.389923199482503
Ni 7.08708595468212 4.836424980037653 7.278447003380331 -0.5807965204051998 -0.6760206684175325 -0.32052966092549956
Ni 6.46965784809878 2.1268944701191024 11.657220544992281 -0.3210575084045116 1.8282998880261736 0.860174389682738
Ni 8.079642949253449 4.757702779413607 13.6890725637847 -0.649750936087726 -1.70555310911354 0.7907422630328447
Ni 0.6717677721377917 5.688718262959503 12.683534083584773 0.15771301057517356 0.21898779822525513 -1.315342952972767
Ni 2.9269715645442456 8.203680974213889 8.001696922562768 -0.7594406247060856 0.7634016662363626 -0.5462378085937238
Ni 0.9429155688210098 4.3846711527172175 5.119111458934129 1.8507065378561482 0.8377556556679057 0.0099977346426602
Ni 6.451035291362193 0.1911812834446459 2.1633643459362744 -1.5367139067182178 -1.7240894773548308 -3.13272465142454
Ni 1.0614576456646165 -0.03877405440584702 2.759158827785798 0.14608288253541293 -0.9767775175914791 2.825269821405128
Ni 6.138309289572973 5.456652555934335 4.760069688585557 2.7571319880866256 -1.0595266730652526 0.7755449864671159
Ni 2.326639882596909 7.8615652260213755 12.325820890813338 -1.2222211960154177 -0.6882958862404598 1.9124580080323321
Ni 3.771400117622589 8.904784188667957 11.018410672285592 0.5031232367924368 0.5839846883251942 -0.7399724886791449
Ni 4.709559397443003 2.1928458475210744 8.695731242931306 -0.8938728103764476 -0.44970599751356105 0.23318363010966292
Ni 3.038725630511017 3.43597875257068 10.168636911745752 -0.1138240225017072 -0.2721564118284345 0.23349936157786885
Ni 9.197923268037396 7.243575353020644 9.364934551373697 -0.019450395415127792 -2.978025487975026 2.410894380872061
Ni 2.575670935427353 4.430707910622597 7.737660152446387 0.6079717952684109 -1.196906371399713 1.069090662604604
P 0.4033304984184963 7.956981252015625 7.705758373879985 2.295615885312014 1.452296876623718 -5.256375387117742
P 3.882526877756604 8.277057031099075 4.4645290577817605 -0.6210461119538658 0.513680700593309 0.34713980731386024
P 8.303890740303228 4.979928211360768 5.459571868750056 0.10084252264037472 3.0721972834634443 1.7926746826233968
P 4.865767912572829 7.40307020169222 12.136330524285047 -0.03415864815957988 1.3120928214665855 -0.4697899127476296
P 3.2670555908605188 0.8230093358604995 7.316295079474841 0.47019820392964184 0.8448979231396417 -0.3409316216206193
P 0.18340924506000977 1.2348655759403013 5.2970359912056555 -1.939259958716525 -0.8797741661915365 -1.2715897191462164
P 5.599781276312521 4.301510997395765 8.806275638545957 -0.8838830461535874 -0.09240467628566668 -0.8013619475302199
P 2.3886308067562583 5.312727999798175 11.10997578948861 0.8046637582099433 0.053421610154249934 2.4767143646906637
Ni 4.783356779141234 7.810781541889022 9.177445009568688 1.4423189394754 0.32289404739261807 0.35503437957058853
Ni 9.37260453552584 8.008364153659866 11.463001977784263 1.1097894258755467 -0.09910265713113256 0.656390810001747
Ni 2.6363136201849584 7.511125972077819 2.6050101228530798 -0.7989998750559465 -0.862865820471972 0.27544973786772564
Ni 8.47325395237368 3.7783285701037728 11.315129140011189 1.3619076881061836 -0.16815194652031043 1.1604974937533756
Ni 4.815031042308592 5.67522650616844 10.481622262364334 -2.8822295266196227 1.2647462138618217 -0.28493659431223833
Ni 7.95542703159417 6.994319593623241 13.168386251940658 -0.3232581156002562 -1.467464328392776 -1.3880126127233514
Ni 7.399971123622934 2.986734148581268 1.870632547219444 -0.7296981033363303 0.003281241854433059 -1.3895370197876777
Ni 0.7956026249106056 4.971876226044798 9.814254057552095 -1.4935805658638535 -1.0470174848546485 0.008021070532263606
Ni 3.4514741429171116 0.4324103370148598 2.4336217428479245 0.7693810237482491 -0.758275914974023 -0.3979242369555792
Ni 5.442393051706169 7.3468561088583995 5.78271021108566 -0.07605554550368192 0.05183035440773009 -0.20329147053592087
Ni 0.1916456770163577 0.953158443164814 7.509923791944598 0.809326196682619 0.23392385070979715 0.20363394147700412
Ni 2.654037350653717 5.085221963527516 13.782296764473756 0.20452560005333809 -0.11207464391076828 0.0008844594874823478
Ni 2.659982711904463 6.396459683912435 9.301899677955358 -0.4471449216546041 -0.03721080472234237 0.4541974576260113
Ni 5.186789331792223 0.22884959428559046 6.129474576382102 -1.5741435123195857 1.0206287104484744 0.6189493773258372
Ni 7.8895973702493 3.638607899324439 4.072448868148927 -0.5574254497794271 -1.848102524574398 -1.5255581472117146
Ni 0.49691235705995707 6.3672946440761 3.6602920830358197 -0.3729881358355318 -0.5837250069059043 0.15922584767527417
Ni 4.301913596661563 0.6350638269800389 13.207550734006595 -0.6457024770499654 0.3122450523192042 0.10040029289663353
Ni 6.540740025446278 0.9974818134971445 13.654718674806375 0.09240827583009247 0.7233366798946769 0.5650536557486463
Ni 8.121419645160262 0.9884935508188518 3.0618385734773015 2.742890133455631 1.3942295401673408 2.198859874036187
Ni 6.880515080232985 6.3810485585286125 9.202673003096457 -0.4490889327548524 0.06803370364046991 -0.8610807035470912
Ni 2.371384577742284 1.9770994549211822 0.5713660691891764 -0.040220023862311376 -0.43566031805377226 0.8110622055371193
Ni 4.1766490483564835 5.94999582368912 3.9314820122003424 -2.0415968065142387 1.5913650184041948 1.9666085259328066
Ni 5.939003927455459 5.3105558363175875 2.307687756228784 0.22491496234296748 -0.311774797551005 -0.864555292359253
Ni 4.8208921385967285 3.8206014930126178 3.690576910597492 1.3513648795933308 -1.641523898646773 -0.7709170007768014
P 7.013831613854035 8.15125880469747 3.8265964769635663 0.5191687202910736 -0.28244956622432643 0.8766309925768644
P 7.830162483289091 8.780493368819691 0.3092645843807149 0.4637627327169433 0.8335986960767385 1.5134611068378645
P 6.486801086602899 8.232892827918338 7.80936963562664 -2.50661552312547 1.4225337864286727 0.11950898870162643
P 8.130548349442904 6.280174035512025 11.007776434004336 0.15961434136294447 -2.8077274416459903 1.0501051226410367
P 1.8652423984445556 8.830453128873202 0.8145004471917159 1.0326930978121762 -0.28125400325432853 -0.43145270773032796
P 9.064681636605332 2.511479759466547 13.340760532008341 -0.3526949328041345 1.179181186205808 0.6311101810580874
P 1.4042100624635077 0.38415179292868945 11.18496130715963 -0.6675098027330439 -1.886469040167738 1.7313965525392052
P 6.058613360492112 3.267036865313272 -0.08730880031390241 -0.1436328783330236 1.0260231419911685 -0.18439334807983726
Ni 1.7929524232996628 2.133851010921156 6.298957631954932 0.47062860659884115 1.3203090387287906 2.3810605853400797
Ni 4.84283847996956 3.6310334154632526 6.897452337717392 -0.20131017843983395 0.5764639544681169 -1.5748536510127327
Ni 0.6651220754200291 5.647372254639356 7.483120043616039 -1.4891053037013193 0.727137798808322 -0.7461850452477601
Ni 5.090128056906085 7.734325132481796 2.681310173940799 0.420641733157753 -0.4137653177528938 0.8307270309558984
Ni 4.235456629483937 7.877528755048968 0.560047412156064 -0.9023181129303235 -0.5711793090304099 -0.9505008432831372
Ni 0.4523024858547561 3.198950775525206 1.6181073072728134 -0.09144899724061671 1.8221523803675395 -0.9049195551089125
Ni 2.055746753356243 7.42268521243287 6.043677864008349 -0.19198170195005648 -1.51985029819366 -0.6143293620553226
Ni 8.89354886032009 3.083170716900449 6.3828087599697785 -1.2133794293540716 -0.6377428558832565 0.6307186020466233
Ni 3.2582545836546903 2.8755886629000065 4.899405549368976 0.4968237769369701 0.09768160841388983 0.8551890206530046
Ni 9.356547378762015 8.33107087213144 5.021598171648278 -0.5076776889323386 -0.14453173599820918 0.1499909593405675
Ni 5.7778986817206865 0.6713108687849785 10.13143299447652 0.05764027622128783 -1.666707339890936 -1.582911488320203
Ni 7.384915783636795 0.3730840582286793 5.227889099166078 0.06351756093767125 0.33514766794899054 0.4855541175604218
Ni 8.171744553385079 9.192043446202014 8.76576853474245 -1.6944719115987141 -0.36210182794033124 1.725923959460408
Ni 0.28658420155582326 7.048127453635894 1.4139136410466144 1.0113614262139357 0.30293303088965895 -1.0935009731281684
Ni 2.332603969394901 0.7520601098984518 9.430807281477234 1.798667924092354 0.5880061507797615 -2.100002243036325
Ni 8.735533329880983 0.617759548769601 12.334481456414817 -0.4884484083890813 1.4414761318591305 -0.2353562122809495
Ni 1.3031857350689482 3.176723550943678 12.19748909786929 1.7610591126006443 0.7316760529983076 0.38838030202088597
Ni 5.520178974967893 1.3182410750550884 3.745554181035686 -0.97841916695996 0.9030909865406059 1.1454292865663434
Ni 9.413800739468014 0.8574596614071429 1.165512702881013 -1.2608749038318736 0.37030750367957516 -3.3632284207091945
Ni 1.1390844017747457 2.4393302259260023 3.633255201644043 -0.6852185328667166 -0.9737436158611616 0.969547318391627
Ni 6.916608572550504 1.3662908292894609 7.400214555737137 -0.2776261766937541 0.8249273935549858 0.28269484946591317
Ni 4.320264632963077 5.974788448243411 7.700153817589125 1.1460892887478458 0.35757051572888093 -0.5545702397188191
Ni 3.848071870823149 3.0825902249358093 12.69520852601557 0.9115090354009722 1.0597740131893685 0.33405443488481174
Ni 7.6417741152162515 6.963796951611539 6.719459457198416 2.1323354079513925 -0.011783108677857125 -1.1941763740630593
P 3.184887889543127 5.015815722658576 5.852734395013734 0.296616858863644 0.3952189222092742 -1.8095678588343096
P 5.981061506570969 2.4778205882910656 5.471055310598936 0.7133541147606681 -0.3544810781702798 0.12905009542284226
P 3.767271134454748 5.774621710952559 1.8361279175857859 0.477330701209365 -0.013731490653479577 -1.4788329752410336
P 7.810931346266994 1.567627913283215 10.077935042270793 0.10253739384429436 0.44920797483121994 -0.14364907628293969
P 0.9278621013895942 3.2535825596167025 8.251975096839827 -0.6756283180751202 -0.8923710290199407 -0.113953606101036
P 3.096016442311509 2.4690195810852376 2.7819890149886612 0.07871432328276766 0.8821115560754614 -0.9256017660486124
P 8.400411573585016 5.050888672651163 2.19094894958501 0.1489838582322918 0.08894371432025971 0.24381308479905103
P 4.149262935508561 1.6613960911197778 11.170846925922623 0.13106198364654847 0.3226724183001152 -1.1714228824166277
