# total energy = -340885.7877202403 ev
CRYSTAL
PRIMVEC
9.12307691703483 0.00000000000000 0.00000000000000

0.00000000000000 9.12307691703483 0.00000000000000

0.00000000000000 0.00000000000000 13.35254524283225

PRIMCOORD
 96 1
Ni 6.546647060357187 2.216588399842367 11.195775303063874 0.7832593243922381 -0.5381676299910797 2.0409288339129366
Ni 5.206494420381699 0.48882267566568804 6.2394976905549 -0.4486392468119435 0.4524447366009627 -1.1298872250666863
Ni 2.9315913124464292 1.5484689798680666 4.765764045046385 0.20634979774627044 1.1327324078249654 0.4111399643149048
Ni 3.741665810318975 4.939963726243059 4.801855849909704 1.4880681206860567 -1.1391503955361673 -1.370767966710291
Ni 3.538549624308272 3.340870792181075 2.5928770085811497 1.4274168255525868 -1.4622581016014882 0.055160447222227585
Ni 5.425229314192004 4.930849772334297 2.48338640013669 -0.281734799545489 -0.5485068071335587 0.0722323151028498
Ni 5.289715128645698 2.984131112807354 0.5503961468579013 0.1530261466224655 0.061252676162894516 -0.5917445347762712
Ni 5.88246880964073 8.457493781176167 12.07290441678167 -0.22469513302267755 -0.8351007345435618 1.5281523903014522
Ni 2.152544399402413 6.693172799825293 0.44138085072439903 -1.5362572787967737 -0.3415499719309085 -0.8884899487979795
Ni 0.507795938872949 0.4997010326634944 0.10713046842824665 -0.5000140017394937 -0.5178510299209146 -0.15530748645747447
Ni 8.173428533070918 9.057965585301144 6.935138696872106 -0.8516128732659721 -0.9312175695734929 -0.7708185275257241
Ni 9.031098123578113 2.5191734942286854 1.2230679822480903 0.4193731508579745 0.8004502343492279 0.4699495782539455
Ni 7.214492788021916 1.005864853063693 4.8061555560930875 -0.8753480120993827 -1.0458139514648506 -1.4461344565667482
Ni 0.5496188606987156 7.817555546010843 2.191112207359665 0.6399349784385688 -0.2383939706660088 -0.16781924577124
Ni 8.3365491495761 3.879907795884021 3.453902979111402 -2.006499191480157 0.25229721101066227 0.5961933145762442
Ni 7.867531761738773 3.955182304093431 12.82035264037785 0.12803348123286984 -0.17727087810244307 -0.4275903965614442
Ni 8.595170135968097 7.4168791278737585 8.91258387968705 -0.6157630091780556 -0.7992510718348041 0.4749434319241111
Ni 7.138360710575845 1.3672025632382312 0.2557280586798157 -0.6374692905068957 -0.3666920184141749 -1.2481924232681987
Ni 2.136369183906681 6.9723480786661804 8.694897227422409 0.3855104366722587 -0.2659345992884388 1.4449316945078987
Ni 0.2623550618022633 5.1428609584061045 1.6096492464421943 -0.36432248974073383 -0.45982534533575 -1.4167012389072955
Ni 6.703746446051776 2.3389562314522108 6.921118352160409 0.49949361045964946 0.24794613313081817 0.01328257604151906
Ni 3.7900089952664557 4.799951863742778 0.3253535576196505 -0.4211644384304424 0.08356522361716576 0.33035178922224395
Ni 6.282479243157856 6.127551149785876 4.455531075222914 -0.30124458744364246 -1.3814984657539175 0.9171904020564656
Ni 5.746160916396662 3.0407306824269376 9.204550624769656 -0.49986822019024874 2.0757418278270636 -0.18699504736874248
P 0.4572732508335728 5.761232239577119 12.447443219354588 1.82083803243149 -2.116557319181529 -1.4452877922957366
P 4.662266385873863 6.487055121486279 12.266302701187154 -0.38484632072569847 -1.1265231936904596 1.1145935321324094
P 2.161831691773905 8.804417029713223 1.130015333916552 2.5644817993146347 -1.3829465110543537 -1.1540116289187157
P 6.56065098353031 7.917371131311917 5.615118863188769 -0.7471029290763391 1.2365275853357607 1.3599899022581805
P 4.870290787302898 1.211517254476434 12.597085401921024 -0.2962291365069221 1.0849721097215508 -0.17445037793451246
P 4.458885630630574 6.668868922735259 7.953804139254504 -0.3719789778447271 -0.9973183178573081 0.11464857528553157
P 4.580769939160173 1.1019764691085527 3.454997748349692 1.4238802731542382 2.021050606931771 0.4893979167865443
P 0.41353721976389485 6.2157986734690205 3.5215606303454114 0.2075204210156039 -2.5399701873265155 0.1347324905196002
Ni 0.7101768048786007 0.1412252317393857 4.805928391476142 0.732598564812577 -0.16622387625966212 -0.2520933225299723
Ni 2.0102700138096665 6.527096306376729 4.89087701052124 0.5360588111781929 0.44401666043826754 -0.954703311400259
Ni 6.414398936371779 5.982038071863188 9.012780809606127 -0.1591641411994033 -0.09372673753119988 1.1107746726069514
Ni -0.23219234467198185 2.559287663735021 9.915212777343898 0.6459852983977068 0.8632334882240359 -0.4301188194102528
Ni 3.00815217451083 5.422747837251881 6.894319313514773 -1.2678446502814873 -0.13701331613397694 1.1350613130684581
Ni 0.8622940782312716 0.08285304826147151 8.703710119790642 0.5697497756727349 0.5215822148285727 0.5992092185844325
Ni 1.6493610882534586 1.1748059926857826 11.235739854107644 0.3825387556384444 0.36236819422784045 0.3050824731324939
Ni 4.199106013461387 7.257717926780391 1.3772352109994588 0.4682917309355484 -1.3115168943584574 0.42544583941461567
Ni 5.936860594629762 8.249122702821673 8.061906215381732 0.32968690194473543 0.11506355133576313 0.20211056285394227
Ni 5.321718882711703 2.9674723742313773 4.829669374716156 -0.059439791323871824 -0.28836336060560014 -0.06562895085371924
Ni 0.7122258479695999 7.366118327525054 6.562509354312308 -1.4715991764967558 -0.4548536031527715 1.2677461770304101
Ni 5.493789237739904 4.882579572002703 6.914989469041384 -0.18923756354601604 -0.5282853378803611 -0.2197969243901118
Ni 0.8260854979825346 7.85249693086626 11.794664253331822 1.879424217505815 -0.5204198190893553 -1.272436640527544
Ni 4.960773464847552 0.5864532840286749 10.153648955904927 -0.5861449292013067 -0.3468500439875833 0.40947517501797226
Ni 8.283644426135746 7.55146275956752 4.5112238109901135 0.1917500455552246 0.8802937861404323 0.14284714920693461
Ni 7.528399620947548 6.266659827664568 6.903546393578159 0.6160725699986744 0.3066030235420784 -1.2480695245370892
Ni 2.4030093549691505 5.455746006709333 2.618354113371551 0.6693903075852083 0.856475600674912 -0.023958567698126477
Ni 2.8996514199193233 5.465060668311782 11.366341262697125 -1.3505590958625837 0.1638494624902146 0.97485613219905
Ni 1.4540268869115989 3.3907922694470902 3.7451216318811764 0.6733199816569179 -0.29915145236003965 -0.2859511516196817
Ni 1.688435226983419 1.0195220993113585 2.6007958394047797 0.38262205938087007 1.3305317448980636 0.007601980716974005
Ni 1.2200655776120803 3.576848301494444 8.120283872705837 1.2279902372887108 -0.7976916977674843 -0.22417294197062038
Ni 3.7340571641128606 3.1673863602200827 7.686352926648001 -0.34059120756206507 1.1572103383616714 -1.7360913869117134
Ni 4.330222875900564 7.364558281360491 5.523547802559717 -0.1313661451505286 0.4420772773237096 2.099593437633681
Ni 8.452111165754575 7.078531571703307 0.07465231435898226 -1.0883343413255644 2.168631157058633 2.4091406314057475
P 0.7246423557472035 5.621193007845881 7.849694321616238 -1.2825891555805136 0.30629217716987894 -0.3826547123910184
P 8.799964968144177 1.722345704139446 7.76461159333945 0.35995984189666397 1.5703485640535277 1.282063879204663
P 2.101929568285481 3.566822039887106 10.310474649289944 0.7969741028751695 -0.5520729272182622 -1.1513001435248236
P 4.279498567859802 6.635104414811004 3.563206564477654 -0.24236169706450514 -0.5645890574074018 -2.1201373232233034
P 7.221125264990554 4.231602413684623 10.282113739864347 0.6713181207355405 0.5222684422623198 -0.08781962801814554
P 6.802330415959773 8.046964439894474 10.159471303637233 0.015222216266393139 -0.674611960995464 -1.3128399840452551
P 2.3551132007939715 8.490929858328935 6.0372600568579236 1.7831114644149935 1.517393609123051 -0.6269619632176686
P 7.354413419752339 3.981420273504444 1.584706753963158 -2.073614497071416 0.7487906011914072 -0.7055675288367139
Ni 2.7745010498288263 1.9034296592295665 0.38505132418359395 0.588005122338497 -0.9973694828102176 -0.2932543701493143
Ni 1.8057579970201438 1.5267651797189712 6.917112409055966 0.5252550356944696 -0.15087079084235952 0.06469461196490793
Ni 7.211126372614174 1.05428102262706 9.272862400623543 0.3492416841482114 -1.505769908841194 -1.4591642931675126
Ni 2.991776251321411 1.6791023192269985 9.227330035695372 -1.3021017716921446 0.6818087358542193 1.4313485565068251
Ni 6.2304229658771755 2.166210768727064 2.53564794664955 0.8479845324847654 0.11876028346105998 0.73155701092194
Ni 4.401720430237874 7.188154464764059 10.195923470041487 -0.10182545537893431 1.0177336482888666 -0.16451949197404567
Ni 7.5311182978893 6.093129780318646 11.510014215991788 -0.2475787224890704 0.28166666531171497 -1.497378599453705
Ni 8.048834670676552 4.210719690464245 8.140592754383812 -0.9051771796456733 -0.29055599738154475 -0.2660685537631418
Ni 3.385811069412872 8.397327088455157 12.483815102681369 0.112136093276323 0.5881151655538001 -0.34138696399048307
Ni 0.4939954603166074 5.018440434474467 10.080998244636618 -0.31155779644419246 0.7920974915091583 0.6568980886554686
Ni 8.973768707799671 2.189346891962922 5.647632597258278 0.06074925416391474 1.7562352088494397 0.1401256365107135
Ni 3.7039601331368766 2.8320859117628707 11.560834316340898 0.5624766390500894 0.11920534141827857 0.0771076409172801
Ni 1.1768860542385333 3.47501651617952 12.406343757533792 0.7532558360516123 0.9972015897737859 -0.17550812977506547
Ni 3.342604176808367 8.879426968690046 7.999549984184141 1.044407300925311 -0.7037669852928654 -0.8316253744004516
Ni 5.979136933381721 8.324698272571613 3.1163235860231504 0.044927456640309726 -0.04503081498739342 0.7148867493551108
Ni 3.251984653108928 8.67889261346631 3.721140711716438 -0.5249495886389088 -2.6534507104458753 -0.8501943956518907
Ni 4.027446196897545 4.896747710561569 9.40586682769107 0.103558378909641 -0.326183002556535 -0.7714985843118842
Ni 5.657110561938772 4.344838045231732 11.806547973413458 -1.1557982885054934 1.2195117675040545 -0.3618436891829381
Ni 8.124683932736065 0.33246134689924717 2.1634993902469 -0.6368439982180709 -0.019063444389354266 0.8856977307648229
Ni 4.7595183865419415 0.352499273190745 1.403018851176581 -0.29452295244909277 1.291677233924711 -1.4926223157156424
Ni 6.240686427486142 5.775737931984459 0.36937422869128383 0.07099638581321967 0.6415244344128758 -0.19769675005696277
Ni 8.086211917087164 0.06065477733974843 11.5166640268067 -0.4265457573470138 -1.0077577680230774 -0.30840048176213336
Ni 0.25689216330319714 4.619433539425774 5.40437578481798 0.2709906736551075 1.7278502299488436 1.945734510697275
Ni 7.51476974393084 6.467823675200321 2.430483501311732 -0.2625245451656253 -0.07881073965131588 -0.7405867252243761
P 9.03158164665836 1.7924656738519087 3.4061938480144307 -1.2844496058280201 0.016300022711604183 1.5280202355989618
P 1.830591012575351 3.6090253940231785 1.2805461041814012 1.2299710151641656 0.7742977443235761 0.3777356778228462
P 4.93528358774937 1.5015489949303626 8.126692834288326 0.15368126370796112 -2.2816740784199414 -0.7930940510944728
P 8.870121430164584 1.9137661054544195 11.9010703494474 -1.4584857790432497 0.8432200212165865 2.327736162885327
P 6.798991369782989 8.271437749128813 0.9108589539495062 -0.8914510883088325 -0.45768824438808914 0.5961022975243346
P 2.4208540935532747 3.474022100788073 5.7288827208933535 -0.34765814171117543 -0.4484973219174405 1.0267145116312382
P 7.156114218390111 4.108449997454005 5.530824368763549 -0.08576428815101358 0.3854636425947232 0.3297606926054643
P 2.517412740370436 8.583364874348538 10.28093959985628 0.047982184306233494 -0.06502191339733962 -0.5536040191508078
