# total energy = -340862.07405350654 ev
CRYSTAL
PRIMVEC
9.36269749904573 0.00000000000000 0.00000000000000

0.00000000000000 9.36269749904573 0.00000000000000

0.00000000000000 0.00000000000000 13.70325418582258

PRIMCOORD
 96 1
Ni 5.927776530510843 2.778193205942066 7.267740506222003 0.5823844337176098 0.6533427672040426 0.0012901795663332618
Ni 5.125814682854833 3.677143236189502 3.7571175250262088 -0.1592839546067192 -2.619722464955495 2.4351275423878125
Ni 1.0855860406516722 1.3982158702597722 11.358325480238054 0.295149273179182 -0.44332837612199133 0.3744948022880454
Ni 2.915918485015324 3.931986497310848 7.445882677525271 2.0626824235399446 0.40889359148288934 -1.1697241545579662
Ni 6.0634513788487485 8.573487567935807 4.535092141887813 -0.714213634547486 1.3280449739204676 -0.44262877895180547
Ni 7.51591471796987 0.7011836451482778 7.670958178464052 0.14365241871704937 0.7378387301655938 -2.105076572235439
Ni 5.335932338392703 6.253289431771207 7.035236641148842 -1.5298847996115266 0.787152231688741 1.2425254547904085
Ni 6.849955413061525 1.6801828658117937 2.6616519660551545 0.23834049172025404 0.3527270715936506 0.8521391780830874
Ni 5.073477204267512 0.4369664513683219 8.755159476167055 0.5471286958391093 -0.3568452075270822 -0.8219094326642683
Ni 0.37800767316437095 9.053241546521313 9.745699157672561 -0.5467276037459488 -0.7024279547664677 0.11416572211184209
Ni 1.2376549721749797 0.9527106388428568 1.9473146672991255 1.3845683629284928 -0.40197243888302386 -0.11939071795620727
Ni 5.111602108168689 5.171560822457277 11.973053977394322 -1.331225171420662 -1.1996957612193917 -0.23921209569192994
Ni 2.657554849663417 0.3599292407128038 13.62584439935944 1.1089903270130193 -1.5612502012966856 -0.8868290161557888
Ni 1.5626997385642585 3.156408730989199 5.368317908774375 0.8361697992380245 -0.18209066808858965 -1.2604889812473647
Ni 4.794880779787303 0.026576016631505255 11.691685258207547 0.2037812656881458 -1.1192605985907755 -2.2254738770792897
Ni 1.0163488932181752 7.302782273862213 5.031081037802554 -3.420419010987574 -0.647025309626447 -0.5847789020917155
Ni 7.173904743852464 9.176969592949124 11.799816923270285 0.4386901060190316 0.38485660513834363 1.4471266452766882
Ni 6.849056594109042 4.924217081970715 6.2167692942081105 0.6893839770983159 -1.8022499850166576 -0.9768646779886466
Ni 3.439106016940113 1.7588388868515241 11.642929011384027 -0.7465876800028175 1.4530252701493105 -0.4913658391461925
Ni 8.943445193856997 5.867911443196471 6.817574524028563 -0.09612686233226025 1.1067434399603713 0.7855455493232536
Ni 5.706489176948883 3.1448926131605033 0.7659323154378102 -0.08576608792322649 -0.036796085782426956 0.9166065045285375
Ni 1.1826023113353634 6.762732523880936 9.80692558119205 0.576498150140162 0.4748557573063113 -0.18012660238368336
Ni 2.444628384899037 0.7077731115936726 9.620205306511018 1.2075443107295332 0.5741707875585661 -0.6430467845946732
Ni 3.4327487453907763 5.311636138583383 4.114771630265538 -0.5564517730122481 1.8694799618089095 1.5606722173060283
P 8.48903603719204 0.410765878903427 2.053514807883766 -0.11796709813580328 -0.410894423963002 -0.6206061962029699
P 2.4939885257062575 1.8483088234133225 3.686531212894244 -0.8165687371776453 -0.1042831728908075 0.07227705229785616
P 4.486052205332415 4.556534591522999 5.751790588423795 0.9721580165415966 -0.6282531712252665 1.1654280982857734
P 5.603153085505541 0.9295473254215624 6.178413131680618 0.16561735302391478 -1.6162792651473714 0.28369038060996304
P 5.174304092801836 4.74330167969114 2.048979517252693 -0.4727050295118956 2.6430943069122157 -1.618336404786716
P 0.34647972586652676 1.4791844775626637 7.723208583965354 1.635741487637041 -1.379014008769167 -0.07743622790129244
P 1.041899694482004 7.939314620774144 12.045530618135729 -0.3578456237671385 0.22311030503406093 -0.5891479776936887
P 3.4770717549851207 7.774446881875368 0.9804476299546533 1.390147399678167 1.2924997298260064 -0.8750610769865834
Ni 7.726219627456173 6.047366264678262 8.898454623936484 -1.511992749822454 2.5715209655496034 -0.7635626172942591
Ni 7.185233607732726 4.040958932602054 2.883109720710191 0.8673516241574675 0.3863144206307928 -1.5510969149127674
Ni 9.330976602838724 7.118926984592222 2.6770947991825125 -0.8468123665535352 -1.3155296150622764 -1.0710732402522716
Ni 8.116063622701063 6.789715817850285 10.937279359565597 0.8034990484778807 0.6754725092235463 1.4406847463060866
Ni 1.7464707635574541 8.346723036382148 2.9998344694665677 0.9980492824860618 1.1477211679243138 0.4371201904287504
Ni 5.349189917941835 4.6371193282316 9.396773895239487 1.5635636799212105 -0.9422211197728484 -0.7775208792465642
Ni 0.2872353853912138 3.4350894197462027 12.155677135683618 0.004917234795959273 0.6335419304280315 0.3469541736656154
Ni 3.490516588482687 3.273564163826974 13.57633445539347 -0.736585574484783 0.3922477553960922 -1.05304697887818
Ni 3.092386606019591 3.8383314350015483 2.441563974032914 0.04066122516478804 -1.8416305436968088 -0.8849816785344049
Ni 8.799372005931824 1.9505775673505892 9.617217669763752 -0.17289228941877322 0.9167707980205437 0.04530900834944455
Ni 9.44115682609733 3.418526808007209 6.989810705798221 -0.9696095390881301 0.9389388494771507 0.4390202356649407
Ni 1.7039828426577637 5.479499940657104 6.140852798433971 1.0884150739648288 -0.7631967493144082 -0.10967580466128853
Ni 4.400364798528985 8.509231375530655 6.799225509621509 -0.5262917044891 -0.049517904224469556 -0.6455135009676108
Ni 7.630607761385737 8.128506647574506 0.6000814933097552 1.0741868461805888 0.6837149517379967 -0.791904658772062
Ni 1.3404667525627052 7.626881407811899 0.5532651973920114 -0.5167588252980003 0.13167776285367644 -0.5769930874987096
Ni 5.605531210650654 7.068321605027915 10.930208650472727 0.7299649838444718 0.9630779086171996 -1.145238767822092
Ni 1.839826219549259 8.283889973985096 7.769389152728164 -0.6734436517189757 -0.24001530831951567 -0.5902430105300802
Ni 1.6731327546532508 3.1554818239444504 9.037556219530732 -0.34452216718535505 -1.3483579744462069 1.6884287907284277
Ni 1.692232657393526 0.10042803762415994 5.311243841561413 0.282892567299016 2.0800682231165597 -0.1399160916030687
Ni 7.545126333925585 3.9864680336077405 13.594943752788849 0.9868454433504424 1.1988691515530385 -0.6421376425168425
Ni 5.726141478837038 6.150777257700977 3.959391112664174 -0.9581277637007757 -0.9193357305342424 2.577880332108728
Ni 9.2116864749888 2.81981975867896 1.3014449022485297 -0.7134693001822938 0.6275443180836999 -0.722727328445452
Ni 8.608588320569773 5.185015018652265 4.492502167586227 1.7909648990211413 0.8526423429717509 -0.40797596476462644
Ni 3.3444210579144262 5.395151399584977 9.93146069213761 -1.4241931764089664 0.9752636520501139 0.005958274465963933
P 7.848655621639789 3.1767351470917173 4.7550013063893 0.04373240789094404 -0.7951329359013725 0.5866424376630154
P 1.4005471819177764 4.98591725797974 3.311500877509974 -1.4834784444328453 -0.3108438010963034 0.9184708114307858
P 7.679228249096643 2.0628924856213438 11.501141257899492 0.8218078740893975 -1.551260179963509 1.6693314077773445
P 1.5612485204638946 2.1631482496129446 13.76176735917902 0.42461768708636544 2.681752385604046 -0.33748711471544457
P 4.86147764654788 1.0976171068385612 3.47565237005599 0.3188224484264057 -0.3080091598609857 0.30530641621784194
P 5.232680511226157 0.8347565679150102 -0.2196030042957967 0.8847623634347473 0.47293720012735974 1.094520158421302
P 5.922795575482497 7.4416778901131835 8.898139101033372 -0.7581859263633781 0.2873086940888407 -1.3293194697575172
P 8.622463838148736 5.11765977340053 1.7153594562948755 0.5374472068852874 0.20740857802808796 -1.3992084814391708
Ni 5.362522399070341 7.623557650227195 13.179748381735214 -0.6764364157987124 0.5432185621514257 1.8714849080540799
Ni 1.5881381874590268 4.6231782717706835 0.8152943287845152 -1.8053468787744262 -0.1632498812330027 -0.7838684187311468
Ni 6.2590755787778205 2.0722832711353125 9.762485537879934 -0.048924236504528644 0.6598833965360377 0.010085152150143922
Ni 4.099400889908328 1.6604462996468428 1.3858514920446707 -0.8024556948150309 -1.0551511697053764 1.852436118952745
Ni 8.56509859104596 0.01276697420423483 4.340656068261556 0.3792891383528952 0.24118413181663625 -0.45313610624103257
Ni 0.21646088304107305 0.6393364747897313 13.437616730393513 -1.4171031023314045 -2.2417566733997134 -0.28224104975794617
Ni 6.853419611107555 6.774932118621415 2.3018182248560524 1.2315375883203372 -0.2577957722313883 -1.545877318385041
Ni 0.06513347715356442 4.69378237302775 9.74116386704149 0.4018492830415982 -0.6112417242689343 0.5711032043768358
Ni 7.312912712472496 9.013946305442424 9.581247122539311 -0.3862804820690638 -1.1710004501672284 0.30875118023333276
Ni 7.382046870234354 1.4451510724347716 0.09146793619158973 -0.8449161779720867 -0.1158654784117682 -0.2715725143005065
Ni 2.907304803387357 1.296433986588434 7.182025947596051 -1.559745591726701 -1.194639429742407 1.8953419171773356
Ni 5.797138813385815 9.01376841419141 1.948233147916195 0.4176553968359194 0.3461962124536683 -1.9415019606731658
Ni 5.766635145185905 2.9987221810128695 12.072745170731395 -1.597629768366984 -2.0413062718570134 0.7022050401223842
Ni 9.486472281618374 2.140181552837506 3.5546510658213557 -0.6376562097067212 0.7325741393325448 1.5194088397808672
Ni 7.262897182845757 7.749607645615589 6.332753453598431 0.2233566167169121 -0.26648327270305716 0.6500998347867126
Ni 1.6713725675379707 5.790987521179756 12.08326884263339 0.3288965448329561 -1.3403330472592014 -0.15976500800819582
Ni 3.8165818888909318 5.635370127333623 0.19125931039107383 0.325761084527768 0.41332103112662366 0.4574378189401799
Ni 3.2752307239680376 7.512909292097503 11.45135698689907 -0.9463909348798217 0.04587105150050164 1.3832339603877855
Ni 8.904692989228565 6.016600440950544 13.141338851832417 0.3899967545783864 -0.04948782231748251 1.2840726821045756
Ni 3.866391439174394 2.2667090457944066 5.522699426560844 1.4783588638180927 0.97929848424112 -1.9107824201021224
Ni 7.359164437735711 4.0001282091460055 10.816622277892106 0.9731435203833175 2.4199423500069424 -0.9500920378804927
Ni 4.089335990179997 8.199410355149066 3.12243711966429 -0.5853000647025082 -0.8345044957204596 1.3158664295764047
Ni 3.747194938298687 8.13341270102348 9.326571453701812 -0.18618283588009224 -2.000645303802542 -0.4510267732075135
Ni 2.6423498290505707 6.271078556872444 2.1361181421564868 -0.3427519626588097 0.009912374017705509 0.3984379433672041
P 6.811858597252614 6.113981856833682 12.722827213352016 1.12405596309689 0.23567554329358123 -0.13572133679543075
P 4.250262033464235 2.3763743206948194 8.58308807787202 -0.9866217573754105 1.0569923366791731 1.0567763640136252
P 2.8189115770290543 6.207093882692522 7.908956074384271 -0.1063786219672555 0.5435142390149736 0.780548096108662
P 2.962423003108925 7.682552006681348 5.2192955989920895 2.517766397535967 0.40159448671831477 -0.4363547730176356
P 8.78368012505305 8.01118268618314 7.8967883128150245 0.7687403048404566 -0.28514742477146376 0.6913894375641191
P 7.7917678721055195 4.123566011953744 8.319191088343887 -0.7325260597034287 -1.9080907322025717 -0.6559005006288897
P 2.8630473326749644 3.880838081296082 11.33655159111414 -0.5393392817016776 -0.020562654642700073 0.6268431782516173
P 7.971456761022852 7.356205825350452 4.2686185380292265 -1.511414508721481 -0.5901054565109515 0.6627303790665297
