# total energy = -340893.30488340085 ev
CRYSTAL
PRIMVEC
9.05864925450877 0.00000000000000 0.00000000000000
0.00000000000000 9.05864925450877 0.00000000000000
0.00000000000000 0.00000000000000 13.25824884627544
PRIMCOORD
 96 1
Ni 6.4461800151884505 1.988726771670319 11.382829456706116 0.1974758922954083 0.24559383084855765 0.02754422816685579
Ni 4.895774099041804 0.2757960079966013 5.992343505432422 -1.2278812225146722 -0.39137486587283565 -0.3142309724009814
Ni 2.8545796316021037 1.4994328974839528 4.948747267432723 -0.36968349694233105 0.09398616184017362 0.25164415080769564
Ni 3.202051294986423 3.994655918041269 4.899374006206644 0.21775495425941854 1.455214050270513 0.2917109369215944
Ni 5.2793625965132325 4.615463260318087 2.5437139693579907 -0.00995042634449254 -0.3421598376007655 0.13812069026554277
Ni 7.384021959767902 6.0221718252924745 2.61898137912633 1.2676615877364037 0.13792271532212377 -0.9691259145834922
Ni 5.200235296349979 4.619992584883814 11.549008563292817 -1.110949507621919 0.126004366617983 0.42442459723895287
Ni 5.708081283957564 7.7880195937324945 12.290887468806257 -2.267562064498591 0.13169164681074738 1.4227582437346529
Ni 1.8304812299929458 6.378013680474258 0.6108564162059152 -0.19445304630868449 0.8592277094987525 -0.7875533237819018
Ni 2.800617258726031 1.8748957866844655 0.05980610743077363 0.6440420586284069 -1.3050791091529135 0.5794906571095826
Ni 0.41999339660091517 9.082926311126476 4.974959374559498 1.2048932462599313 0.23853743822240858 -0.2229753221180934
Ni 8.698531593882349 2.036665142873974 1.3974587783462602 -0.1090098889425155 1.172956802562651 0.17786120338827432
Ni 6.824976487269338 0.6653251675684361 4.590165170888675 0.13808289504907187 -0.25765204756467236 0.12167205779121626
Ni 0.7513261706926359 7.238938635278531 2.7273807980929634 0.32725592390573965 0.6282457150260986 -0.6243430375375828
Ni 7.558328486355343 3.757237782954987 3.817248615856131 0.5915398749646329 -0.26286033123848923 -0.7014892450022822
Ni 7.713965137082857 3.7985995748892063 12.600971369630328 0.11013963167158451 0.1576443621207672 -0.2959000353022775
Ni 7.749511276274683 -0.027913321433662906 7.011558389294813 1.5210093514987675 -0.20842750621090558 -0.18090178998681103
Ni 6.641683780743495 0.6777164937153524 0.20979740801956562 0.2404997041551019 -0.4294246215567055 1.0214260095387893
Ni 1.8445221361466997 6.7280217656153845 9.25123510612398 0.4894483104085054 -0.333069188153407 0.3321207081972087
Ni 9.30558790677762 4.6426210904141865 1.5701084780075585 -0.8125601302388845 -0.6275222065965128 -0.39977491701107276
Ni 6.32096230824436 2.0638592075666 6.89202226708597 0.08319061388656641 0.35742242018679093 0.37580940733441087
Ni 3.300654690782302 4.448168128158391 0.47589432039111895 1.0175410726620864 -1.3363645495297565 -0.14384293746130067
Ni 6.330365186042809 5.759552528322486 4.55782760521921 -1.192267587076121 -0.38387444373073243 2.3851496678077893
Ni 5.229494733044576 2.959179853123005 9.204286845270394 0.29215676620976133 -0.3995095791648281 0.20826089872605422
P 0.4386913542731498 5.564075938714837 12.370263881820625 -0.8131111176463479 -1.8826923467341252 0.6612216557314871
P 3.977526012533689 6.203689036588553 12.797391870477476 0.898162438890737 1.2256857575252504 -0.5660664132838767
P 2.29378583982117 8.540340404099764 1.3677210449775223 -0.18784196875007003 -0.16840571440232932 1.4227469308807432
P 6.561424149438811 7.788898282698246 5.789811134016283 -1.6205876627147378 -0.2799016029914922 -1.5116839603327834
P 4.637865299620174 0.8731939891879152 12.416482015554218 0.5783778836613781 0.737797078294381 1.0376406716254387
P 4.0869726113399185 6.26527879203331 8.170104355448101 0.1677230865130079 1.3013232416549072 -0.3555894807431102
P 4.651163396545147 1.1109889640780664 3.7457332985580396 0.7948917664248438 -0.9835441468913512 -0.23527522253136898
P 0.26391468379578603 5.381852152786505 3.688683738057968 0.15174033793150643 0.12130927513515882 0.38921128256261356
Ni 1.7851698670374119 1.2929138145850605 2.593936931872599 -0.4770085419832559 -0.6753082157315402 -0.14760086184183613
Ni 1.8797149880223991 6.66439381411605 4.805531836394259 0.8141040776872367 -0.27627943285787254 0.3931255300153552
Ni 6.143385609320463 5.704992284603739 9.18329976696264 -0.6151048067687664 0.40775484989275584 0.12434266264484392
Ni 8.762703064329571 2.516402142226656 10.142082590739275 -0.8656631807114511 -0.212881171106885 -0.18705906783745851
Ni 2.3041942276732104 5.517976473284866 7.084611865215425 -0.49336744295725354 -0.8326921251020692 -0.5517733936999724
Ni 0.5148537585756771 9.038547989031482 9.255914804265291 0.11982369172856784 1.0266270941237543 0.38724413153391374
Ni 1.2202181553051406 1.1714101537848658 11.393038554277265 1.1790199780375954 -0.8181324821203394 0.04268828289714583
Ni 3.875317274383492 6.82448732021624 1.7470392952483818 1.1676238203855118 0.5879300461261875 -0.5296513649899524
Ni 5.7906599294399 8.149360048937071 7.992311154809963 -1.6276723374756612 -1.2160140387634413 0.030183208451599632
Ni 5.2669884817996655 2.957105422471902 4.773380878896901 0.3148074137297417 0.015673187760882685 -0.03775459304095433
Ni 0.8307841115491861 7.610361366966416 7.181715148715136 -0.054162344975016395 0.06933391050913221 -1.0681905193878378
Ni 5.041672701953006 4.532540386168756 7.230014960019135 0.1666823039533194 -0.060457433955108775 -0.6724013264973904
Ni 8.131152164182847 7.295129435840941 9.033958877381487 -0.48931641281633154 -0.2084511603599894 0.7025673085578094
Ni 4.6997177558897425 0.3881422803898092 10.26743980087999 -0.8593747765995781 -0.8321568214238894 -0.17073436253550595
Ni 8.50935076542106 7.076979047457263 5.11865219640719 -0.594775351182795 -0.902853159498187 -0.8697085544254184
Ni 7.190085340512599 6.133647561504151 7.014103869700752 0.03916227202175836 -0.5707213955573849 0.04950710559119216
Ni 2.4371299036773 5.1136346106532775 2.689847191281696 -1.6041030347961536 -0.8855167251022684 0.27248139926802106
Ni 2.5708717994540904 5.292542930999498 11.479495207452777 -1.4030643648501513 -0.43588348980817193 -0.24331994721271646
Ni 1.1120941192721037 3.241818764673507 3.9442227948668114 -0.5105776361879529 0.3175425532727177 -0.5390217504612588
Ni 3.8332126732204927 2.8161256660390808 2.593022008310322 -0.5844420875775871 -0.3289597939707238 0.11512525781163398
Ni 1.2220842370262204 3.501475883377509 8.29393608907508 -1.2711225497018108 0.3601950978359216 0.21756263574295434
Ni 3.398524335998532 2.8341070845650167 7.368655773246215 0.6345040372309846 0.40797827875747156 -0.4865722744122911
Ni 4.1974156615506075 6.669602537366636 5.938077667810446 0.3085871438516427 0.7580100629071461 -0.42987302194803384
Ni 0.6294520111429645 7.339996924989034 11.381582986585627 1.086706061693522 0.641077062462812 -0.670542933132413
P 0.21651983154001778 5.757188220899177 7.993120092177402 -0.3345002641729788 -1.6376541312787216 0.10066177408813633
P 8.361241852121784 1.760874570066852 7.953185943346299 0.4814910032346418 0.5908731879149115 1.0494050112502187
P 1.9477273257013572 3.3463283997030935 10.379471738148336 -0.5255617683016109 -0.6561437269879474 1.038023251775838
P 4.032865300077743 5.869162182813082 3.7562739426874 0.8689891597608906 1.2946807966377252 2.0513888529039965
P 6.8340532536990555 3.999366415589625 10.378450828391221 1.5533229760298086 -0.58028512798642 -0.1425933813249157
P 6.2830518616292235 7.7501997336086745 10.209116594312034 0.09258671038948571 -0.23299696802015354 -0.7941669724436774
P 2.48048459842044 8.530493652493874 5.87183991949634 0.19982896590861712 -0.31617369794964906 -0.6942474758382043
P 7.062249683969518 3.970913198667728 1.4351255472997597 0.37674760287796405 -1.150059586249503 0.8103314980186818
Ni 5.295432640072431 2.932982239834839 0.3591709087375924 0.20097079282254424 -0.1239953066077542 -0.12931440482782244
Ni 1.2924789994267507 0.8743272261942601 7.151936651425306 -0.41970199495230304 2.3589634963307247 -0.4264092317691495
Ni 6.859172887740578 0.7105658730607446 9.336219728815632 1.248887135342378 0.8279528106448709 -0.39668830766594904
Ni 2.6435946346814045 1.557417310574391 9.281569804470482 -0.2812421761797866 -0.07521299499772853 0.5896961368876747
Ni 6.354470251381609 1.978001331098677 2.5465384561571778 0.16773259959470468 0.29382746904396495 -0.5546856822507609
Ni 4.16260327293843 6.791359840342512 10.361957745917582 0.12089661307777243 1.078858283514329 0.3487593451951542
Ni 8.375264640977276 6.7868939263207055 0.5023202116373972 -0.7142442306751053 0.23690170239119848 -0.309661350752428
Ni 7.563401329868958 3.8779533412807448 8.17274223407518 0.7942317642433419 0.0064444700737630945 0.013064546493442016
Ni 2.74161827693287 8.411970287257928 12.57005238841485 1.334320008295902 -0.24294610881306547 -0.9610037996969902
Ni 0.2074430651103007 4.895656336603096 10.173889319569636 -0.37268423144186785 0.6201097161825256 0.3269036827726434
Ni 8.576330417099033 2.2679686897965254 5.538739802959073 0.11829902755392531 -0.0375051960343096 1.3427635110775649
Ni 3.880181768967083 2.6250425212601862 11.30447304758395 -0.5864454911608609 0.2645238349838412 -0.36740549954143176
Ni 1.0605504057141293 3.3267798348774154 12.60302587125334 -0.1958159880944821 0.9214525197669291 -0.374871983121806
Ni 3.1391299181193424 8.639623198580502 7.998436613352651 0.6677070063455146 -1.817860437860405 0.15971564282749912
Ni 5.606216774474362 7.666570284827089 3.4721630006530364 -0.6706398637215935 1.2886214778175227 0.06484245039668188
Ni 3.088963119229349 8.496659597987893 3.455881890569074 0.2908822703727119 -0.35945744833894866 0.8277761758576906
Ni 3.3950367560829227 4.61828050019797 9.287469702649798 0.2670489153985401 -0.8034149734045067 0.23067886140993818
Ni 7.136440020356127 6.089051831830001 11.505985415107888 1.6754341782409725 -0.5496931141321759 -0.5367247268969659
Ni 0.3552983362338958 8.904987266237322 0.40969461840336496 0.5274448442569367 0.09134281068005559 -0.25359381833489875
Ni 4.484384607385945 0.507926609584854 1.5187187614848188 -0.32036588165412566 -0.755630506931376 0.0026027277301697116
Ni 6.08050952569904 5.622649163998819 0.4525574284986667 -0.8675362293644479 0.6230526008609334 -0.818209872325494
Ni 7.812894644247468 -0.4698540131502653 11.512044745511917 0.39756762494710884 1.4607902588067099 -0.03960373043455115
Ni -0.13117558047784852 4.723360830122838 5.756797793121612 0.6242990716735248 -0.06762309846561257 1.0961600080175702
Ni 7.938818925823813 8.711603224579036 2.42681663164114 -0.5101032676546957 -0.285525891156805 -0.18033820417385715
P 8.698377596847115 1.3290306486721684 3.496054281872334 -0.29843025792329897 1.4325991410844747 0.2529800960102998
P 1.9121268346147422 3.1533429386065936 1.5437903846859446 -0.8967856131478684 0.4543344974245079 0.3801214044462034
P 4.5450594392684245 1.210153996120095 8.051801115386048 1.619559992781172 -0.7614059759625725 0.36036093398982455
P 8.515438177637398 1.51361874202381 12.513586204918841 -1.133281595460216 0.6760129551080487 -0.7311116958544054
P 6.329731080603607 7.591881722738249 1.402629455270494 -0.29158109621194944 0.9398438777899233 -0.647842920431736
P 1.6926538834578704 3.237769548511747 6.261870928230057 -1.1988308421159353 -0.44105706358931135 -2.539462394452162
P 6.745668014123457 4.121377360741182 5.946642620564236 0.7716495080674517 -0.6448452712559927 0.23670758410252135
P 2.4201539952049553 8.552777929357251 10.309388593277928 -0.1811434736839719 0.3437855461296466 -0.07569353417857286
