# total energy = -381170.04259529256 ev
CRYSTAL
PRIMVEC
9.28946698799074 0.00000000000000 0.00000000000000

0.00000000000000 9.28946698799074 0.00000000000000

0.00000000000000 0.00000000000000 13.59607393063585

PRIMCOORD
 96 1
Ni 2.5317233872574643 1.129794230073862 6.10214849408399 2.213810838919065 -0.7343903666056771 0.7481833066247114
Ni 5.903855537808703 0.8813037825672078 11.551605123306365 -0.48070321722602366 -0.22565235472962428 -0.10613616693914625
Ni 7.287363682517187 3.859624784272522 11.137087753176003 0.48411352845915334 0.36038381680796 -0.5895351858297783
Ni 1.4540709337962319 3.8048355096490964 9.858173429880708 -1.4112687550378147 2.931193872333468 -0.0762460642479332
Ni 7.72302109202709 8.0465639278798 2.8174190778625046 0.9427636225398796 -0.18516750724170045 0.24367115990454807
Ni 1.1918478676602442 8.301884920254311 5.55207922580086 -0.14981072500896134 0.059007845992775795 0.17641881451479294
Ni 0.9462343679919885 1.0596030196542954 10.022535680070963 0.21054969476023094 0.37040134894496207 -0.0791858636025475
Ni 3.1458500310951485 6.124043767106611 12.942320036284238 -0.46923429735447575 0.9120764778686679 2.0806698612563004
Ni 2.757726822712419 6.996519769464487 7.45607340312517 0.6645759169157006 2.29800701125201 -2.175245062830725
Ni 8.925403214930293 4.727688289945737 2.110559403699997 -0.5232660302888988 -0.054152574783003504 0.6397156633389112
Ni 8.562612382250865 2.7314004740717293 8.637449254969377 0.7243291257149332 -0.8930806534924555 1.3449258088362062
Ni 0.6391004461261918 1.2648259180911752 2.172475557179152 0.10415693172558838 0.244572845783211 0.779440207756464
Ni 7.479172591032699 2.7561940607061683 2.976724142378803 1.0095773377303194 0.2512721121802576 0.41169223727394905
Ni 8.648642133401687 8.852202217298453 8.75984169458848 -1.0529158526169544 0.9094120436626274 -0.23352327283726879
Ni 4.88093662217067 1.5993024562551392 9.54047366858516 -1.506437881442496 0.21210315529027987 0.13625458359108145
Ni 8.275307756012598 7.240061718057627 6.305832127887927 0.753257121603193 1.250042074882428 -0.3675551377454186
Ni 0.12917560820676605 6.652019896726315 3.912759604875868 0.26381601028353924 0.48626605602578193 -0.4983633535099482
Ni 8.444023050300602 9.104494843527277 0.7498503971244864 0.09543986356756466 -0.19570620198949523 0.009580958820215757
Ni 9.160854038023773 4.375691817576995 7.388255651448615 0.4188864410295431 1.755945188412847 -0.9075479938706952
Ni 2.474528140757561 8.23076476316429 11.966298993304115 1.5873813511660984 0.33872330111539084 0.09702546288712968
Ni 8.956903796525415 0.9451010530540337 4.468743476609784 -0.2182568335965015 -0.40201820451929476 0.08583653614984571
Ni 5.295228258260112 1.1628647315420535 6.419943936886598 -0.2643510568514028 0.18269230622833052 0.031641795274997116
Ni 3.9565139220009606 2.2536896487903353 4.333884572673176 -0.7388661429888436 0.7024451811576483 0.6525593520707987
Ni 9.709071915592686 2.803802577566978 11.539218548402522 -1.493331940188157 -0.8381575190920145 2.026857443421535
P 6.19859173741061 4.245574257446388 1.1092849454835603 0.5039606450920675 -0.011013834612000386 0.1062338688592751
Ni 1.4879310399343104 9.297176961913019 8.063232946934443 0.7461223103306246 -0.6642864106997397 -1.0138664520239764
P 4.561128151933187 8.694690019856132 10.292798779639737 0.4765681120117277 0.03312172225463328 0.5194065473334926
Ni 4.790912400336892 2.3510618387874103 0.26684643371484146 1.2749630064938238 0.1333934599932025 -1.0305917351984573
P 6.357023592056681 4.908814311751019 6.3261574810374785 -1.6231963039821786 -0.39423059015407586 2.0198902680750828
P 6.384557571368961 5.541473441664277 10.039395133193047 -0.6613185863206675 0.23482090860276977 -0.2174713615807287
P 7.633461343528542 1.8727379087035168 10.480818514686463 0.4237846496621089 -1.0599802156629035 0.3652730265794612
Ni 5.751238889319682 4.838177206929633 12.750112609647099 -0.6708293540245801 0.8063380605885726 0.47825218458236995
Ni 6.514870210300365 9.17149047740048 4.752752200061279 1.1291706586156358 1.247137242530807 0.6859222438019607
Ni 2.532141413259169 3.854301919850816 5.50665466256229 -0.30072548171537883 -1.163959227049731 -0.4077432799285301
Ni 0.6443071922140912 7.970288116768756 10.660164674671154 -2.308981765095959 -0.845758214257408 -0.15851905141623665
Ni 0.688117246139411 0.3957154895203574 12.291516720003656 -0.11085414124010586 1.2700851095762322 0.6592079677355679
Ni 1.9732778068468422 2.4306818579120932 8.150656118090946 0.4275628857576185 -0.6104567664737938 -0.4436865307923584
Ni 8.804909542305596 5.477599068603803 9.806249955735638 -0.5600744573665 -0.32583333252660013 -0.38038957050592553
Ni 0.45350433294268155 5.214149792862815 11.938453816857232 0.32146451403494314 1.3670167271979747 -0.011037488761084216
Ni 5.483256353826873 8.29355226862033 2.8180990668252774 -1.5143730771291726 -0.1600761114907114 -0.6936694918475472
Ni 0.6337859422245198 2.0881792205153995 6.416844041847289 -2.573380387355846 0.2582508574909359 -0.12471855792702392
Ni 6.0168711897362375 3.6152746520760854 8.33002828858241 1.0069666395803498 1.2968945164595922 0.19198067350879192
Ni 2.263016273361702 4.9390422364076185 7.705003242406949 -1.8464552187789622 -1.5837545530467887 -0.7706683751011051
Ni 3.8166888691641003 4.580199427077625 9.142353136134995 1.0526787969054838 -1.8902105094880415 0.400837039727
Ni 3.7620853838747657 4.456621651507019 1.052719524826225 0.42055328720900476 0.6288540380340589 0.7014740754936307
Ni 5.92625244203337 9.156162857337975 0.7352194870648229 0.778756294315562 1.1730966705746249 -1.1945155025700331
Ni 3.1137456341642302 3.948311322900844 12.534178956099876 -0.7804226262743914 -1.4532512701171876 -1.2819893172129857
Ni 3.9859336630542646 5.770635295798778 10.989502279854163 0.8528418605770667 0.5604279840511768 -0.4567868156197424
Ni 7.8843048129514575 5.316882005148414 5.137806168644826 1.1447682559435768 0.8267623898811955 -2.1523709864460288
Ni 6.504939770393203 5.217744816477475 2.9661871002958335 0.2811475595834513 0.36020178270414094 0.026437111145606082
Ni 3.934089149376181 9.140965289809335 8.21444874384442 0.10122895944551598 0.6613088161286547 -0.5004847707283251
Ni 3.9161418997029935 9.365082963523266 4.407112509758459 0.22720941480409904 -1.92453859334595 0.28906012956230864
Ni 7.797652667531432 8.796502574937982 11.970200569320026 -0.08527295033689185 0.23554698813551692 -0.06287864180209171
Ni 7.773574369833242 6.385077781504417 0.7287846734785824 -0.2547006782458323 -0.08797955063477751 -0.3127042513438098
Ni 4.976209392692517 3.17522332481493 11.399016343217456 -0.13592985326181106 -0.45198142381129897 -1.2714231116613652
Ni 4.210701599437514 5.354652976769107 6.17214183886275 0.884556160961212 0.12878732867975887 0.2808536824921163
P 4.443922950521902 8.309697361752836 6.338816237315767 0.3694508121062347 -0.7616299190479205 -1.2231460218225323
Ni 6.7612733146385064 1.3235167687305107 8.465690731388962 0.5924004231927152 0.20401523607582284 -0.07503815998276109
P 1.742954769374273 6.005733119157485 10.387604289986346 -0.053460433811985356 -1.243251791433472 -0.010157914369608313
Ni 4.816272644440309 6.7183002416632664 8.767250973232029 0.9475631008110519 0.166063696532714 -0.26574922275051005
P 7.970994116238302 0.8125032053133121 6.734774181917112 0.39309544810836816 -0.2783399149313271 -1.1183884803984674
P 3.0160576022992007 2.543521009972241 10.003705002114174 1.6935396295924317 -1.0738428325776086 1.8174740010552637
P 3.50834360084003 8.08277426909413 0.25625086799163377 3.076352957503031 -0.10964829385746278 0.8749880576568027
Ni 3.4663273429353585 1.3415569130707434 12.184815118595203 -0.6874260820409966 -0.3127520738626098 -1.263386614510134
Ni 1.6684625358705008 8.738146145100009 0.6839276966556598 -0.9120821342956228 1.7812651552348744 -0.11888112530964043
Ni 0.5836218930732888 7.004815263231648 1.6631127319953514 -0.25550774752815997 -0.11158870541328525 -0.5319818128953419
Ni 7.147399287679759 6.577732031490042 11.871629109171392 0.7789316435511617 -1.5150135389266488 0.3683915176037849
Ni 1.1292554410049982 5.6545819882588555 5.661405101553347 0.04953255951248889 0.8015825481814582 1.2431191225103493
Ni 2.7187482204201343 7.672681471955144 9.654368104062943 0.592013986387574 0.7205110375204237 -0.28517056469991536
Ni 7.407634407940973 1.7859092634161042 13.059409119361716 0.2279565773827687 -0.006408217519188963 -0.27777221535331514
Ni 5.815131841313564 6.997625216002327 4.49841031747743 -0.39850350649781696 -2.040057744161893 2.223694930801996
Ni 8.036066830503662 3.147085530166854 5.555953862363326 -0.4581983512552883 -1.7507201925684817 0.8664072579663271
Ni 0.5183327342337124 6.923309482365942 8.261967152878196 0.36532342020142244 -0.5677939374979447 -0.5910901890217239
Ni 6.655847157008588 7.867611641283384 9.965948893640208 -0.18874262618746848 0.2940431845991968 0.1832759466459424
Ni 5.423032741181287 6.812987775782727 0.8997443029224064 0.3349450650198812 -1.1126834595938901 -0.4677299448948074
Ni 4.035920283391439 0.6696256337173374 1.9047150399405832 -1.3433425235094865 0.34454402156222597 -0.24491917337903626
Ni 5.116387445264149 2.8993075847564387 2.496782916141647 0.048420814505548866 0.3639645921806829 0.16442796070150392
Ni 4.0357623624574614 3.0939404911501334 7.227454982792885 0.0918313202806999 -0.5279189556798779 -0.6888638429287878
Ni 5.816831813720496 3.3484997472548685 4.92562638859291 -0.07665281276804863 0.9560742236058568 -0.11504015429699543
Ni 2.379422580636396 3.1254039148784383 2.6854148270442035 0.08831559381795759 0.7755789250288448 0.479362129817097
Ni 1.9987030772171908 8.594363779447011 3.0375943019070255 -0.42751891989356056 0.3466368995355127 1.007408869324091
Ni 0.47661838399693857 3.7816025534210214 4.149249919293586 0.10520002827812204 -0.14959680922594235 -0.13376781261348575
Ni 3.544683994588223 6.816889351798637 2.2052422930861053 -1.344991629077135 1.3398918459567246 -0.4460285486619737
Ni 3.095510411023202 6.986515013823689 4.8227585500934245 0.22747578109160824 0.332179329349286 -0.09574788172628672
Ni 7.223368546389555 6.1215170321629735 8.047651724430905 -0.1921053720121143 -0.5434571605247931 0.07435578920375582
Ni 8.198307366498598 4.032018707375529 -0.29655229034264585 -0.3644502735678497 0.11200239591193614 1.6874679694770551
Ni 2.434722775928572 2.3275223301580854 0.5502123260703811 -1.2753931520527069 -0.6271409119976942 -0.5673416804518745
Ni 1.2344307830338932 4.72959263062017 0.4198634582188306 1.1369554447673775 -0.48696153943090975 0.9078999778934751
P 1.826011891179639 5.470929231509937 2.607101835884851 -0.2927170095886055 -1.0574587347926305 0.3224410190155995
Ni 6.534935458382189 8.522045281152103 7.687192547894319 -1.221937860447044 -1.1512219819887206 -1.785160119413906
P 1.8772525895219272 1.5146010988430683 4.109059970543028 -0.9636353237825662 -0.6006040420494301 -0.58085694132949
Ni 3.910837614214697 5.001569636795933 3.4722874647729967 0.18698424873546507 -1.2691970505443237 1.496252713379378
P 6.2710309987726784 1.001478826483937 2.7675485758591374 -0.00620638592102802 -0.53024657537179 -0.08362615876208823
P -0.010054918761003019 7.381410243434034 12.95503267146941 -0.3128706017183451 0.2334165720560754 0.022262668052942303
P 0.15810951015142244 1.9572906346483148 0.2248766231436925 0.2090589691473174 0.6765623998536154 -0.5776939702204761
Ni 5.1700805628164375 7.923710730712151 12.338178640207273 -0.5316095171575878 0.04824957903500722 -0.8621399980495409
