# total energy = -340894.8347444093 ev
CRYSTAL
PRIMVEC
9.04616817841740 0.00000000000000 0.00000000000000

0.00000000000000 9.04616817841740 0.00000000000000

0.00000000000000 0.00000000000000 13.23998152981355

PRIMCOORD
 96 1
Ni 6.355340067925213 2.0450038670481994 11.479567236901474 0.37483855878070926 -0.44831991579931174 -0.0716954687627733
Ni 4.828428332157163 0.3147876479793533 6.225346634371369 -1.6117168425876693 -0.557301522607053 -0.16057439128336862
Ni 3.045329119823709 1.6770238468600809 4.779394483358606 0.04251396210281066 -0.5476791690259407 0.8528390323635892
Ni 3.614884900615885 4.3487643223618235 5.119079899408263 -0.40553341676140486 0.1432523550651533 -0.6030129086012389
Ni 5.072240650956273 4.513811656752212 2.682843742053169 0.2447710778369462 -0.060651809354102006 -0.19088744044461317
Ni 7.369786388882876 6.077550342276539 2.6204966478710916 0.41274947489386976 -0.3661934815112016 -0.5638524363516935
Ni 5.061150049039988 4.338777352936392 11.477117534618495 -0.4690085544969148 1.0285716194446348 0.37550498872011456
Ni 5.434313523467936 7.745844637057326 12.441570208357279 -0.19307442079360296 1.0149545428818327 0.8823372989330224
Ni 1.8770979435831405 6.465440978139815 0.4074674479407898 0.06000749090188376 -0.5995136371987289 -0.7098399309598226
Ni 2.7554265752795164 1.5636482238447487 0.24874067110252865 0.4937412813569045 -0.24302504168011696 1.1837778044375549
Ni 0.6598763401502136 0.056593731360904884 4.8164937227704145 -0.38012628954220984 -0.12462805509574665 0.38462751984667304
Ni 8.622382127498055 2.260103648749195 1.1773361442901118 0.18612987115496976 -0.3664410787456334 1.1130745243847218
Ni 6.631103451951335 0.8503117449142181 4.893404242747782 1.3149770849929159 -0.5213230476299151 -1.5641393499190224
Ni 0.8177093555942423 7.387209308369633 2.46378807110422 0.16474780593476787 -0.5468790417221485 0.5715456912308932
Ni 7.671349443924695 3.8241046731442982 3.8053293515478472 0.5764058475366718 -0.009945284138169969 -0.20793539706583544
Ni 7.396282614831325 3.868819881359793 12.638395826166686 2.0823966141394203 -0.008439903237237078 0.28470545213803866
Ni 7.91099147929525 8.8636343807651 6.660015004744522 -0.2678356729658936 0.22617300311978464 0.6672696616977798
Ni 6.978973840769224 0.5634794697749097 0.35192940438056225 -0.8857946613540034 -0.43043995019509745 -0.2879663822774976
Ni 1.7835062898915561 6.680775960207713 9.12402832543089 0.7359831650140937 -0.6118598174689075 -0.2633210729249917
Ni 9.175256774576013 4.6191904672928334 1.3142227578278132 -0.3483196865545743 0.6774640857322783 0.034696780051237025
Ni 6.445919347686845 1.9522806454805657 7.04030685952323 0.08770444259651991 0.9282880546315238 0.2510936776208643
Ni 3.5097503366101246 4.098493039640832 0.442298813045572 -0.7739411323151059 0.7185515998012076 -0.1777071943089133
Ni 6.106579495253177 5.6317732776511855 4.646359728137344 -0.7489307263136972 0.36314441027223265 1.228682121149413
Ni 5.516977406266476 3.1521553172375807 9.262969323711813 -0.5245664942678773 -0.957640539651712 -0.3521598862362709
P 0.23815303612469851 5.465251417883673 12.479622009255044 -0.12488953628724944 0.28004198522409834 0.23601210069739356
P 3.9274571420623685 6.056156155056299 12.5965310654747 -0.5538487881717623 -0.07407168230443371 -0.2025651338928576
P 2.3767811230691307 8.422398492454573 1.306093871300918 0.7103037579701186 0.09885788811017814 1.132556030148101
P 6.228802270531255 7.610124979186183 5.822347993401741 -0.09353493323536795 0.5583672448674061 -0.30743271853222537
P 4.737957606411026 1.0810984864708657 12.73642462524158 0.7572497877023538 -0.3490105419740119 -0.3030137635289233
P 3.8470005242455354 6.168898546314584 8.280760831505425 0.34610982338744906 0.06782055918839933 0.0418012523065022
P 4.889725166239337 1.1945917096696497 3.5955812828106968 -0.6030622737819356 -1.6595882123476513 1.0052792245755977
P 0.3154498274738656 5.513277523571729 3.6238089453062723 -0.5156259972451377 -0.33438405031008867 0.08104579962942171
Ni 1.445414808636068 0.8496875593251287 2.7638458437978577 0.10123435876215468 0.46849124854086416 -1.5654017615712137
Ni 1.7362762469837885 6.50534362500175 4.960928458852118 0.6693728240837117 -0.032939945261130366 -1.2347041589737766
Ni 5.8912535593532365 5.749825769500711 9.28443045257494 -0.20570599351468444 0.04026758927079517 0.5739699844016696
Ni 8.558398581532408 2.600483810498011 10.185834954114913 -0.06648332843421453 0.09460168393698547 0.06994017663456342
Ni 2.296116443389268 5.187380276723379 6.977404330628543 -0.5639059152974482 0.41480172943720817 1.4050826808317607
Ni 0.6250368334942694 8.899819052596373 8.843804275984768 -0.012670653489133018 1.1879849005403669 0.6793600172034105
Ni 1.255743805064499 1.1690091466849406 11.243868426143731 0.7725535079389598 -1.0354650041303586 -0.7830292106593031
Ni 4.0649860335250745 6.581331435847421 1.5978535941268497 -0.5304466071977381 1.1985408216793423 0.7403578970430217
Ni 5.445268432864853 8.020848142974993 8.221406209683794 0.21553429245901592 -0.7325070335400352 0.14041025763066786
Ni 5.43280281341898 2.987524106573252 4.827112114719301 -0.2493090749166158 -0.4464620366549666 -0.3290212433362785
Ni 0.7180757663236312 7.50197804125047 6.873007029311345 0.27925317077421585 -0.7688223230313018 0.36591965902452467
Ni 5.129738094496163 4.624618168067524 7.149457017485466 -0.24905504992428074 0.05390189222477814 -0.06748554444648378
Ni 8.050157727158322 7.380913175470992 9.16348409159571 -0.6525292701638116 -0.7251130550688093 0.3219972466099616
Ni 4.763947246953837 0.3310987934240949 10.550781794186776 -0.43382557883787864 -0.16988795537481063 -0.3928185402978977
Ni 8.156694447197543 7.236943412422319 4.637395880307943 -0.07600746587456586 -0.16211242519444985 0.7032278249599437
Ni 7.1613264944629185 6.2138941857367715 7.227030621574142 0.18848243054754635 0.5778094127524178 -1.5299614184857329
Ni 2.202696666888882 5.037114380776065 2.451196709923733 0.6906579587147331 0.8148977772331255 1.273084301413872
Ni 2.3976958633876055 5.252657424706993 11.256367516411048 -0.9031601492156446 -0.7004451200084839 1.3849005494569309
Ni 1.2092193632574413 3.0578128316054975 3.7914145359951315 -0.8085098714289108 0.6761759630484742 0.7576624497597403
Ni 3.634994531986114 2.607033236099471 2.579505747003831 0.6709067442297348 0.06293494896132387 -0.13727711131832487
Ni 1.0406530695314615 3.2737177222547382 8.23775715826755 -0.6894497973392448 0.7490243144687682 -0.3606923491873143
Ni 3.657121458810937 2.7004801511037306 7.438155517074472 0.5715503192165834 0.49128330673471515 -2.3919774893629
Ni 4.02744443650013 6.725572583934828 6.0754570590111 0.613348486199292 0.8590341054307077 -0.22628587454856514
Ni 0.944329473116616 7.2837844701079 11.378849916709514 -1.1159171360398394 0.7017473837596753 0.1315219540021025
P 0.16302461123502043 5.651901001357331 8.106721606164966 0.03524493924522317 0.15964545171119604 -1.3407665352521942
P 8.60191969557747 1.5274906905173502 7.932721279346724 -0.45687371890659384 0.871837427842963 0.22825559668042625
P 1.6466287225218126 3.2562586180961497 10.486316992085774 0.6838553339706029 0.37887184830981846 -0.3465859916929192
P 3.8294871430792 6.048792574338636 3.80035124532066 0.3388587982519906 0.3846437177965892 -0.23076447914520903
P 6.973718017185733 4.150508505398285 10.50143675721047 0.2711500820511072 0.2970485470844239 -0.85202476399241
P 6.214093201431843 7.683887432714231 10.397264705475424 0.08932243781591713 -0.06324528111289107 -0.7762831501847212
P 2.5220987651435185 8.51448848226516 5.754572293828177 0.06546131492760339 0.4456218001418583 0.0736685333287441
P 6.975228727234688 4.163363110066345 1.5745117669452922 0.2783653688526238 -0.8695177785708508 0.7570050186813996
Ni 5.515457650049563 2.980965634803834 0.5086615011841246 -0.7900586067022587 -1.0327818008712408 -0.34693951837759607
Ni 1.5636120391729174 1.2099249643581511 6.971247508716452 -0.41452893539179575 0.8396742128468571 -1.1578364019814447
Ni 6.94135082823266 0.9988778659022582 9.238726498201656 -0.3843932923486799 -0.8777507080036046 -0.13129261160011582
Ni 2.685988190035306 1.7745324912774008 9.178907807963789 -0.25191411663963065 -1.971346040617792 1.6910533728354684
Ni 6.508889722841215 1.8516691654537145 2.3877912140905915 0.687906364111525 0.5398876980059799 0.8457852108406014
Ni 3.9174068494612326 6.973853709705099 10.43584570719872 0.625677182967974 0.07610979578038506 -0.31492542736484475
Ni 8.25849097522687 7.342430776978434 0.1494797839517796 0.4458634838390192 -0.34708221460304745 0.7534419839204894
Ni 7.56772558996789 4.11458617243779 8.15743080526931 0.6636983994067538 -1.1972591267534414 0.7310430473999991
Ni 2.978885016173536 8.400913843554756 12.346798934363996 0.5107907806400236 0.10525453566514131 0.02221458842382626
Ni 0.055345360182726004 5.189886065247695 10.231685456409116 -0.44813813880580883 -0.9727863941542151 0.27419889617976
Ni 8.706285335306815 2.3589692183601874 5.760623275575162 -0.17230196413294196 -0.23723543158153332 0.4085297803855673
Ni 3.723176577238924 2.465451661391662 11.296987524392039 -0.7114293869341296 0.09026628978642519 0.29818780289518965
Ni 1.1261845875726304 3.0218000369654243 12.689569093687266 -0.3381985389601724 2.14381229824274 -0.12378139082473523
Ni 2.9169911350061457 8.672760236855142 7.885455051767126 1.3841032503666162 -1.2793217976831517 0.8572590158081559
Ni 5.623107048747596 7.91530650141113 3.525555801266024 0.7698649053632032 -0.18529143441407442 0.0708806861709618
Ni 3.3001325326915674 8.254447338149724 3.7104911359116755 -0.7314690791938241 0.14699433860608876 -0.18648236939838206
Ni 3.360787088848736 4.216247007947749 9.366293749509213 0.042993472842390475 0.5299966641445131 -0.5986872846426915
Ni 7.155555039305831 6.11278516647224 11.713928119418254 0.44480598910878233 -0.37423614931001997 -1.8545570219504899
Ni 0.748564066191865 9.133915787008787 0.12116708747740099 -0.7709627664130723 -0.2294269912807081 0.40431419964232307
Ni 4.4822948075871745 0.12690778566343228 1.591684107579618 0.3866440360560696 0.04543602084561207 -0.5121442093441245
Ni 5.807775521438492 5.657129686436949 0.3784419134313351 0.9609323230291064 -0.6020580008871373 0.4627052379867064
Ni 7.900868817350452 8.797262646458591 11.17124759901196 0.6633641559957866 0.24219200425586027 0.7318046081563718
Ni 9.059827671434256 4.748478299745968 5.9402231803592915 -0.20606903328105802 0.7637883601518201 -0.19722083886180874
Ni 7.949600524139218 8.674108115880857 2.5889589925197507 -0.13712798733497028 1.2785900617234496 0.2825896913466166
P 8.449998350893875 1.618838894555396 3.701554426586147 -0.24338473901238084 -0.65609307625567 -0.9906481049259843
P 1.8074334041399847 3.0656468130569676 1.7199931446597163 -1.062750579319189 -0.6473958055919883 -2.272927185465247
P 4.775055941206038 1.0504591155977363 8.404527787653903 0.18600671531354418 0.9717512680214813 -0.31136727769994116
P 8.46718607001373 1.6026100692390706 12.31871691517254 -1.0444702929527625 0.13656208752917126 -0.04725661899411862
P 6.4604927242668895 7.59513547888008 1.360302128171346 -1.13052254465784 0.7947758096722699 -0.13630214899956525
P 1.8673280821886973 3.3383164076415164 5.988244762963369 -0.1551737890930876 -1.2997947208255227 -0.031500898821758654
P 6.866168126335235 4.012771552072549 6.0389403928157765 1.0581282500558293 -0.0006430329006376021 -0.19212439817550783
P 2.316416044286612 8.566938164084588 10.18380951710916 0.5499900765473045 0.6946112869355263 0.1699542898363718
