# total energy = -340869.54712905514 ev
CRYSTAL
PRIMVEC
9.26652911759227 0.00000000000000 0.00000000000000

0.00000000000000 9.26652911759227 0.00000000000000

0.00000000000000 0.00000000000000 13.56250203871201

PRIMCOORD
 96 1
Ni 6.500887079780894 4.916041893274189 4.589795207148786 0.7554119631626668 0.00212167432869312 -0.9982169184121775
Ni 7.160061619432968 6.785934778019981 12.747612729096854 -0.4898370612064919 -1.0572995835069467 -1.3830344427824697
Ni 5.640119201967144 1.1408301834566068 1.380703552872978 -0.7476336047688286 1.2958933288885877 0.761029052239128
Ni 6.468574693195292 6.127918554491567 1.3646863575150163 -0.07947588403914055 -0.47128398079465283 0.14212544054956167
Ni 9.101927634838459 7.952006986443372 11.95990216583455 -1.4341124924052076 0.6853355180605553 0.14444817514546734
Ni 7.063893581582272 9.034884297601055 6.681661307262367 -0.3367528076525813 0.6365454931410457 0.18206444283634451
Ni 0.9077343533429912 2.203348930424851 0.6489331718131268 0.4464846623627859 2.0377074987621615 0.5217909884052692
Ni 4.7197026770494315 8.271859767566177 6.42862576006963 -0.8888013093908113 -0.12208626251049941 1.52728052921946
Ni 5.828757932601815 8.500937630710043 0.2626597642009984 2.023172281260464 -0.782001283615421 -0.223044484793132
Ni 5.654908582234027 4.686686034260645 6.946387507427974 0.40022948804998815 0.2100868961911995 0.4784409035544082
Ni 5.498137444793473 0.1026749945069643 8.873985848148678 0.1400852701910813 -0.643252472847576 -1.4342500464243362
Ni 6.414912223818401 6.913275419390597 5.766152336097374 0.37217798122941065 -2.404640686652865 0.2440581109303216
Ni 4.255931434194199 6.896957061840484 2.2137126164464562 -0.4412113297789886 0.06255982501009226 -0.8394813801097606
Ni 6.776167856465285 4.0905516913226085 12.704429777353935 -0.44518548393538815 0.8528883975442859 -1.5752791685859258
Ni 1.7008621294524275 3.8209234973216755 9.810571539499778 -0.6688398343983771 2.4130548788584893 0.8101036982785919
Ni 3.742991988521873 2.145071729611301 12.949069849282388 -0.5796564932634856 -0.3396728095128537 -0.3416175919440504
Ni 7.1884264646691385 2.417757878178695 6.728492491468365 1.6899678530807731 1.1073211668407124 -0.28495253515183827
Ni 7.785116799346531 1.7036606212071885 0.24080094896819776 -0.026895538839263357 -0.4680659880779875 -0.4247151318961782
Ni 4.135614821797453 6.99311583316219 13.338314106088477 1.6221956306318062 -1.2314465712684275 -1.6577100214883322
Ni 8.535353519376208 7.54230594024056 0.8867688315047566 0.3804937001839576 1.4057773929059403 0.13197652504101787
Ni 8.59146235240627 4.0830365363123065 0.40519195319663215 2.0433253591695713 0.4585518779399651 -0.19866477039718686
Ni 8.633930854764117 4.422756755588115 6.9964879230613874 0.7129756483753269 0.5297678359631586 -0.256367524425294
Ni 5.234208166120944 1.515179421565336 6.779664117852939 -2.5044347134240676 -0.31646191861402917 0.7483213748644726
Ni 1.9335168727861538 8.354832268136144 2.5172544532423378 1.5127615096676785 -0.01863252749952275 -2.5438078159050517
P 0.12155925393420772 5.915826238985042 12.833178004478022 -1.1923061536235402 -0.7334817387484787 -0.13749282687355674
P 0.6708577794017513 9.38523322562756 0.9186549577568517 -0.06082741570001781 -0.6246091467147759 1.611515782320457
P 2.8578716725243085 5.911980629454493 9.291222435725569 -0.3332206261296068 0.23785198211960976 0.15076640405401132
P 3.727452019406859 2.9682823654315196 1.3003330936431987 -0.286545590670571 0.7709326845060852 1.6183968257110062
P 9.034235640571804 7.911336190709445 9.603539675474295 -0.5384815616870726 -1.5326060551974314 -0.5491598673365252
P 2.4030889627886727 5.790459368289141 2.887904492978549 1.403911286231479 0.7193926076452642 1.0556072834061885
P 2.289055057046655 8.03895482794974 6.047817751255375 0.27179337206206095 0.8438843942734627 0.42681160941389074
P 2.9545586359984033 8.532758891259213 12.12491773411686 -0.4810320613203522 1.2049019880106797 0.9132337314015626
Ni 0.5010773619131547 6.0079818697833804 8.667483102928482 2.069380147275094 -0.3367854606627297 0.43079861908609673
Ni 2.7567367751353617 6.133228275602422 6.905415549501894 0.22277811850562276 -0.7230944819768838 0.6335411590970831
Ni 2.9220701853620055 0.5614877177000359 10.078485425637693 -1.2988130736385437 0.24071541971033383 0.3120383356250368
Ni 0.26247906688570755 0.6646158454745758 10.042476620638269 0.5995347202446513 0.007261052437787494 0.016910659712409584
Ni 5.197521977852404 0.872002617560347 11.022733609810023 0.03245683497712475 1.2489974356679974 1.9795422032753391
Ni 1.6301863128512275 7.540350702623822 10.755918734010233 1.9484531951800186 -0.9238565012227316 -2.034873628857792
Ni 8.174236884664165 6.272272543086491 3.1096506783861004 -1.3073362806182067 -0.51621426564844 -0.14097975698089268
Ni 8.474796752431297 3.535310540814243 4.830610982563366 0.6237290581026678 -0.10367587832411176 -1.222131978735721
Ni 4.310344492419222 8.076836398457896 10.648273173353422 0.4791356156285878 -2.555816410330153 -0.30204985695375725
Ni 8.740125276981207 2.743392973390806 8.94299183622601 0.05463285685353172 1.7569875136344322 -0.752872998790897
Ni 7.145726299086559 5.049609642125598 8.720308804737643 1.3655380857699193 0.6338872295825922 -0.12123651291569444
Ni 5.051444414865474 5.171649828914349 9.523100643929993 -1.3003225683045347 0.7865431373498325 0.2996178504734969
Ni 3.66852616156406 7.287355928158638 4.480277807636141 -0.5993508863686194 0.5076072407057194 -0.12501346345962341
Ni 8.856892808775061 8.945907086246036 3.012611586810413 1.537607622177081 -1.4804568839977017 -2.9834569434032425
Ni 0.030187571488361004 8.430271080637832 5.738470434047712 -0.5370821102363847 -0.23492529539111798 -0.5658393848747352
Ni 6.291250394456528 8.639852166788263 4.471583950138403 -0.17757915337148128 1.5128530409402203 -2.217980396915722
Ni 6.534607978772866 7.3476624988208386 10.322175678344747 1.0521478641026782 -0.033634400224993685 -0.8205233509500192
Ni 3.5935599420408253 9.0394248968058 0.5851405329451602 -1.4358361599645337 1.1350137476599742 0.6674136434748118
Ni 3.274328018360303 5.066854652574639 11.336637279321714 0.12797254608794736 2.04553496522638 0.31706304253313783
Ni 5.839349575236556 2.9059927575656137 8.820373418028328 -0.009138471966158456 0.026561295428296192 0.36731216849667714
Ni 0.364998383705652 1.8261085352714677 6.340103535287985 -0.39589486523037626 -0.17432619365182236 -0.5133078906349224
Ni 3.8479076297384442 3.0413860126279095 10.6736078636101 0.37300381956481565 -1.8171623833521156 -0.8309856839339237
Ni 2.328789933352666 1.4285373755156154 2.3809790246202627 0.5551551656880117 0.3872482452989718 0.06079270580734047
Ni 0.8468940306110075 0.8772585928030638 12.524862051946865 0.8632108625162166 -1.6139742711632783 -2.8963004028903927
P 1.5156705476017676 4.165137983157282 7.48928100805813 -2.23946299226953 0.8025341134614501 -0.13190813369692767
P 8.32294614188405 0.9255687150357498 7.865152736879797 0.8596509130791002 0.03149087151942964 1.4771445317950174
P 7.696130321462523 4.1999059999250425 2.2451233697614015 -1.6424587517562166 0.7447938213271883 1.9263779605475342
P 3.9351334671144893 1.831168060099612 8.698893856243428 0.5614862501123621 -0.5455356403203766 -0.4148264120275566
P 4.209950917349416 9.107552417934949 2.757758873282879 -0.39291727065929105 0.3217411647350975 0.703022393817357
P 8.272499158066436 0.6762620191082965 4.550653388698088 -1.7821249321320083 3.0707919184754853 3.1432067819027867
P 5.369564355067284 3.1868519847015477 5.354434893186494 -0.646137507704855 -0.4414360441952849 -0.5080975500785766
P 1.1758298634490982 2.571146732538163 4.102317403180291 0.3814936022033817 0.30626723746921447 0.017395569768628105
Ni 0.8583326339953686 7.121114398091045 3.929423431951298 0.7256858968531438 -0.9521859442950441 1.3917970194664482
Ni 8.651092466452253 2.246679219978701 2.6185125954668416 0.3278902150556288 -0.19418076648390428 0.23506130674835002
Ni 1.108313933233241 8.949011373457443 7.713632014764567 -1.774930471266098 -0.5444889442234171 1.9767764676047437
Ni 2.4162381674244537 3.145263802597682 5.858838012353901 0.7801868561145016 -0.8964274584775013 -0.7912204882208438
Ni 9.046838119997219 2.849179668332369 11.529672977961793 -1.8958782492967798 0.033975585614496324 -0.0765525397447585
Ni 1.9055597548255112 6.9353668245010285 13.287643798922224 -0.43806095707546483 2.1128490170920067 0.008388995394643618
Ni 8.652315648278838 5.324983084099882 10.647648609299544 0.4744420668076604 0.9928278861861224 1.5072945730158362
Ni 2.670947249752654 1.014582992506725 6.8093661232222615 2.702775524822932 -1.406352805793436 -1.0012896438002303
Ni 7.267803551991268 1.4531492765111298 10.155072361081153 0.14904325071531752 -0.2886801205150706 -0.07923882832766997
Ni 6.347739155175147 2.670761919172869 3.4010681886524146 -0.07591670593297248 0.09664134007483356 -0.07794273522406577
Ni 4.900835519202789 4.567268275175858 2.409731210768185 0.8113041463445964 0.4504030235805856 0.1537116027252643
Ni 3.1925416335009627 7.926283101969146 8.412616489607466 0.4212153462730358 0.3016731903406289 0.46089543847147724
Ni 1.7625679459920094 5.156276657321142 5.036814418897206 -1.3427488557895455 -0.00560140534717745 -1.4570192218000522
Ni 3.5292316977972784 3.8765968034892393 7.93242217742454 1.40907611826187 0.16634111856381673 0.8805421547058127
Ni 3.748551905915438 3.116250300332262 3.6519752141363155 -0.6954512663383184 -1.2370706023234244 0.6690948878319767
Ni 1.7976232251584365 0.40722132304528336 4.562710069566034 -0.5249449606532184 0.3345030923864562 0.04944205668121163
Ni 1.7404765408815779 2.091492658995313 8.45162209008202 -0.6073678431358249 -0.5760775176629757 0.29315178313317897
Ni 4.581955723623859 4.748326985097302 0.04915986294100253 -0.1768111648572052 -0.6945614075341974 -0.717224653459668
Ni 8.228779674295037 6.9386935084081784 7.276879190483364 -0.6878035199850735 0.16261867540690703 0.3458961647147462
Ni 4.1855521465206555 0.6131004308644995 4.924788569987165 0.05846405767416383 0.6317439579873443 -2.459836100878086
Ni 4.150367135948379 5.0854989089010605 5.167760666697551 -0.12073926156430173 -0.41620555176327023 -0.4850535237749195
Ni 1.4888717457647846 3.8688129191382483 2.2369855040030204 0.9185062926544116 -0.8757231360506145 0.8290956660000625
Ni 1.978617069376955 4.636415114493828 13.306903352773533 -0.13627129576162983 -1.8808689203721412 0.3968623713499681
Ni 0.7621859091613485 5.948212757802557 1.5645968940122406 -0.32630281596385097 0.12650007530747892 0.03829426759450825
P 8.733898169500415 6.077999762826343 5.230786036965205 -0.8388429751948134 -0.8774797137304049 1.0475790137850731
P 5.883356321406622 7.002419428267422 7.915523735159698 0.39246732760606606 0.03990763482821514 0.7585281401941453
P 7.2591115477993275 3.7409626186732217 10.481657275514664 -1.0321811911727643 -0.8667774968215524 -0.32364918039108775
P 1.7636335968257761 2.945588635936785 11.791090100625329 2.890710567507441 -0.1725127945921674 1.0215622780063374
P 7.2405136241178525 9.15315300709117 11.634619198724028 -0.6393269125409248 -0.663932884015063 0.8554926679363524
P 6.965714706940904 8.195086574890034 2.374590679535056 -1.3321633669642152 -0.5692270704000455 -1.2048078856349766
P 5.483172000475794 5.853953624923653 11.594691578615041 -1.0822310566413038 -0.13869713159430308 1.2218692119926375
P 5.912026962099438 2.170184023172236 12.776947779918203 -0.5164425796091622 -0.9879029380806793 0.1425296179665158
