# total energy = -340857.4454307171 ev
CRYSTAL
PRIMVEC
9.38566725445291 0.00000000000000 0.00000000000000

0.00000000000000 9.38566725445291 0.00000000000000

0.00000000000000 0.00000000000000 13.73687274467956

PRIMCOORD
 96 1
Ni 3.5206764760456015 1.2478526400640098 0.6271606210238295 0.2693963325847941 -0.22135655556774778 0.8504700179107805
Ni 8.97265112211077 1.7885984826147447 1.2366649245032004 -0.5903610241651833 0.8344103933447565 -0.5339026840671386
Ni 8.718017965093354 8.664679217163755 11.641670259623686 2.561494177441221 -1.6080085404981468 -0.22153421879619267
Ni 0.9614020705036872 8.73648895856959 3.5217492578313405 1.1284867451747338 -0.3554442134144975 -0.4830601474939746
Ni 9.299919959266695 1.669269107077722 3.9566998572600585 -2.311565466662735 -0.860986601171388 -4.294870222304301
Ni 6.724586676774661 4.936785975890342 2.014841872829866 -0.13064340805189112 0.2771515510501807 1.6639835132018697
Ni 9.345731401928031 1.1239524444950117 12.687760145795776 0.4850838627922226 -0.1500593506846577 1.1015269287564384
Ni 7.973321569575848 0.16905276437767433 7.455522745292415 -0.5664731618039922 -0.39319494980070996 -0.8587646538194048
Ni 0.8382020457239815 2.696924603876505 11.143626388119102 1.2074651207521656 -0.22381170197645972 1.3109486805598132
Ni 4.342720156744844 4.437918981353309 3.1927656592383666 0.9181314258134962 0.9531827609906747 1.614809108359748
Ni 4.236859213950909 8.343970961532163 0.34058240638663856 0.2873495746291051 -1.9293347291830127 1.291383356833376
Ni 0.8000981131453118 4.632990692943799 5.099031315690621 -1.0731815448445259 1.8642539375232798 -0.9240732452192278
Ni 5.91313941458897 0.44300444063906247 9.193965159798594 1.5626733068964571 -0.2820209633273401 -0.25456518110923254
Ni 1.1964097969526033 0.18313220406959566 7.5786467461660445 1.44390685278781 -0.19411391780171086 0.36670410259903297
Ni 6.952423753317151 8.848535056191185 12.849896611854023 -1.0872531924462436 -0.6330305380092517 3.843973804027064
Ni 4.19254947807626 6.753231733730693 7.291875186780068 0.21494936648982335 -0.7771794367467454 -0.8050604794277296
Ni 5.042628147349443 7.78878996249441 5.16418474176447 1.0608515625242634 -2.640822994379536 0.4913954068325472
Ni 3.7020732702098336 4.575081124982226 8.37737736756873 -0.19352050719208605 0.08075346519998351 -0.30940346910535105
Ni 4.337858381022948 6.821193351495644 3.0470447254920816 0.5079255432770866 0.7165384260259209 -0.16832318199085206
Ni 7.13062003489226 3.3033419613424946 5.746642367448887 1.5844001570505875 0.6753352123147337 0.4342564957277102
Ni 2.9074075813653577 0.8235913772562701 10.297160262234641 -0.9543603262385435 0.4592864421131445 0.28115398734135444
Ni 2.6007590555241102 5.063933612385548 12.391854454879786 -2.071714708945542 0.3277269500048872 0.5608000226786148
Ni 6.259930439971813 4.383125454974109 13.603804101374362 0.12888451637925546 -0.12319363664206526 -1.1244074328990377
Ni 6.978600379742569 2.349636138120572 2.2531768183780327 -1.3954467004038935 -0.3415880242576956 0.8179633035323268
P 1.0867945871919542 6.957022730351377 11.155109752203542 -0.2238996337045757 0.6078332128080177 0.18148851572821648
P 6.74888616971672 0.5625083895900377 3.700713287001141 -0.12758199551774801 -0.43666896182394477 -0.004907464603946387
P 6.122608739996811 1.3674729712909532 6.921488593511424 0.07788154296882716 1.1677256360706987 0.2789605792344615
P 6.671041444161894 0.9539123079050916 11.480124152045956 -0.5298164298129069 1.1299540737488798 -0.9056361215599629
P 2.49471039938184 1.8793860435373202 12.56268674179968 -2.0843447390047265 -1.519690632687344 -0.8289971927489852
P 6.826364854242293 7.89299902782299 8.440236936525917 -0.010178997415530857 0.6810566881795431 1.3217249452397108
P 0.20410260077892167 0.34840254447830504 5.781259524582221 -0.9620402113813044 0.11695125527677924 -1.6149037249560836
P 5.07891313758274 3.4312122942287933 1.46789491981686 -0.0035787184901938367 -1.0700034042268605 -0.9702410020245419
Ni 5.719682037794168 8.206808817903244 10.919206633083064 0.23549865139608472 -1.4030252840820998 -1.17048365843181
Ni 8.284109174747899 1.8197682841058926 10.366036982572728 -1.926099767185483 1.1488709652580409 0.14689509402406314
Ni 5.666249433190403 6.011501209116893 9.206177790241316 -0.8400290250831146 0.39299208976128447 1.1209546984637468
Ni 8.710913014858846 6.713380189879017 9.310920900045911 -1.428837102938881 -0.6009812228831909 3.229704348675399
Ni 4.761311537866103 0.36474674571789695 12.449782794176189 -1.6110933500710576 1.229577379270173 -1.0525103896484198
Ni 4.933838876321471 2.1672163062079104 10.667148903204813 1.38670572098647 -0.7879469596758947 0.7167384578518688
Ni 4.027690229900406 5.369606028815451 0.9246628139674182 0.6416735583962304 1.0805629249102617 -0.3576376215213905
Ni 2.909838469226305 5.645535265201555 5.22233364424517 1.8069772152889976 0.3015577478086871 -0.09625541749032455
Ni 5.181517253783049 4.081150991506422 6.856787556607064 0.3140239985964979 -0.13093599959164545 0.4977640293630524
Ni 9.216800488623635 5.1191307224636695 12.162008845510101 -1.7326597355223452 0.6672897163024379 1.5243438151886393
Ni -0.2479167734139642 4.500089642322102 0.7825018638723206 0.6540439070361252 -0.10819304946817494 1.659612894938
Ni 0.07222364933891347 2.6012001818926995 5.805752362273067 0.676025553513539 0.806030813760799 2.2025730612217163
Ni 4.415121195197934 0.40205758939984815 4.596206385203929 0.6104865912704647 0.7985429900241859 -0.21011826364976718
Ni 3.926569049151949 8.51352304341641 8.740236655569111 0.4614209719576441 0.7334935658230206 0.03437976303145047
Ni 2.140823809431907 8.841927546329767 12.77893251908244 0.5718544807205636 0.7685652127151732 -1.2580410339275043
Ni 6.338460319248066 1.9205421951599289 13.54907627466708 0.38836230429875696 0.26394585099318413 -0.0331965413566267
Ni 5.119928504194097 2.5297470958487045 5.192098655228734 -0.9599930990442888 -0.6196705717625779 -0.31193137773352725
Ni 1.6974542663303314 1.9799065415711032 2.0171498084476536 0.3665835178607687 -0.22436243227360714 1.77680120592625
Ni 6.886395583040058 3.7070476739407305 11.283330170484486 0.30546016818688687 -0.12094700669973366 -0.26690030563581774
Ni 4.754919898355271 5.570093270505425 12.079107122351111 2.212851303219273 0.6259222090992446 0.75818978301812
Ni 4.101639903477267 3.1000202480926493 12.60222105009267 2.281017675782865 1.3449144959822967 0.25053446268328466
Ni 8.778349035248457 2.2598622292790096 7.892313874101564 0.2845334453365487 1.5710358199285395 0.19767026769440152
Ni 2.1860251837111506 4.478878033960165 2.6216825238963524 -0.7586271276658548 -0.13084601098100046 1.008073499491283
Ni 2.821256540146675 3.4633394337964534 10.239685250674466 0.18687060597573624 -1.3795451986822886 0.10076076155984581
P 8.316048600967223 4.111400997590724 9.352777222457812 0.3535665367758104 0.5639560518090933 0.08055471892561611
P 0.7690249840285568 1.4905659994621079 9.266221658973466 2.367762068458961 0.4404073458204545 0.5710808357793327
P 7.393475036566781 6.996226663151294 11.754078644007569 0.3792899096838435 -1.6728713026098028 -0.34507315459281857
P 1.6570865107707329 5.193014696368612 8.17592621783505 -0.6874559068376677 0.23549479474134283 -0.10550393267178604
P 3.6246415140213455 0.4961169939839154 6.740312362531486 0.21779557768936683 1.2624245077071807 1.8218968127133075
P 1.789640291698008 5.529781828950327 0.8379617726381117 -0.7314117435933275 1.2706278694535795 -1.6527575625790634
P 5.921473887255076 5.565766477826286 5.65194004464677 0.3839058111893001 1.4211397342946235 -1.000081482424742
P 8.808627198335008 3.159506608180242 12.991152783610142 -1.514316255749308 -1.120147114960787 -0.7135284355550033
Ni 2.0682726003001477 1.471391080929613 4.713176203952372 1.146516348982935 -0.4403397258073126 0.8233250820648724
Ni 3.375433272770831 5.88437234395652 10.292668281808966 -1.3325747434700213 2.6318277328594606 -0.7175833223506675
Ni 8.898410492843988 9.221099124300522 9.609533417444906 0.43933365314030143 -1.9123294528742678 -2.2905875788594874
Ni 7.109924638238246 6.006874075080417 7.5141240369426034 -0.0012698678513591033 -3.5043030513967386 0.7565206228458132
Ni 0.9715667483160669 4.865520603194684 10.408401069591877 0.4513630735010098 1.0174436278522736 -3.7442769649553576
Ni 4.331438584509866 2.020321225467786 8.529993951166128 -1.337525402607077 -0.03202668941824161 -2.7362386895773843
Ni 2.519432247357656 3.5216338141221137 0.48943627591664673 -0.706273553764803 -0.9000596559134499 -0.10855377524170336
Ni 0.16617230304746256 5.827908168777133 2.8072944212974633 0.571291409128242 0.4022300634197847 0.12429612567762464
Ni 6.636323860387201 2.801875136931011 8.635451310261141 -0.7175434702516674 0.7885226296737065 0.06127992985640414
Ni 2.7352275126044105 8.404611758712019 5.558075861944972 1.1261421562019571 0.7420836214848768 0.8350225730074586
Ni 6.945853786125401 7.413522822169037 2.3727971496049762 -0.4234023266220256 0.2894761340538046 0.43791414708495546
Ni 0.159418376774343 6.958693379151565 7.399806607806145 1.4944552551593229 0.8915806719081614 -3.449818290085297
Ni 7.936407739625627 5.640955059502164 4.392324347609302 -1.7028686203028416 -0.4249537302695455 1.2160243231760863
Ni 4.099856626668077 2.1753912225279315 3.0479513809645433 -0.5086703918629111 -1.056122275369394 -1.1891532098168551
Ni 7.270231837716958 7.64754505353919 6.281171143902744 -0.6165070864329318 1.4288797832513584 -2.050293048736656
Ni 1.006631601785181 -0.06394642924404949 1.0881433075997464 -0.6002620853289792 -0.41600500571669 -0.0657896448012996
Ni 5.846717046280372 0.22033792827647888 1.7319447169535385 0.12087578714216601 0.017394284217047463 -0.28427890612358137
Ni 2.058342564173188 2.938427212177837 7.427032551848759 -0.3007190539574756 0.08302914860803766 0.15881472827978454
Ni 7.803722559354517 6.373168517355341 0.12487912068056886 -0.7890165385909895 -0.08351148756109487 -0.1530189475336139
Ni 2.331014973965668 7.437249789398673 1.7769471150835463 0.12785196134968305 -0.00802955517269585 -0.02048269333438408
Ni 8.284540915449071 8.377214995522419 4.43739432254471 -0.7120325677357672 0.7248538878701517 -0.6672053841187477
Ni 0.4294637382568646 7.213692577198236 13.459429072335643 2.182867355262673 0.27203274176637665 -0.4675605091964786
Ni 8.870300418930713 4.734628085400179 6.9393326244042175 0.6518157890365548 -1.3140962250498596 1.3897943872141227
Ni 1.7740694694535593 7.685012637867001 9.028120416543977 -0.5303460770641317 -0.9611981750959833 1.2238440763308212
P 8.948651970526047 7.578109885989805 1.7228650222945392 1.1954053613741542 1.4575946346875477 0.19442193596043292
P 1.3449098268209987 7.132863209404872 5.066103578692309 -3.489528721301042 -3.186401829233022 -0.6711900797981086
P 3.5879810970913772 8.22302725119945 11.000611342289078 -0.7130072729442108 -0.7262952483023686 0.13192073210241798
P 2.434125916206484 3.556783138597979 4.554047844301207 1.86884901309313 -1.0328249954043502 -0.0652707961833521
P 3.8818275725761278 9.181444679464601 2.6330701541731396 -1.1430543585762636 -0.7179165373203701 -1.3432381367211383
P 4.834003532009113 4.24246245739873 10.324276393968479 1.003997786760013 0.45551643354775095 -0.08718585108888856
P 5.828386837815389 6.736262447041143 0.5072915696103414 -2.310095566985428 0.08746481578188808 0.7541662636810238
P 8.31923972788893 3.8105528142130516 2.9876052937415727 1.534826716997834 0.666952387567677 0.770980249914569
