# total energy = -340862.06665840483 ev
CRYSTAL
PRIMVEC
9.32645264175442 0.00000000000000 0.00000000000000
0.00000000000000 9.32645264175442 0.00000000000000
0.00000000000000 0.00000000000000 13.65020617349008
PRIMCOORD
 96 1
Ni 4.302264552974842 0.6098212876167061 2.2520249068483955 2.1928139249524237 0.5152704136779319 1.795241414909308
Ni 3.8059667103224872 2.9417123376937475 0.6570429818497536 -1.4620701539603984 -0.8935429378408546 -3.5437028933506003
Ni 5.765314481089954 0.4995154687604289 5.289672865406187 1.2276053431454663 0.3627420326274914 -0.41171846252619415
Ni 9.239063627366898 5.0941643072081035 3.3369841817145613 -0.0280389084150872 0.8090400329007679 0.8703266476253915
Ni 4.534698401860135 7.510890634398957 0.9454709861775281 0.30549616363114485 0.21130405642775224 0.5491202723478413
Ni 3.5826261526121868 2.4408725126801403 5.4519466101662335 1.4762569869837414 -1.6917678824039897 -1.7103986101312993
Ni 2.0846952921950535 7.190405747582276 4.905651521020649 -1.0797067475575535 0.551368959172702 0.5334033758332168
Ni 2.60060666442793 0.13600112810368384 1.0213631280013904 -2.9323380132402406 0.9730854134518725 -0.022661960373890004
Ni 5.412699965454966 4.91957311664825 12.998722635800082 0.046597388143564906 0.48134059369970644 0.436479471520958
Ni 7.157380779325201 2.5652594095015497 4.568778191893509 -1.5703596197971212 -4.042421830427753 0.13015978354725324
Ni 6.86502447320983 8.359653769446505 11.019906828110893 0.3631917185704003 -3.397284481852639 -0.9455183024668812
Ni 6.725995045983561 0.10363180945645702 8.51428821697431 -0.14678453658812785 -0.44445734752011196 0.980468593289821
Ni 3.864331649987208 2.51965305683928 10.403599925434607 -1.335159987698694 0.01218342944006934 0.6150323016596182
Ni 6.910043259365407 4.633111128504771 4.162261444108913 -0.12487205278575268 2.700330919937181 -0.29860817826205993
Ni 2.6495145812706586 0.7085837562296106 12.260697134358967 0.49495561337997984 0.5597558976848166 1.0982081487958506
Ni 4.2774934951689145 0.8216903087677855 7.234227017238501 0.3212937927850337 0.2601971825840293 0.29990735668945767
Ni 0.05633084037726833 8.800804298542213 8.328782279068717 -0.24555526430113836 0.14812099601136425 0.42969330183706
Ni 8.462338011330266 7.016103677049523 2.1005213494205353 3.1107347774170107 0.03679557156179469 -0.6165006586750286
Ni 8.51890294566496 2.358398693336081 10.240466281755245 -0.7262510253279945 0.4477411604777063 0.28033946185985914
Ni 3.131813418739769 5.105122888880531 4.479547357722494 1.4738753741254422 -1.2837505228784665 0.5665793483645533
Ni 2.8369669498103223 5.7178801437401985 6.874871341745786 0.1526595073116661 -0.5788517379740031 0.3339737022455474
Ni 7.647476531073586 5.655999131487813 11.937665193368039 -3.645495695719386 -2.5019739105884007 1.460744493170439
Ni 5.685563985872148 3.7312618259002424 1.5928564264768157 1.8083450421708016 0.7782986379528531 1.2043391735286744
Ni 3.51386221842427 6.47970208870233 12.698254181311368 0.6805069863236602 0.31629248291570045 0.12417399827746357
P 3.631179664260403 3.5605038073126156 7.165034066236173 -1.0324488430118541 0.9002961974042881 2.693348317971761
P 7.075709034895038 5.215175028229157 6.453366984814305 -0.39823765443093995 -0.24306900754417493 0.01352528817994445
P 5.243042468260826 3.030248351154469 3.919137615382824 -0.7171961142145777 -0.3825626668978444 -0.7783019803869627
P 1.2359601365049675 4.590330690946114 5.118800131452968 -0.6518885512560192 -0.1242660437706376 0.6682230267499847
P 1.8681070860854652 2.0904590398321257 2.0740808566194033 -0.44544953623005223 -2.5610043822889956 -0.688030548394215
P 8.373372981055134 0.918837435809912 5.032557492658842 -1.293653126704159 -1.5168220528902974 3.9658217252745125
P 0.8147290446313604 7.205234807036879 7.05853530528516 0.6247294743427242 0.1093400185884246 -0.10080344187232317
P 9.19193706294922 6.291410339438821 0.15407392773332515 0.28481369558112885 -0.3428987726493191 -0.5553719096845081
Ni 7.6002380492260615 8.56068545280749 6.370182489790722 1.0735522979203833 1.7234294751733288 1.8416691102442282
Ni 3.2549412444754093 7.57010428124001 2.8750067515697495 -0.07128229248475466 0.9577431266678472 0.7072683135779045
Ni 5.743807681654536 5.2906073759454015 8.113641538385139 -0.41006832851728087 -1.2777585669610898 0.6320941422379114
Ni 9.181855167810587 1.204418074193353 3.2718995330328338 1.3558722805453811 -0.7715461497203681 -2.3681505621466314
Ni 6.327680913161433 2.1239316778085846 7.3174385589742945 -0.6668510861031225 0.8107351612150037 -0.7880786001577524
Ni 7.778205415586272 3.708458649569107 8.515271225066456 -0.37941769351095944 1.1583493370621214 -0.27285112390261396
Ni 7.896670015078326 2.0103354865148333 0.39940066453688433 -0.34862024851412865 0.08593295251839393 0.7393664796640299
Ni 9.286954960888524 6.782532000960796 11.391670415992541 3.660918972252992 2.7318277049938824 -0.1102962118541068
Ni 8.6012461946742 1.570052317500432 7.404609179790895 0.9352482879994408 0.3060216971173117 -0.5955322839534776
Ni 1.5235692783043684 5.154581066420001 13.078167223376306 0.3449212023959866 -0.7746057624822983 -0.30472277580023005
Ni 5.127441089682332 4.083605874413101 5.862954977468651 2.1712688517917957 1.7387126265846444 -0.1264280844189629
Ni 8.580905201799679 3.707143619768416 5.5453547624062525 2.0644305165793027 -0.16274285968959712 1.7626845640192093
Ni 2.020417381653466 7.3796487949994765 0.7722619758762729 -2.0934029925522526 -2.236682087090283 0.48093075985579753
Ni 2.241762078531512 0.8554604605785854 8.66068740695594 0.35143174982099473 0.11759531661868133 -0.3417613166107662
Ni 5.353150566324374 2.6555021637674225 12.296596515272586 0.43023374772156225 -0.4591581440653964 1.1019781573612442
Ni 6.781953760906591 0.9948526868066049 2.838287575482506 -0.09778908052603158 0.15436132049412124 -0.4405814095044735
Ni 0.4204476698646847 4.653489427189241 7.4658709155981295 1.3956313056108738 -0.763629980197085 0.6841929198156796
Ni 0.7273420501170591 6.381848949206926 9.085276954370178 0.30948625862714446 0.38130179790754976 0.29899641483941414
Ni 8.801988758008083 7.99779673939673 4.484556595353354 0.5837769431897624 0.49681297830369275 -1.3616595766511195
Ni 3.41536555370725 3.2581588705834834 2.7608770871937325 1.8313587294571556 1.7953573716618823 1.3223494661975872
Ni 8.401398970779084 3.174575203393451 2.5259978424663028 -2.02029290283014 -0.11616141238563218 0.06081327463263076
Ni 2.8232663911066673 8.158855247397698 7.0890570536946775 0.08518347594687911 0.721073594892113 -0.00793262458351537
Ni 8.953767445784315 5.981007347760773 5.756305127987345 -0.4200416376799089 2.0193940451649546 -0.892547920917437
Ni 2.158318308128787 0.6303721256721888 3.78722240611377 1.6769837821162796 -3.838843938999666 -2.884164538858807
P 0.9878578474412261 7.895989184046764 2.9219906212643747 1.7556708517055377 -0.13694672456209964 0.21673602607660095
P 4.1080505063819786 8.697215390767196 8.861030798123371 0.08310859569572138 -0.9300772853214627 0.1799273418886837
P 7.64644129484751 3.5106632452211697 12.044273073813153 -1.4448890141954214 -1.4793603084994134 -0.12412309043487012
P 6.91632928834176 5.619765863575152 2.213858265335143 0.3115030319468571 -1.1326172224033397 -0.4258518166037828
P 4.402971586931322 6.7520438277802315 5.2196069584510605 -0.8954596952475933 0.37859494049934794 0.8609236091439367
P 7.879332139904674 9.276593272175276 1.0966285322181146 1.3635323681938 0.6705755861425613 0.3261611481796641
P 4.361702034675587 0.8031707720640086 0.14492840842440458 1.2613996659870923 1.0034190314384073 -1.5218727279403275
P 8.60474361435689 0.17587357777684026 10.347797894913361 0.8067712914712493 -0.5919517656910709 -0.5913827805614783
Ni 4.410236893418829 8.87339207824987 11.022854919742088 -0.11354300092617865 0.6385203574792293 0.2580816789029233
Ni 6.475607776060463 0.4722150770399799 13.216716338299484 -2.209181310566853 -1.1388107528085614 0.7969411927547049
Ni 1.7045863946278836 8.748566838161564 10.420662670259889 -0.6694263030294665 -1.1932713457502868 -0.2062328125524319
Ni 1.7707669014768541 2.626058553265422 4.20637929495423 -3.5426343428767697 3.6161604370903784 1.2135303531096393
Ni 1.0816260007472502 0.1630021406992946 5.629044751154638 -0.800316536984841 -0.2350343101651565 2.0186761931623236
Ni 7.556487660608739 7.579421407274694 13.13059680867819 0.8329489783078816 0.8633569011757777 1.7910749422364445
Ni 5.356107051762808 7.385058137442036 7.322748108375243 -0.7065293785293509 1.4091784481676892 -0.4728654663491598
Ni 5.110159173223603 5.968239434305835 3.283188271123306 -0.9858203445200376 0.3179984098632136 -1.0218849514530788
Ni 0.27338070588497165 2.5184592709209217 12.659582978718559 0.42691239665781316 1.4922891007459396 0.11891840630547908
Ni 5.010617945828019 6.764158889561068 10.155302713513885 0.7134389611649906 -0.33691170182794883 -0.6691455385642541
Ni 2.8570654549201775 6.071343366551519 10.585993626145228 -1.2243199875259756 0.2753957447013386 -0.6448061904879412
Ni 8.174393117241324 4.295997176903462 0.3317400496781998 -0.4547322470835588 1.5263341061457907 0.8395752253751476
Ni 7.582293954640743 6.889198638056579 8.327485902173 0.027565311212778332 0.5072763397288619 -0.8998372554899986
Ni 9.291543575512213 0.21309358436264506 12.943029724772936 0.14242908783290956 -0.9649329595480672 -0.18922367958894507
Ni 6.6805192636561115 1.0948415839215726 11.128562797522187 -0.8350698813056264 3.60856077036625 -2.145521053403731
Ni 2.5228893358523283 4.2598478470631855 9.046578705065155 1.152752302590318 -0.41479658723088564 -1.503069222080579
Ni 6.571623604415895 8.048458029307046 2.0913347937206708 -3.093318381712776 -0.04479658748940027 1.0218206738740467
Ni 5.7785673700742235 4.251612589517013 10.487070742549545 0.834091319442441 -0.24464997887804962 -0.20304335908085677
Ni 0.9049083790203211 3.7503810534989444 1.419648348820809 0.5390757436276458 0.6244659362686923 -1.3014759651826877
Ni 2.087987529923025 5.458530152976927 2.5346658474078803 0.3599796393910058 0.46705888696971176 -1.5453078190348162
Ni 1.349351145844001 1.8104136509998212 10.719042932036722 0.6871648579598101 -0.40242752414257144 -1.0820968450562847
Ni 6.549659808808606 7.2785687029435095 5.000725377674877 -1.1788207175425958 -1.6533897968464235 -0.9067170133289675
Ni 0.9687386198425242 4.505944948842185 10.688643360154787 -0.9933693605118892 -0.7681432946864061 0.4078618077842653
Ni 1.6601924807889465 2.2800658188963263 6.757070785670817 -0.6899113103566957 0.7021908990549971 0.5131867916760259
P 4.0426907273518795 5.283034296525818 1.2731325781830878 -0.4617289901163661 0.16951694518863708 -0.3050829873531262
P 3.717402717504305 0.2465979322775607 5.156788637723716 -0.8622814087234116 -1.278764896738417 0.6552826645392327
P 2.2967135365859277 3.1723928135114527 12.080459709463378 0.8002617724875056 0.7893998900723372 0.5381678871013957
P 5.480465969226755 7.606654648537235 12.697025887518807 -0.5144468893353721 -0.5001993782774223 -1.6406075574800907
P 0.9032230890558891 2.773966763259478 8.810156865096348 -0.8782631288636488 0.19566789255239203 -0.7249649595267192
P 5.606503648138394 2.1230363383698165 9.33992174985367 1.4609576376225097 0.08356805183064317 -0.07685001638051925
P 1.7548186677237905 8.001974990110982 12.429017218266447 0.24532823589199687 0.04567539054992779 -0.49416242805472305
P 7.983284779326691 5.6370011477714455 9.930920391060766 0.2582680838821165 -0.9044724402691648 -1.575869750982073
