# total energy = -340869.45326052926 ev
CRYSTAL
PRIMVEC
9.31908296463215 0.00000000000000 0.00000000000000
0.00000000000000 9.31908296463215 0.00000000000000
0.00000000000000 0.00000000000000 13.63941990607948
PRIMCOORD
 96 1
Ni 6.742701476220986 6.671317299174265 10.358457285151374 1.3926431695168273 -1.9663938388188393 -1.0265653876478835
Ni 1.4896274867346049 7.848270907544438 4.096012896041003 -0.16396979011816276 -0.4261418370403758 -0.5370360874897977
Ni 7.577765880503296 2.3497136293159286 8.772083736535498 -0.16649872718760356 -0.3981898319121401 -0.5051299828098204
Ni 6.646351475374244 5.887237598889684 6.950675455222507 1.002122938334803 -1.0657875663733 0.5541616914264909
Ni 2.9073862040978904 3.9007631931934754 3.980350959150669 0.21701627632118106 -0.07606917235043674 0.1254513223279904
Ni 2.3699360397847777 0.29033510410872865 5.409694228796824 0.3261084405648577 0.3289348542700593 0.21777320909186365
Ni 4.291009119826432 0.6159457337233254 12.122948334123564 -0.2617586135338782 0.35691077065769505 -0.5579173018141811
Ni 3.7395616925989374 2.8636517468028178 1.8468456507211808 -0.1465258836101025 0.30260881478102075 -0.6943369502282172
Ni 2.267826845541839 4.4366011561189795 10.760615795794621 0.42018073436093445 -0.32730991707212664 -0.5388852248833945
Ni 7.223538210304486 5.473666007093811 12.788292663889871 0.06402381115012845 -0.6058354656516987 -0.35631761715838633
Ni 5.997165503908367 3.21288438842499 6.909935219348467 0.2262557926415781 0.16167610898797963 0.754872545719429
Ni 5.723091268014889 1.0327780727187614 2.1557108197959276 2.6256151762908457 1.0596721975041814 0.16640693880474566
Ni 3.827543156763178 9.4262526217699 9.53556453539135 -2.0553468091104796 -1.556680579648132 -0.9490800516762107
Ni 0.9477228006684462 8.199255536801699 9.23729702769226 0.03270366088060819 -1.0091502774952297 -1.4508514024264434
Ni 8.28596960565545 9.341076201638433 7.689509142922592 0.8705187090315395 0.21101326466021078 -0.6362752701987945
Ni 8.233130404107811 2.3919477142213776 3.602293461389697 0.018304968956774928 0.8785158683044031 -0.7710951782258785
Ni 7.535280180352383 8.408934908022482 1.7221544541519218 0.8263525560372865 0.1275475427353868 -2.568194729389848
Ni 4.167018718311209 1.9797087513181515 5.810406417732806 0.7253611665238734 1.3480790097532074 -2.0635501708568786
Ni 8.854312530661758 1.4920690865239314 5.722937503142661 0.9275658317535187 -0.13242209721886872 0.35548689372697484
Ni 7.716163584592178 8.02459728011637 12.197883081856288 0.28984714423997826 0.4148114996292211 0.5742116680988305
Ni 2.2850951066472662 0.7533024962226363 2.738890657109818 -0.2576055105974531 0.05616831966145166 0.9176133485264971
Ni 1.9403449440276364 1.5492789380761267 8.841809116778784 -0.21713994638323894 -0.4244875892664044 1.0248082957474607
Ni 5.608624969494673 1.1877917020914954 10.046783344410585 2.445733342928117 1.339614681035938 0.867140793698242
Ni 3.4165902273367723 7.433767407432027 0.4529121013784755 0.17740560390809448 -1.1186129377044476 1.118993460972318
P 8.039395984182974 3.995864436896058 6.436332889526241 -0.20994291441416743 -0.21811825113610822 0.0781193700112461
P 1.7660501315857555 6.730512115440684 10.634615268040628 1.0944448250986765 -1.9172613429582464 -1.2043191189240163
P 7.683248582852098 4.338946483629087 10.838320175044094 -0.5906199342535248 -0.9446616108935408 0.20648426644160567
P 3.9496697416453275 7.708941295139018 5.176255855045934 -0.5636164090814874 -0.5382995275832535 -0.9725426535745251
P 2.2354243933758537 -0.20836351667783373 13.116443675575349 -0.5386589678052013 0.5950789984661429 0.044342016450484925
P 5.2877875742773774 8.11157228329875 1.431334757718594 0.39695364551219375 0.3740872824369815 0.48350700522340606
P 6.403179319257128 1.0110646089434536 7.10758365420276 0.4295639753480473 0.5046396734369631 0.5415257478300352
P 7.9013430861712095 4.702213664498303 3.289391265487713 0.8927327832347335 -0.14476544927557003 -1.8918814694325614
Ni 6.699330463169363 6.1830905321406275 4.148566001735464 -1.6288846126162078 -0.9538381351864862 2.320678741817913
Ni 3.3182459426926423 7.79921525376194 11.775266387940109 -1.3508162061787123 0.7675879364035684 -0.3503012357609773
Ni 0.7758565412994604 0.3256451102223086 10.859801593648585 -1.5838124028679175 0.9433498340606529 1.2602246718423846
Ni 1.7803828814940916 1.722250440708525 0.3717587294494999 -0.3998145119997566 0.3204077906356546 1.0425946731966045
Ni 3.864372173432713 0.412198890845615 1.1334428090710684 -1.249842814387428 -0.19964487492226907 -1.5713680064569777
Ni 6.188942916368479 6.213918059251665 1.2564780045618416 0.302007433751596 -0.5400571337043086 0.41245302669937356
Ni 1.2489901212384682 8.443247772237369 1.4229326723366982 -0.7290699828340282 -0.7546979678147777 -0.46100882412088995
Ni 6.483463220726774 8.02008684386433 6.084777000470943 0.40748642672271757 0.45447590809837857 -1.2170867030023298
Ni 4.193214661089059 6.062072918155156 10.642321217910071 0.5330675897603528 -0.8018573991093997 -0.23998471219189638
Ni 0.7584354472301212 3.2573177769574655 2.4822384471939967 1.603897860763883 -0.4813138542268292 -1.6643203277159981
Ni 6.342922127509857 2.965649112047773 11.954311137071377 -1.3716375137994377 -0.6538166215166675 -0.5596669375154362
Ni 0.5498501363729517 4.732696385532223 4.184615011144058 -0.049862946268714126 0.8313728920700133 1.6910502875116749
Ni 4.453617801978942 6.762392698949409 7.05338107078803 -0.5011044065901951 -0.03752293664612247 0.5799935648879302
Ni 6.370823462506969 8.340038926180917 3.558088390394773 -0.020153335019423353 -0.34900745665021826 0.8279741508011096
Ni 6.658196030077427 3.6856973919031093 4.653034066909706 1.0265666731994643 -0.9267281663435717 2.756544748124588
Ni 1.2938521875965505 6.054999734032642 2.3514227491684574 0.6425703591788868 0.10337094548918326 -0.6390602891430994
Ni 8.724106300675233 0.3701176389040785 13.72753043933625 0.9197311662004484 0.35616977872661243 -1.0304703791292447
Ni 4.940148495876483 4.972112951133696 5.500314857313497 -1.866003573224535 -0.18635792800537582 0.13899846488480577
Ni 5.7066710434775105 3.808858395016615 9.585512025432775 0.5776037244995149 -0.16043503749202695 0.4813763320336484
Ni 0.6433401105962416 7.5975968894792 12.150241132989978 0.8393895917269026 0.9979829480245006 1.5190108330115002
Ni 3.8213459664582077 4.820612616114305 8.724727883522364 0.27803369654481797 -0.6023505924268916 -0.3885800767365179
Ni 6.6132780492203525 1.1655470505757617 4.889405156132737 -0.6227535815632759 -0.23554647391488467 0.259290868719676
Ni 2.102413119356554 6.415079788459303 7.977479063723951 0.888848874799295 0.11438478010118364 0.4755705239851487
Ni -0.15639564940615816 5.488772240904872 9.894458270531059 0.5829611321566863 1.1261185020528734 -2.5035348273176172
P 1.0885993808793168 3.8050655281683095 13.79477321582428 0.6910443955198744 0.3182056407780133 -0.5297853194646553
P 4.956223914336743 2.3260431580758936 3.652637012465649 -0.6570400135499717 0.746139022501173 1.3274212242935397
P 5.242012237769089 8.035248992174385 10.5400806245945 -1.1725641951099226 2.0105144832871376 -0.42519181442228066
P 4.9833331272648 2.136260029413171 13.609194857485774 -0.9800631303212863 1.305291482274036 1.10760090286466
P 4.909516669511918 5.266568021909834 12.578369132690156 0.5292934674299012 -0.0357110802483643 0.6014627905052996
P 3.8059694792353507 2.6744464012963483 10.339048430642862 -0.12414237370857975 -0.10912687413635398 -0.25826242745516165
P 7.551103983567178 0.956147251849939 11.830669269266538 0.41286825985992115 -0.1373617006123312 -0.7205421478686751
P 8.660205347410304 6.918533937385152 0.30960790000302657 -0.15424510663123112 0.44509600954537537 0.5588907214710439
Ni 8.69627019926028 4.820705806945959 1.188124393360499 -0.4089974640506053 0.6506428517743762 0.0095876436884351
Ni 4.57303253365997 9.222090147783012 6.739878725930195 -1.930930870025539 -0.030568102594844132 0.6318730273660408
Ni 3.5207589389592577 3.6837031081057203 12.870498160308218 -0.036015241752344426 -1.075611494442257 0.34788748411316217
Ni 0.23000429160445168 2.9984522847898685 10.071743576760708 -0.46331176122245377 -0.35334850722773337 0.8568869771807178
Ni -0.03434548100596437 5.675852835449637 7.063841741641155 0.4159818657882385 -0.6172982148756594 -0.9153201816169462
Ni 2.432681426737202 5.997650096232967 5.4905214328150125 0.2067683733409278 -0.018475690206684308 -0.010985038256593985
Ni 5.475734843556522 4.333168652066559 3.001395251253492 -0.9736497705957747 -0.19042669875811077 -2.473092708777676
Ni 8.543959104005502 6.939017282182632 3.2629586179974623 2.019284259059967 0.06829029973596626 -0.9878911110061375
Ni 6.1566988886163045 8.464038646779306 8.386293263563903 -0.529418680153856 -0.8871465473962077 1.4247174243435528
Ni 8.501939358012857 3.041553044429696 12.843328373339586 1.2435433545319616 -0.7640097321340068 0.004965057314759191
Ni 1.4976698555063177 4.149713180873121 8.478509319118489 -0.09081599164230812 -1.0201515137017398 -1.2326845574405867
Ni 9.643107687028015 5.1883715950692295 12.002880334712643 -2.1962036673602627 -1.3197544517769013 1.3396776730633895
Ni 4.5080971621636845 0.20410096803799432 4.015867848910521 -1.8401156497141795 -0.3074941678977801 0.39701200955395494
Ni 8.930412163790153 0.23510183009590807 3.377911372658912 0.40989889281895214 -1.026449945115942 -0.03556966957449358
Ni 2.2138693540143572 5.674464292057999 12.880086564977065 2.0598153864047943 0.5384231976453114 1.3786355423838255
Ni 4.048414746865569 2.158448766429913 8.079215494640275 0.7105593256243504 0.7570685249294832 0.9031812322615671
Ni 4.529158290117416 6.318291790703789 3.317393246583011 -1.3449636040526773 2.7080365161115556 0.5430619819689034
Ni 7.98172017847251 8.747376051339158 9.944146690060487 -0.11520033402394353 0.7704948256377183 0.646377648740119
Ni 0.9486640280681484 7.880570849795604 6.5881398223817715 -1.6459870766244493 0.08095169725371865 -1.0023080577624157
Ni 6.154518223155609 0.39911582998975464 13.53715182125926 1.3841212480887453 -1.2991529734764657 -0.39698398452949696
Ni 2.1825665536618857 1.8057960212860507 11.72756945648312 0.8461413086284395 1.0784795600186716 -1.1693505732686311
Ni 1.954714970268634 2.61032179003545 6.2871455509484955 -1.3017418172495645 -0.7241015830851594 -0.42471384634459763
Ni 6.613501707216321 3.56029048974675 0.7534972650607926 -0.36890393846382913 -0.6877659818789187 0.6288231847961235
Ni 5.5990822283333355 7.2969259902317605 12.590262146625799 -1.2372603497367272 0.38086291059791827 0.6483566268433608
P 8.113203122852688 6.694987770414301 8.404160741716865 -1.3633313079265876 2.440911238949125 0.9345173233706874
P 3.0625675769676013 4.300952581563881 6.819082545660976 0.8052908502709809 0.9089317615920991 -0.7482203305102341
P 8.37344783932876 8.13410582639261 5.038770489198941 0.9597827828056954 0.46962767613815254 0.3064197038866787
P 1.129230583480322 1.7906618302254926 4.123714802658377 -0.29508396715888535 0.8671032555920872 1.1827128535081504
P 0.2562486936147615 2.1427181540467712 7.733960237713082 -1.181616535120178 0.3413519969874895 0.4600739710114463
P 8.021000114014537 1.7366391051158534 1.5144525923788295 -0.5646823884521565 0.3774230316784339 0.17258452837036728
P 2.4131020330067634 8.987165380267246 7.644826934869602 0.834199562885531 0.4671529893454148 0.6070634245215288
P 3.2618002559600074 5.253232413900191 1.9919959624716892 -0.010487786905201291 -1.4482633299842929 -0.13618670646762351
