# total energy = -340895.67843527085 ev
CRYSTAL
PRIMVEC
9.02762589978360 0.00000000000000 0.00000000000000
0.00000000000000 9.02762589978360 0.00000000000000
0.00000000000000 0.00000000000000 13.21284303074968
PRIMCOORD
 96 1
Ni 6.311782159269672 2.130339211234658 11.404282301942995 0.20270140236040574 -0.5539660304759169 0.0028693511279950586
Ni 4.633086055073147 0.4082491138159842 6.009848689952998 -0.8684847093206461 -0.8901714502654604 0.036062035829879824
Ni 2.615519949299729 1.4395091502103299 4.720103343220833 0.6624282744450786 0.4198218083596189 0.31849951786934827
Ni 3.3707711502993543 4.044024423272687 5.122553110018862 0.7610881876118376 1.2357361997827168 -1.1680858476235947
Ni 4.990598104582915 4.492237032386127 2.5319241314506193 -0.02044849766233898 0.22362221167347293 0.35760034052555184
Ni 6.987012482362762 5.914151339293226 2.729998373334586 1.4944241448110713 -0.6607593713830878 -0.7216320384987442
Ni 5.370128534193545 4.650717008880848 11.532117098818864 -1.0344728154204184 -0.3205119203136867 -0.452899307639878
Ni 5.662136128593901 7.828360153646077 12.273357424083951 0.40927051520633384 0.3178328308196268 0.48791027649742424
Ni 1.8895272845472926 6.598273874112167 0.4313535173387949 0.19046115154047197 0.3457123308387143 0.405005826392709
Ni 2.8229928527347443 1.7623280325501052 0.6167024174473725 0.41766568124856457 -1.2869978261711705 -0.22924135763246326
Ni 0.611372506987533 8.914040525802626 4.856922433608951 0.0654883115107969 0.6533427672040426 -0.42878724508302285
Ni 8.538536417440453 2.206351823144972 1.4687929638106478 0.15201364619755112 1.1657937091553083 0.14648423173888964
Ni 6.703129751468259 0.6510742011275777 4.632264541096445 0.7139665515336866 -0.24513128938984233 0.1094217796689535
Ni 0.7537201156100777 7.634952291702305 2.6416567324354467 0.8521502338266808 -0.8912315160988588 -0.31724301975442787
Ni 7.526918689952812 3.590485514749855 3.7267485033691274 1.0749810599471097 0.4257086061576991 -0.21666557784998172
Ni 7.562794476144213 3.893994304824053 12.647214893442271 0.6560776496367022 -0.924749445350646 -0.3399731143620919
Ni 7.999975326141928 8.916252294201442 6.694855029368854 -0.9184749251958441 -0.04423197323518189 -0.012599691041881527
Ni 6.8385802537369464 0.8557359017895678 0.2678135564051503 -1.0569416859468956 -1.1904819559306077 0.5038871115416547
Ni 1.6042362439784408 6.622675547508079 9.267990274046383 0.9309486321828225 0.20090265858877013 -0.3863023364459347
Ni -0.10561600347519498 4.950993908804941 1.1454396460047098 0.13787052192794966 -0.1921922752989658 1.4041982213442785
Ni 6.392994683823732 1.8609729031372781 6.706693858259493 0.4966525414664285 0.37835531368471614 1.767108404118518
Ni 3.2455489484219244 4.501481321530565 0.465635024757824 1.008634771311392 -0.40350635902904697 -0.15309145264276217
Ni 5.936305133785853 5.666550637765415 4.9297780846659345 -0.5344822107196924 -1.4434054876713593 -0.8948436589301493
Ni 5.239697392046251 2.870748994896925 9.243467630460495 0.5047350613642468 -0.3705936674614263 0.2824552226512813
P 0.4279807962212542 5.557217057854986 12.34382165698238 -0.49229940670405536 0.6190486219078629 -0.5829552186194153
P 4.074248915514461 6.265957929096662 12.68689311575441 -0.15323466308884579 -0.5294713877686623 -0.9232240098450553
P 2.5929057458751053 8.48511092607641 1.627822722735932 -1.8816484788506431 -0.26090706416686027 -0.9751371537745787
P 6.338937258631456 7.753900293427993 5.608456058173342 -0.5915594153486586 -0.1801631120485736 1.3005789072897151
P 4.62244248388048 1.0262876199287636 12.597296634824922 1.0521118686584203 0.319744703130359 -0.062201413229409
P 3.7858704268133843 6.126580409466812 8.172830894466339 0.48643266351063325 -0.2759415899024796 0.43790694799610397
P 4.652016987041786 0.993336784599471 3.8387804407261106 -0.3516883459164911 -0.2593865137572759 -0.10308581014859665
P 0.11902473654768773 5.513451126436792 3.387429828774188 -0.27288326269213004 0.24067608183196615 0.4680618743129294
Ni 1.4392563766790365 1.0725542037815377 2.6116642501848966 0.2270924296102605 0.1446572058324799 -0.09183080606006765
Ni 1.6910639519776565 6.461387979290779 4.725943314556318 0.6895053331675286 0.4776099230126806 -0.0516999994774529
Ni 5.965202564988337 5.3547815697936 9.159129741744518 -0.28800520593523304 1.4833087516242003 0.6172637620932983
Ni 8.69370325515001 2.159263725315495 10.192744183030339 0.2452171642354293 0.3910815030021329 0.20227048547057422
Ni 2.1088354058225005 5.4477300083005575 6.803134182548745 0.40338268896698914 -1.1678127964678662 1.3812629527043436
Ni 0.6118157634299077 9.108513647628277 9.003231666319433 -0.039909948821060304 -0.20164390763016884 0.21432690241447605
Ni 1.593673921420832 1.262161435129794 11.831625747760347 0.12364177992307737 -0.5272769512205049 -2.532575951744974
Ni 4.123548781742753 6.6948062801878185 1.7836810766060984 -0.20444358186249306 0.04767493747845983 -1.119279624754169
Ni 5.671994296314336 7.759614780760443 7.942623720179335 -0.3019652676597509 0.2508154842588132 0.4420561942777871
Ni 5.462047823323095 2.990969891905197 4.810254120393942 -0.9658850390486913 -0.28788693518981384 -0.5684151160217114
Ni 0.6227121081538685 7.4129178273395775 6.9297132366316525 1.091092877907308 -0.43283904655489325 -0.35047555655531254
Ni 5.013275501390362 4.340455554470675 7.203787451749368 0.8072117214427775 1.3057568519462286 -0.9927160431986064
Ni 8.099315323940157 7.21831831874828 8.822294567094534 -0.07213358474145641 0.01067933409071709 0.8251197120714499
Ni 4.717503386898961 0.44072509601149046 10.348496913674927 -0.15103945520973988 -0.7252248980563253 0.26524425808963353
Ni 8.15118806361197 7.142540425117025 4.563518265448199 -0.31931918555716615 -0.07933010248989564 0.10135828593452867
Ni 7.136257197339166 6.073010476084888 6.892360530807411 0.7126912843656887 -0.4702776510173256 0.47112020152327894
Ni 2.157873470893382 5.354853790802541 2.568906704604039 0.12478386394732059 -0.39749511983796054 0.11481646832196354
Ni 2.4114594885371723 5.3967600312405075 11.327793031373671 -0.3878599107410417 -0.6229451287487917 0.5445588782294041
Ni 1.10959455374211 3.3149984761447318 3.718477392320169 -0.21548904104337727 0.2879087895666848 0.47728827800720386
Ni 3.7296915094834695 2.616323408024197 2.710535714187621 -1.013647651144951 -0.2138607614113349 0.3294074230311036
Ni 1.0283007805529916 3.2496113801748505 8.260313105359081 -0.03295742876262711 0.5365072115695212 -0.34394752562880765
Ni 3.609678247875903 2.5946480777158047 7.162100582626061 0.03832486372212754 -0.5162772576758915 0.029603938909361922
Ni 4.158269031791098 6.874997697495402 6.069636852204735 -0.47314417393184316 0.10304338694643544 -0.22417268486030423
Ni 1.019841894880787 7.743247694609209 11.65012081085265 -0.04049538901088509 -0.8017470987837805 -0.979428582061081
P 0.14197567042649895 5.4750566325585766 7.92259232058696 -0.03273631389075652 0.16544611755337313 0.16196612942457267
P 8.511318124695846 1.6247831210221313 7.813058327376721 0.3906642129590562 0.3906040491450821 0.6855021255454066
P 1.7027547277999673 3.2834469228636696 10.500220614783226 0.9162779175445253 -0.5193448408576217 0.15501103826297818
P 3.913439811481394 5.966231714365744 3.8953051161363303 -0.11724590369906258 -0.2883507622001099 0.43840368512686434
P 7.1210185644526325 3.8126553935043463 10.290730939673537 -1.1088077786885677 0.7899521630313815 0.5602081547308868
P 6.482142491735174 7.705458051680874 10.177681588853098 -1.0355825035448294 -0.32717724814900423 -0.298836235112466
P 2.469886284770373 8.402282456447297 5.847093229728975 -0.2856536749839209 0.08073752436038353 0.540921795697449
P 6.887392628154888 3.830042601406872 1.60978642851555 -0.2659693091811161 0.10443461086700723 -0.34820064447820676
Ni 5.18051227521917 2.8801106431808914 0.47607547436284514 0.13297745550170648 0.2933070777641207 0.030982564424443415
Ni 1.684825862330385 1.1718580910752967 6.971585172090372 -1.2671052010123016 -0.8244319419758059 0.31701033491833147
Ni 6.985604172688415 0.6880928847854676 9.08841454084002 -0.7939854525604907 -0.1025070548269912 -0.014521076434310474
Ni 2.7299902484710805 1.63651903497503 9.334187148079014 0.013389276822712425 -0.2735676903536643 0.13937847393204383
Ni 6.160479145538454 1.8222895252233005 2.5902850260131616 0.8183132306725778 0.7896552006162529 -0.8453892609537633
Ni 4.126121655186273 6.91262484315362 10.376785882877083 0.3034817043042773 0.06291283747413681 -0.7034265712343112
Ni 8.312620073847151 7.277882595872301 0.17218481570387217 -1.0942915873502639 -0.37525919125789564 0.6024194979916141
Ni 7.506462089170299 3.7799212212018767 8.093896942744365 0.9958913556027945 -0.42243739160559507 0.17946634309186513
Ni 3.2158300032427376 8.367462902511658 12.47861855912015 0.1817350845213838 0.2070373107315983 0.1485547411146732
Ni 0.10539663216053696 4.820264854995766 10.130709947400536 0.13894601438031554 -0.6017157870563702 -0.1857534616521575
Ni 8.661321160266128 2.318664519674213 5.566570581275446 0.6105141020742906 -0.13536781011075394 1.3045821149118373
Ni 3.621829432630212 2.8072577004117427 11.67046817735914 0.024183282114422867 0.3950733977703454 -0.6555600865703355
Ni 1.1312157182937965 3.3285760258256243 12.77660785858604 -0.5167544544226261 1.0630773665309887 -0.31023753497087214
Ni 3.1642010094761 8.41427114393149 8.08437099166506 0.331423682130184 -0.40459779232101284 -0.23492452406016961
Ni 5.582810377898423 7.689650678348931 3.4280324800007707 0.5875358960115623 0.7094429526317201 0.9542322853011113
Ni 3.2608236918129276 8.192038071794176 3.7472682975344647 -0.45627979407633673 0.1698768996312171 0.2290924907594248
Ni 3.286326735595189 4.205889759561514 9.249664193027625 0.0222608682807294 0.9271187169137711 -0.24164693038566773
Ni 7.470821021257957 6.031808390484096 11.36922893249091 -0.3244413372750799 0.5778667483529144 -0.3629688039263168
Ni 0.6026048765021057 0.12595073130512152 0.38447215214741126 0.31055378065971034 0.007660344758735195 1.2587730269975226
Ni 4.592272157395413 0.10390707385113057 1.612772767235257 0.9017635259784341 0.7022634041641453 -0.7596488840621498
Ni 6.0956698176401005 5.582656908254424 0.39961148114665074 -0.27965914796338287 0.4026828346864872 0.07400971871824673
Ni 7.990460208213962 8.842334091550414 11.260804434530526 0.021938194833988022 0.528021285585697 0.2072579113828366
Ni 8.992914895192223 4.933218512979358 5.660501225504001 -0.050116714150733044 -0.8681232122161694 -0.20045580085933865
Ni 7.876811423019315 8.898151903835625 2.458817512387566 -0.9216841761617611 -0.7037826690221493 -0.8450776432506155
P 8.542165523139733 1.4861097562294556 3.603446477566914 -0.06309615712953649 0.48862298629373263 0.07374283821010524
P 1.8097140420414635 3.3451236644992117 1.6622017285170314 -0.2681748014728672 -0.33133600751238423 0.419458254372613
P 4.854299005459172 1.0066976712535403 8.186307334734714 -0.007294476778884212 -0.01633190439080413 -0.2031464603176243
P 8.498643337626715 1.7071331264670102 12.462948405705195 0.19924558260132136 -0.07140596254681252 -0.5239936524835427
P 6.367049286361708 7.525483297400112 1.3329380238918913 0.2866108966908677 1.276709299760969 -0.18519733203837135
P 1.7655779779524463 3.168624546273732 6.083126833912286 -0.9944276265730745 0.25036888363969784 -0.3823307533926964
P 7.055333556820869 3.854931766613135 5.990386030806033 -1.3404978549718398 1.3439032811089628 -0.9102275975853872
P 2.429758486677577 8.586942548683101 10.185476944005657 -0.014036423488408086 0.3220399269224389 0.9093315681336792
