# total energy = -381169.4233904566 ev
CRYSTAL
PRIMVEC
9.21606614968674 0.00000000000000 0.00000000000000
0.00000000000000 9.21606614968674 0.00000000000000
0.00000000000000 0.00000000000000 13.48864438430784
PRIMCOORD
 96 1
Ni 4.7867602310490005 6.52517756748315 8.230783865311501 -2.901996167723589 -0.29481914353327293 0.4489850601871364
Ni 2.998880267740712 4.57900245247182 0.6776204776500815 0.3043581933719597 -0.3157792907247078 -0.49512247797514725
Ni 1.6953045791177292 6.826791763441779 1.5567106119626382 0.6440040063016199 0.729229391230028 -0.9233600212022872
Ni 1.7838064620825815 7.414251466225137 7.390954172676573 1.6334863730542772 -1.655795578074439 -2.7144509042783316
Ni 0.5686543198624182 1.9254113180395696 9.264108552593964 0.22667539667749992 -1.2631575292184631 -1.1795223715953105
Ni 6.484488635556686 0.9409419188738408 11.103016030803822 -0.2310951230117504 0.43050705598760697 0.6549530491139559
Ni 7.05641005085918 2.831083351866395 9.45292270725838 0.7446449544541499 -0.2493980350859963 0.1809213303708368
Ni 8.192354712798032 3.164124333299371 0.1903624537728322 -0.6412192444676311 0.04465620525679406 -0.3264403699829797
Ni 7.892648242526555 0.6841583549566802 9.058150671730312 -1.2396018533857103 -1.8624863040998956 2.537731527803984
Ni 9.140061224205061 0.834947020803752 13.062092716778654 1.480716565416992 -0.4122316547171868 -0.6337471044603021
Ni 7.658053279403539 7.979141023076918 7.675038489265481 -0.9537820851375701 -1.1071913261310673 0.6475734688204331
Ni 5.12733073850325 8.052491693338009 3.4914817667552125 2.937396401599754 -0.32694790574701754 0.6984684558980874
Ni 0.045582663036984244 6.059498962429414 6.306993653302706 0.23471832158663444 0.38887215405563996 -1.5926801376711925
Ni 8.66518498516206 7.818634015504715 1.3298156720841439 0.9837493209236219 1.0416112262374126 0.4776268922935451
Ni 7.806109381645584 5.800601232943979 0.10049014177571144 -0.3080094169713018 0.0775383006967955 -0.5033638920483331
Ni 8.307389650126709 6.777596402485164 11.060580654347334 -0.7481246854726341 1.6178448098622782 -0.9738747421223873
Ni 0.5930077745885061 8.61816461581012 8.475212370986167 -1.9974972450918633 2.6528560142846698 2.1038442424902346
Ni 8.047763851417676 1.4446460127449234 7.035595565523751 -0.5154023112701059 1.0581932989658098 -0.369703294436673
Ni 0.6479613336578408 7.197461942848878 3.6255183892132172 0.341504977625586 0.3164043259032164 1.666817125995923
Ni 2.944256643838527 8.089180852567738 3.4959054784935364 -1.5669027715967725 0.745874970206509 -0.5557370063334106
Ni 3.3487682180438068 6.918814183665048 13.251365831535923 0.08646979885847043 -0.7612735641497663 0.16904386220696047
Ni 1.0410007487550657 1.3187176852606224 6.944601658279644 -0.5325870505795086 -1.4812654959419262 0.9862869997438111
Ni 4.117931880478839 8.309122270557554 1.579183067593326 -1.651069633353679 0.7468805286528879 -2.185330472091185
Ni 8.716260423607464 2.3293238479469514 11.333752227041762 0.42345246313367074 -0.47878157472327865 -0.4660433012210038
P 1.5793203869785364 8.933842528670173 1.0641680957713153 -0.3396627822105247 1.2652817746503178 -0.1533652751294391
Ni 7.549488020492162 7.0400238852951365 4.944195523782905 -1.8081743209208923 -1.74096362740235 -0.28414212343540096
P 6.750740785807086 3.097243341455579 11.695153808750458 -0.5878081758363425 -0.2823210110662622 1.0905326345284638
Ni 6.763357580327432 6.066908679591108 9.078033412780856 2.8567190410533443 -0.9313024159778155 0.1974985180032276
P 3.728792704564236 4.381428426958907 9.30972715828882 -1.2015369281931887 -1.7824910572221753 -1.630011012911167
P 6.077562452027571 6.4481957671701835 11.727054300023449 0.765109650066405 0.3624988062684338 0.3641407127472309
P 8.27465418326311 2.72272084640969 2.9823254481666455 -0.4644062798382131 1.7350068955982827 0.6450825840777793
Ni 3.0316525988687983 8.286708797750043 9.001269111628359 2.3367861889027366 1.6400773960082335 0.11938403308798795
Ni 6.468766026753392 8.522741467188014 1.5634143784594239 0.6960475051614206 0.6985533023024099 0.012550068750868709
Ni 4.506702413748581 2.042962241419419 12.683169550159743 -1.5023282301494965 0.3276693572940744 -1.2822531123973335
Ni 1.8117127102985113 5.2235833330762915 3.0747902395637463 -0.1445764731932155 -0.44134708402590445 3.0655774641540816
Ni 3.922551278702845 1.2641217095568023 2.6761474562646437 0.06429737652648926 -1.1029392357229328 -0.07255730254243634
Ni 8.803997373084231 5.67205554268117 2.304076434807077 -0.749694086842283 -0.7706200383616728 -1.0305583108573606
Ni 2.8506582763084802 5.257424727874473 7.141643916777344 0.4784164780743761 -1.3845030569081964 -3.356449450114148
Ni 4.973099871959794 8.628956629238408 12.814104044761248 0.832210043259328 0.4559208680750213 -0.3390752851381709
Ni 3.822335775697554 5.898356046294826 2.4447624489717503 1.371406371625238 0.943732157100736 -0.2699784303405092
Ni 8.946910910430473 8.512954004966971 5.9691566310600965 2.7751533643647113 0.7098864679270419 -0.4626283620021839
Ni 4.103315199610125 5.312923878058201 4.6326344276593305 -0.47510849674706557 0.0040687707527349275 0.42249189899261436
Ni 6.254492489428304 1.4330245533657002 0.3112440634489948 1.8053281097213487 -0.3483608242051549 1.1225469826515313
Ni 4.703179727393034 1.6630575637585687 9.032036948375016 0.1757338726326264 0.42170102766020273 -0.32985222387800617
Ni 3.417934794285733 3.883548886876618 11.403353801604624 0.1937609053376663 0.5514761741745277 0.8509726685788118
Ni 5.391306520421636 8.684372834827041 7.881252576767309 -0.17706930361459824 1.8262442910487255 -0.9218698098100059
Ni 1.5375347431836142 7.666108121193739 10.549212479889604 -1.236187942608155 1.4327289817941198 -1.3276392538416166
Ni 6.275919843160813 4.29558998710317 1.5597860132273857 0.5309058062223437 -0.608545408383694 0.5852121329743922
Ni 0.9187680637854899 3.6926657253679207 1.6818048854629424 -1.752892260519136 -0.956880521557236 -0.6334707108704639
Ni 4.822103844624988 7.609862469654169 5.643284827463042 0.09854575618639802 -0.5290093605305793 1.4955695712694244
Ni 0.6687795054197179 3.8632090289464474 7.039089376190415 1.0170561626058676 -1.2308472471215317 0.7248559447526807
Ni 2.539874094558949 0.14858786925725553 12.308347532964905 1.310620607796433 -0.4283517002075011 0.748944353160452
Ni 2.3367151329764013 2.187470158204682 5.4468766343145 0.6358294409106275 0.7372026392434917 -1.4845032861529337
Ni 4.897113406787952 3.353136633385402 3.3770034798202744 0.5236560666384659 -0.361047675644204 0.42531008516769975
Ni 1.2762684847049512 1.147096101945879 2.9503171289200316 1.6692622451023058 -1.2499009213188732 0.8163573924977876
Ni 1.151658054676026 7.618378114750443 12.70089388852463 -2.2346588860126677 0.05057179941028064 1.642865757386648
P 0.8838447028246432 5.613118799834118 13.407442676123516 -0.5699693478827087 -1.586076516311746 0.08816261317986107
Ni 2.429281301100839 1.9449032978865615 11.014773119296986 -0.30761166731225087 -0.28494610739393506 -1.0868197044532508
P 1.8096206632889287 4.427103250657106 5.269595464794537 0.5982471117814794 0.3321770153564408 -0.8077048590291122
Ni -0.05296565360692522 2.0078674616287118 4.797816745574975 0.20989971988105788 -0.1373367609116667 0.6946112869355263
P 8.409319341430601 4.38828518015331 8.779475264348118 -0.13436045189216217 -0.6139367546025943 0.44144247195318814
P 5.827558226349393 1.7735674126215848 7.0515126333222105 -0.7672873744440141 -0.1410581756273119 0.06288429822904655
P 8.932367958090731 9.066314263100745 10.999935252841356 -0.061442423576197405 0.05308402430917309 -0.10955779102618551
Ni 2.4881811796834037 6.921062903798696 5.32636919692287 -0.5626126504073213 -0.9767060409235953 0.2456138854532157
Ni 4.618539376133095 1.462654205946352 5.005406791748745 0.14400054608508747 -0.8625845417861273 0.8570412433703949
Ni 1.22972735079133 3.4802814815977423 12.74435409153383 0.8465598842230969 -0.5892600777915207 -0.40187139452878534
Ni 2.41469226843049 1.8136204359856636 0.7326643541674072 0.016050625704959454 -0.029414191496059023 -0.1211318690170301
Ni 4.19586293560232 3.5052017243903033 6.146289421915501 0.7185971083271624 -0.5123658384366272 0.03341354246343923
Ni 2.0256452531771028 5.677658910883046 11.463229661589455 -0.45514002404493875 -0.6035255865715994 0.9131270306203695
Ni 6.06972879582429 8.036077879575602 10.03607758555638 0.6942065952979399 0.6885247144218142 0.29690199420423063
Ni 6.819888929916769 0.05573876790288733 5.629107752948324 -1.6845181428201117 -0.2799417122008082 -0.5654480629735875
Ni 2.579309641492886 3.0975382555714677 3.1542115325790756 0.40076993393449045 0.2113364523275844 0.544928602863997
Ni 6.192597389356249 1.0546405266148993 3.253703574393828 1.4495095436865684 0.4247300442945136 -0.498942880162502
Ni 4.1100152796804625 7.214695986496099 11.012169580617657 -1.0368731973317948 -0.45170503022146075 -0.32724383972088156
Ni 6.890152218027154 2.442847350431701 5.236669225362221 -0.8550905474019272 -0.08389895280750066 -1.4157581582677359
Ni 5.462850841722911 4.386644720383681 10.330776967104043 1.780407178109953 0.8279363555846385 1.9627534138527745
Ni 7.551515555038893 8.286358587237425 12.830398049664076 -1.24396784366389 -0.020852160858660863 -0.9263759252104755
Ni 5.700864965377007 4.089279130907067 8.028710556318067 -1.1265810435115888 -0.15925644380289347 -1.1725356558648323
Ni 8.641656368353846 1.1931303522228172 1.7436769453696943 -1.783703846583354 -1.3403590154011302 -1.092784663787434
Ni 5.458242808662157 6.4769591095354135 0.9360214611715673 1.0115676286874709 0.06888653855906847 -0.5523868589142551
Ni 6.407165840797225 4.630391237165355 4.662768199056829 -0.7676398726874264 1.166462710197875 0.6388044643785514
Ni 5.4412207345357295 4.616751459305521 12.824139419160959 -0.04461326783400058 -0.29475872260898267 -0.6177137051465232
Ni 1.3228280507508154 3.8373026670788852 9.920695202534924 -0.06962444516635752 1.7653166023254179 0.18753677880482542
Ni 8.800808614206188 4.635404777135456 4.4076435270415395 0.6778777762309293 -1.0021730748464481 -0.06880529169917182
Ni 8.357331512439169 8.796126852616462 3.6629623442582964 -1.0610523656811597 1.9011055591339903 -0.7165191427522112
Ni 7.659020966346298 4.141709331072332 6.61864875330072 -0.48517128029970635 0.6848596068654011 0.5233488198106923
Ni 2.681700136102853 2.543099717701477 7.957652843308008 0.7996753038564163 1.0118609915581736 0.6604302701784432
Ni 3.0132204666257802 9.246386979048912 6.662513541612655 1.3382393979549663 0.4708312095279504 0.026620173690689638
P 1.667204793513248 -0.15237382921997147 4.999404367883805 -0.75240325824333 0.7363711444811318 -0.6316771093051509
Ni 2.382795463583947 5.892798758423556 9.036960170897126 0.2849353087606577 1.9351431083346737 3.6716666976877996
P 4.285774876683763 0.37481095791549196 10.713989290895903 -0.3253563928901816 -0.8494678018985112 0.8475045075245534
Ni 0.24180377004325979 6.18246893268871 8.494797433100986 -1.7869578347442772 0.18039836798783124 2.3019734520989257
P 4.419794910222749 2.9202764397903604 1.2702070780168349 0.2835194022497375 -0.2503051202812979 -0.4785568603069823
P 6.098105063412415 6.034477342909516 6.709251899341275 1.1584295554807533 -0.11520984710564029 -1.254861350647942
P 6.795079279917666 5.911940527757931 2.9962463160431847 -0.7714137379075618 1.1479129722201455 -0.4135184918494104
Ni 8.794320503656646 4.724017252893766 11.612657114470382 0.024269671180642074 -1.07632857511394 -0.14296696261425057
