# total energy = -381166.0799098976 ev
CRYSTAL
PRIMVEC
9.29931738030881 0.00000000000000 0.00000000000000
0.00000000000000 9.29931738030881 0.00000000000000
0.00000000000000 0.00000000000000 13.61049097549004
PRIMCOORD
 96 1
Ni 1.9939131270876802 8.03724188708216 6.821986638817359 -0.366414339272756 0.1080153862397301 -1.0161822446413469
Ni 6.52170424251037 8.686185448216813 6.549490602717156 1.3143206823558398 1.2501899133142016 -0.5371769839430361
Ni 4.159221972037232 0.2675125319386171 0.5324863502438834 -0.05938811215032998 -0.18550072221140312 1.1302770043059374
Ni 4.713461285398823 8.347336923044503 12.26569262704423 -0.4257577142280796 1.460900044911697 -0.5900355225049645
Ni 6.859892516151662 3.483542873555018 7.020522414331004 -0.3577134690646484 1.138732077051826 -0.28159210332003765
Ni 5.222505916496366 7.920107685889164 8.158985759879743 1.1493941847513625 -1.2435945194848712 2.3739972507353952
Ni 1.3948697027902468 5.106106361373094 -0.1528324205911928 1.0498888928651724 0.407785188910059 0.24725604904232903
Ni 6.165828667291666 0.22633143503777023 1.927041736108096 0.22208083532828204 -1.4762634147416445 1.3189386407438253
Ni 3.2747638999932542 7.4240727997478775 0.4975804326829089 -0.0768764987430805 -0.41882987675999483 0.12874002038159119
Ni 1.6388744904294215 4.640452344975973 4.395059169258193 0.14394655291870048 -1.218791344398262 0.18414343685256027
Ni 2.7908088270743963 3.5087533228591 11.571448371427872 -1.4436993647626943 -0.3885741631992469 -0.5695152910644256
Ni 0.6004067042192255 5.0388815963346545 10.959875046948838 -0.7452921011198455 0.798668716968773 1.6896081557485096
Ni 3.701714157628446 5.6038709205393005 12.538433235190428 0.07465120895698757 1.935860189006356 -0.42504474732145503
Ni 6.572608705620124 6.215784600032916 5.882916465840854 -0.3368451102560715 -0.31841955656103227 1.0326630159051893
Ni 8.369766876464439 6.499813649496055 -0.094397370300898 1.0042063032263933 0.16942387125419853 -0.3836345598057845
Ni 6.2491319520079935 3.581901753042024 2.7254188173468 0.8021975560576378 1.7027341516075063 1.048518237769891
Ni 7.5279833716858375 7.285568767311509 1.9339148615528203 -0.7680509920829159 -0.587587318074788 1.9719667049209266
Ni 8.296116283145249 9.118454915369503 0.8347188133967092 0.7430688682162816 -0.33422207081092764 -0.3092705430719125
Ni 5.26377628684366 1.2960365581189883 7.993482089483408 1.12575211985239 0.026307013325645015 -1.193225580114016
Ni 9.023536783297661 3.292599990648079 3.1482559869232696 -1.6830662408649335 0.5737658388106635 -0.385461071491562
Ni 4.84412599331902 5.260939995055484 1.0873663865700829 0.7224529917381428 1.5279397600700138 1.8030346857014818
Ni 8.575458476669892 0.547679574911168 5.975100598615241 -1.330067146556819 0.15338430129283262 -3.8748085300197332
Ni 9.100144559530426 7.243954322222699 5.895070673601989 -1.5883915375981679 0.5646646478403436 -0.2683673770996475
Ni 4.608286006302857 7.638673145963406 2.7319246197566622 -0.42379647673665083 1.3209423014374155 -1.0737438451058992
P 7.969356870512705 6.17938707197088 4.0384098908369435 -0.3306253545986048 0.4454878456671553 -0.6252236403703232
Ni 8.706151082542105 6.994258352372495 10.350424756618134 0.4945308671377354 0.05293490032581852 -0.4790348283846653
P 4.021796660412104 2.8275225319259327 6.3925757818144575 1.0545379616014097 0.5498154986426531 0.31620198008442313
Ni 2.8701320039699394 5.935391583649044 2.3716690660716275 0.4849362814707648 -0.6089125619151255 0.28776326512775596
P 3.879954173051292 2.126539990966254 9.751372033003362 0.08769158708071349 -0.21330463179754877 0.994986841510654
P 1.1586112464938607 7.108407472699904 0.8920639836949573 -0.6208239686407308 -0.21710240827708419 -0.1681707155733878
P 6.99850814039609 9.2515002485283 9.00436066101439 -0.09058047859273431 -0.016668204684300327 0.1338688569677243
Ni 6.706667664368793 0.9447548456653956 11.169748550161316 0.39027417660948915 -0.5594501935189398 -1.7564393544404462
Ni 4.616032337645645 1.6401298982700896 12.33264306222119 -0.160201324214666 0.5776649167547535 -1.730746320549716
Ni 6.220843428664941 3.6606297736279174 13.508045156101051 4.986721687106502 0.3515569625449494 -1.5386764297612274
Ni 9.095522798813299 3.023719529129001 10.420735965081146 -1.5611604697963566 -0.9602715495166558 0.13812043315522662
Ni 7.582207691085359 4.969527287625749 1.5588910620028602 0.5035343561879263 -0.21706538439156164 0.18052949424905684
Ni 2.409415925079447 9.114316719153967 2.3914040773269285 0.0399621422152344 -0.9186369046950049 -0.6108684000899156
Ni 2.6485943670200536 0.4093392104599535 11.863447865781652 0.6363608879340654 -1.184411838477128 1.2067367272265734
Ni 5.25717377153348 2.3161902687631724 1.4087266155560205 -1.241944642586274 -1.981121631947317 -0.7518512423946019
Ni 4.555456584504078 -0.0335575165469235 9.911908008077587 0.2087118702205438 1.1459892728348715 1.4012483946873353
Ni 3.165208642430957 0.5443736675974088 7.779293703025966 -0.6524703919014182 -0.39066806961379813 1.4109309120824216
Ni 6.425698090309949 8.076745387135182 4.256899211563342 1.0024396982442736 0.2212747944872189 -0.8426101555467295
Ni 8.606983162446669 4.789008939455024 5.720557824568325 0.9366896484316578 -0.26271814923367015 0.0513349028285503
Ni 0.5716941320055468 1.2719699248475154 2.0612271655725665 0.04427876731271729 0.8946762801143495 0.3542057130217061
Ni 5.437580527896147 5.8859564126787385 3.8439834836550846 0.26829487199049923 -1.6049844089598424 -0.6661700008756979
Ni 6.789626874343606 7.219366927180282 11.633798434317583 -0.7704194923150924 -0.01828080058705884 0.3682213105745078
Ni 1.090456549721594 1.3533017542881274 7.0968911981081755 1.0570794970763409 1.1152890155375372 -0.0323997564869442
Ni 8.813837177319408 1.659686362632496 12.686284011483504 0.4494126346428583 -0.7627079826034477 -0.36122765286549396
Ni 2.9974768556003695 2.213525805348542 1.075740380033763 -0.9198571502553514 -1.9755708773324172 0.4685951211085801
Ni 2.5524673236942346 5.992442895519402 10.38812511903926 0.21560499779595124 -1.46151016769187 -0.29894576410713675
Ni 8.74065154986713 8.481991038102823 12.157951666294633 0.10439810120211698 0.6836889835960677 0.6162363492700484
Ni 5.838641486061561 7.472178168338809 0.2871564098840034 0.815042530341106 -0.4797593652555157 1.3804839084464742
Ni 1.4227955527571068 9.313824273329464 0.21317662073103688 -0.12929666421600958 -0.46767080952209783 -0.09872187675294611
Ni 3.7142124401310967 0.8634146468391789 5.5225930271392505 -0.23356466759816552 0.3806129993706413 1.5816948423042825
Ni 1.579740131475288 0.19540562529758046 4.593063953751823 -2.1230123307782534 1.9479132635161487 0.8722634596367882
Ni 0.622686008698281 5.63726476910107 2.83381352010528 -3.6469239435254805 1.3842755142784224 -3.31888974669282
P 4.001486951345296 3.9667725997214904 3.142090539527989 -0.07562565705511493 0.6365814885853037 -0.2125263588706275
Ni 4.320630223077787 3.8317651106043162 8.507808732829096 -1.6704464952183942 0.6592046253014582 -0.9110418659565666
P 5.641412264633943 5.366319859132893 7.740735013614515 0.7647527809476184 0.5402772201349146 -1.3601626803906188
Ni 9.036844106408742 0.5802801917039823 10.30357758566307 -1.703992963715272 -0.4893896892564282 -0.518349823934204
P 1.52409301652301 2.581416098568306 13.177527889332108 -0.7762237577016955 0.31226716380639125 -0.16302388126512568
P 1.4524231777968724 5.914189140117762 6.005139253481358 0.3653977250827836 0.3603987292062954 1.6552132232084076
P 7.213099187294279 4.172631587639033 11.257836333648191 0.2330044242193213 -0.25546506721568263 -0.18809059442576637
Ni 7.662014432482493 2.04743999768683 1.2927901664361943 0.8203842542689935 1.4526136365331888 0.25164775035212145
Ni 1.559746599197982 7.200944979533146 4.169846442096218 -0.31971924920906225 -0.5436258248921735 0.40269646153324196
Ni 1.7478345916820688 1.567725413474228 10.323162877909226 0.6856962438340836 1.2720134369471965 -1.9485480688866699
Ni 7.51145848477571 7.076362025152185 8.144191475926272 0.41127469012055623 0.11201216610394901 0.022169079897871497
Ni 6.471618119326385 0.8102365006402148 13.35860140674793 0.13438256337934923 -0.673700247814472 -0.0006597450711859607
Ni 8.392847782098054 4.850877297706613 8.916885702540108 -0.32517333034509804 -0.1147827868705507 -0.08632967373618035
Ni 1.6553993773395481 7.233892460862678 12.124919561177322 -0.7041678202757098 0.668119668402901 0.29515750070929814
Ni 4.197079492921376 1.061052108297947 3.2830003053597703 1.1377149486412215 0.023926171798294277 -1.0272266753809665
Ni 8.784367640674393 3.94128317089726 13.337641675399176 -1.0842488584022811 -0.34917097881127607 -0.654539358615305
Ni 1.7492201899654727 4.01737948467642 9.19881403621653 0.13996699944566218 -0.7005245670961677 -0.8002298908083058
Ni 0.17394838047122915 2.5195198423647027 5.1729396251515904 0.3301178188345669 -0.10671955024644202 0.4535379696651415
Ni 1.6297146628512138 3.5696731507421835 2.060423704554539 -0.016400552845210463 1.5539228143973367 -0.5356466633414387
Ni 6.150345303923427 5.807302786631552 9.732481399762376 0.12018570305367687 0.26207845876714214 1.0246221478785837
Ni 8.984321562082126 8.690983895963369 3.264135710207332 -0.3232488596288755 -0.22151133597805722 0.5525346973460291
Ni 3.601402421500401 5.377246557005374 5.5416064113691 1.2319222253532656 -0.15666014383062696 -0.26354938688571383
Ni 2.4397595975542603 2.5443025230712233 4.028364768248132 0.2733578883357034 -0.6967180488658841 0.10458347774004569
Ni 0.7075692474303829 6.654396201610312 8.369145682066241 -0.13711538892948 0.010360260188401513 0.35143020715909795
Ni 9.172167772315417 8.902859542198778 7.740435575596223 -0.039435066067170794 -2.2744258814979608 3.332902516032144
Ni 4.210740190091312 3.628881904235023 13.40833415587306 -3.901684528474971 -0.5925171512762376 -0.7012370197821601
Ni 2.792947670062201 5.813114859967977 7.787542197505023 0.6865974154921144 -2.1285635996137855 -1.1052586278847287
Ni 3.1297689440547654 7.595793993716588 8.928441034264658 -0.6533412245421458 2.501692631902556 0.5427547351411298
Ni 2.0507319560245816 3.601727897607241 6.5738538842117205 -0.12394157055168331 0.45165257971697054 0.19385423638242097
Ni 4.965017118716683 4.256743912963792 11.062661331420598 0.6542267124708926 -0.5977912551909834 0.08178653445018817
Ni 5.494585343179813 3.6220562053087244 4.879197438728616 -0.44510577973738824 -0.4812359498010422 0.895095369929639
Ni 6.216491348150625 2.8686441131958142 9.329991136522068 1.8283291986022125 0.5415928536225446 2.153891536855613
P 5.795743735180068 0.7523250019160652 4.960683636837043 0.8378178763644086 0.08633867259724486 -0.25106359571387726
Ni 7.258582148395815 1.608856294061448 3.624419161844382 0.43649849768435145 -0.5814904611484307 0.9445603094289862
P 3.2736014853259694 8.34351490361847 4.348483538369409 2.079527263011425 -0.531392258940459 -0.7771982057998228
Ni 8.028751610352309 1.6893976815283063 7.953616845985929 -0.48784059960175336 0.008895759827733067 0.8461909309194523
P 0.15490616835762963 3.3686684064752233 7.657724657394343 -0.7739123359596993 0.05450070215104163 0.03309421145080752
P 4.342846292198942 7.071098611538717 10.742365874269895 1.2858022632011725 -1.3213418508686792 -1.0012266517727788
P 1.3473222932396123 8.660789012565967 9.613388762337935 -0.34438615582812304 -0.4031101520318929 -0.12776634361441222
Ni 4.291951128406526 7.870319140860003 6.2489710738180415 -0.5971700766672167 -0.7062069621929258 -2.00857972815827
