# total energy = -340868.12259188486 ev
CRYSTAL
PRIMVEC
9.27271514562564 0.00000000000000 0.00000000000000

0.00000000000000 9.27271514562564 0.00000000000000

0.00000000000000 0.00000000000000 13.57155591603496

PRIMCOORD
 96 1
Ni 5.933248737943139 5.912403674463889 1.3535549097777304 1.2477157407420965 -0.5055573001552262 1.210609065697786
Ni 3.8363262245383156 1.3071190072459749 5.949309080445834 0.2037586399803265 0.6330377370981033 -0.9272146190616869
Ni 7.8117802659995235 7.558616599135434 1.5720608767930466 0.6598152623022636 0.33789514878714066 -0.6435710325292593
Ni 8.571836902211116 5.951738531794395 7.914836294025339 -0.29833615554759585 1.1295771500254355 0.6018284013748344
Ni 7.307632020312991 3.7476976138912215 3.972190973027779 -0.5260178820024232 -0.8227540400527508 -0.5468528164699034
Ni 9.009453417264366 7.273211701970031 12.94438662113751 -2.688861742955318 1.1560091189647188 0.6575537199615966
Ni 6.4626836776278545 6.0218402577299495 4.203721395631598 1.797026274723873 1.5299035686646039 -0.3129171386855643
Ni 4.761094098553249 2.552759913572276 3.822863169526962 0.42101351467487486 -0.7180882870115439 0.7282233185630168
Ni 7.935246467167767 0.1355439125480125 13.439544969562862 1.3030456236626526 -1.1322554681885466 0.06403178156992843
Ni 6.141986826902831 2.382503592156572 8.35389007991457 1.0131545135586164 -1.5934933776011073 -1.0792048682204705
Ni 1.4695769752871022 -0.09456314829243247 12.815430045375821 -0.42433640840052084 1.0276550211676365 -0.30906562614995803
Ni 0.9065646070593661 4.039101957707458 3.6217324160113873 -1.1229689006802983 -0.3425853551739584 -0.6023981578353754
Ni 0.4538530391422933 4.8636966908121 9.803046682072669 -0.6679548606902626 -0.4380388455882778 -0.21662726841287852
Ni 2.9250501509514555 3.0503616224187953 2.5045761042496673 0.21192214962772535 1.338644603813185 -0.4863195349715366
Ni 1.9149547528546471 6.950817944387045 13.103473029978877 0.8591482624110688 -1.0910116310474114 2.281217707608813
Ni 6.616898201971004 7.269706615673254 7.967385697603301 0.0007775015959728544 0.5093455635530648 0.10346530497520245
Ni 7.9243602996746 2.3136351373254387 10.272649427762783 0.2117591416872998 0.45259051815020757 -2.5650947503082855
Ni 0.21011879623374097 5.041556638585894 12.674706394189238 0.0897636391183938 -1.5879230826021813 0.13349373301649267
Ni 1.7973674530413175 6.641322533467598 8.151388819111526 -1.0106538586239497 0.42194014025420234 0.9162959152666542
Ni 1.5024858410735153 2.419242089267242 6.783701364294327 0.44046056765589303 -0.7742437511571892 -0.24225705316584084
Ni 5.464707718128634 7.375508294631544 10.250487638743476 0.6984885105027455 0.6352262601089897 -1.2716393414372293
Ni 3.824726057984694 5.997109926636018 9.563088288740962 -1.4791029410729688 -0.5367789771736691 -0.875544701491221
Ni 5.0029914166062674 0.9315740468769302 10.321046509532023 0.014712623619826273 0.2562361410537522 -0.07207367803779846
Ni 6.951671034173562 1.6682727138250744 12.08879505609406 -2.225306755373806 1.2265203376114038 1.52073424346051
P 5.9763483175924055 5.0412599117036265 10.330220006551606 -0.4303417340543363 2.2167591229141115 3.200812348231397
P 2.2133414511192266 6.095280161091008 3.514123484885789 -0.8549375667638308 0.20688175899034048 1.2022498950998135
P 3.151851488869146 1.0508582535482238 12.03932697573414 0.5920026735336643 0.5249447035429023 -0.28507491966231546
P 6.216511637927177 2.1230622971895228 5.849869411297647 -0.34755735446725305 -0.21164215649346133 0.3927444925268526
P 7.364408854691748 4.149781084793012 9.052485306093617 2.011977698096225 -0.2753186116065 -2.0597392817512206
P -0.31553473024508527 1.5898719079011172 4.284404216734489 1.107522484218241 1.1839814358079288 -1.5918285883041747
P 3.8054480833524162 3.3104798255860164 6.881213235979287 0.07229093625492711 2.207098202785579 -1.1441720171204746
P 3.2681127904273453 5.363486760415339 13.299636390031003 -2.338877524214127 -1.376778948791061 -0.19146928109001218
Ni 8.084258998356175 7.5898192853488124 5.2898530573093 -0.31841107192060003 -0.32782825146944183 0.2193356684829771
Ni 1.7796194763957285 1.0613642397234861 2.3354612540591835 -1.466265165878352 -1.0334839691445878 -1.5617189134029879
Ni 8.006229101035052 6.254409224421703 10.510939659653245 -1.1579179059516573 -0.6379572858869077 0.6055241050588669
Ni 6.891797112961144 1.3617074808680134 3.8846945608908343 0.5159514989053565 -0.9916523778207826 0.31809199801828447
Ni 8.846745085916327 6.064522565201029 3.470694723851507 -0.5400000552141281 -0.5006848025542732 0.060348419181070256
Ni 2.5306908517036755 4.2078560992816865 5.16061088192343 1.093332308760788 0.6010634981843519 0.6170416187801631
Ni 2.0913032480718936 1.8656517268229875 4.570330240486874 -1.3089337070123135 0.1837055779841933 -0.5002374306042094
Ni 8.473768667621904 2.9266821488039234 6.930965988691883 -1.2473023073537617 0.2254808621487665 -0.39952809110758936
Ni 0.6834343370382217 2.9004218197233027 11.331637997885121 0.1668892777578029 -0.36923458233037054 -0.2722921660753504
Ni 2.416061547997944 4.160222161962778 8.763099632348302 0.11107731299450548 0.5772879930313091 -0.5420281413877504
Ni 8.940928052890856 0.9315184105865053 8.162096950475332 1.0624875554657895 -0.0018445094079065007 0.966272247184781
Ni 4.955079297835234 3.4217894972963863 11.596568740174108 0.04563065335492141 -0.18580642637727998 0.7198687759507344
Ni 2.254095033855571 9.060648077170478 7.394272560848897 -0.5500175873511302 -0.6476822264841555 -0.5285900136049736
Ni 7.817260440606391 3.3324839784491207 0.9521520561621398 1.7889486399220609 0.32354145116862987 1.7576097205994632
Ni 2.949520846023404 8.010272004805937 2.3572159708868825 -2.859216610664218 -1.1473879529546112 -0.6014519918720221
Ni 8.675505856703113 8.323337411027659 9.764666914394459 1.3537457211206814 0.5069924899398559 -0.8045436876923111
Ni 4.6604573218894165 3.9585220637418534 9.198270932437373 0.02468439012055749 -1.8636723539881968 -1.3055123400355904
Ni 3.653894828234598 5.474212251076246 7.244822357509146 1.4011694618202837 0.07755038488165353 -1.1800340211244065
Ni 3.903497772511485 1.299302108441256 0.9609064264605204 0.8412844947567705 0.005195942378642665 -0.5561481257289002
Ni 6.519859238754657 6.620227106681436 12.585284039132079 0.4073457873797952 -0.18909949530625497 0.13890744783289627
Ni 4.452933958604003 4.103751327181359 0.7205548700098107 1.4052847695402377 -1.9200098522376614 1.4482918692293831
Ni 0.25857336883641857 0.2190864389787509 5.706934217566668 1.7170631666356686 0.01941439997086979 0.5157123863113571
Ni 0.6127039210208636 8.203385568871264 3.5002403758817264 -0.4827955809786782 -0.059819286150477616 -0.3729729663268802
Ni 5.005393049809616 4.6531596951286645 5.182420307770047 -1.4578093218015151 -1.3722661485223722 1.4053870994460569
P 6.984579899959976 8.234106073900959 3.327256948963688 0.3490290539167731 0.44102363924821464 3.1512869878077603
P 0.15838910066804252 8.00357710452479 7.3536385961369675 -0.31800046674574267 -0.10865147716183222 0.3577358376621516
P 8.24030952028335 5.540836708860235 0.9559455238976207 -0.21156553761925498 -0.5684683378571499 -0.9675225746521143
P 5.358052949383825 7.090214670046992 6.230497674068527 -0.30712675725603233 -0.6580147187584151 -0.929701904259915
P 6.023657709883835 2.565862259967374 0.38980732341950436 -1.8685687628485497 -0.4056514303965078 -1.5677558636256872
P 0.8316651783461583 6.755386201554009 11.193846379203935 -0.6885733082715625 -0.9097480868458075 -1.5088336353681822
P 6.033264242697225 8.411873294524044 0.16898874126552038 0.833547531123829 -0.204259490876145 1.4263246209296725
P 8.629105190488627 4.680319477571157 5.291603745914674 0.9972108457451665 0.9316888527829568 1.1581498194568054
Ni 2.434152615101154 3.151322944110108 13.214881919740508 0.06182551794722901 -0.003240618424484742 -0.0354601405798228
Ni 7.387395915352362 0.14889847679303717 6.637563374777879 -1.922187833725586 0.7989654222735854 0.23155920713236253
Ni 6.951782306754413 8.684750753628741 11.341084112727787 0.583790055815885 0.5708561213630362 0.14784640219373893
Ni 7.0786608670687245 4.1204607597390135 12.426604702482319 0.24207861860644758 0.7368987348498277 -0.5191556076649511
Ni 8.695720375557546 0.9040776648773666 1.9432430247212604 1.2488840500185847 -0.07525541819988976 1.7875918687838506
Ni 1.9475019827532976 0.342105695280579 10.015401129909987 -0.2601802133031648 0.7197625893901733 -0.2621627909508324
Ni 2.396171574170991 6.854659889102428 5.834370995328244 -0.5664736760246244 -1.267837965413268 -0.6523186968149024
Ni 6.527537046833313 0.8431716904775642 1.6264555506701046 -1.5742355578127598 1.3587524303066536 -1.0702949673253503
Ni 5.3146288247070785 9.191087360071993 5.001525400353568 0.4873844859009412 -1.829112613735456 -0.5881023100379936
Ni 1.1453008565447353 5.586579012304692 1.597371679850413 0.7168703554440429 -0.061438309811139354 -0.4039868982098913
Ni 2.5059141570343892 8.760926107935697 4.746339354332528 1.0566542366134641 1.1290297621623975 -0.03842179431130802
Ni 4.273293649536608 6.689985742159369 3.9777416202691844 -0.7600970273431619 0.3887060607914209 0.2506442487882716
Ni 2.319143130077518 4.789162607072684 11.203984238590888 0.0945335497032114 0.8692226159279351 0.9522648771620955
Ni 6.847102626319693 4.754121016819977 6.790473228110562 -0.3436287088368082 0.07124989658492245 0.1362378714205331
Ni 4.182272678401237 7.111133915246808 0.4246106048948904 0.15986322414895693 0.624423255956215 0.6365717183932909
Ni 3.43009784999986 1.7210993715836533 8.081386311227229 0.0416896664293024 0.21361856349354177 3.8169913619009486
Ni 4.883299210471857 9.188592999717937 7.629073470058202 0.8836146229835491 -1.254329389403872 0.5504284496363036
Ni 2.8040690374221984 7.6452979396176515 11.156647028154245 0.249217543644074 0.777608296754048 -1.9004224170240367
Ni 0.9158234130576005 4.702740902612449 7.0091924675725075 0.19525883003943145 -0.16894513184556711 -1.7323584022318421
Ni 4.6226710079757405 8.647928802082435 12.294377640115146 -0.8702762540034302 1.106102721052579 -1.3282187804941707
Ni 0.32674637003723866 1.943765078579749 13.553749582918348 -0.3116992071180632 -0.29968932714138063 -0.6704058933339164
Ni 4.366234072691643 5.956921979518995 11.698246842740396 1.7059225766378168 -0.3354361457236868 1.1888061108900816
Ni 5.1116027282310235 8.50052045060128 2.330195279170453 0.7420375987382898 -0.8400652776376888 0.0753088971456445
Ni 2.9906082465022985 2.657532321157704 10.555385637530799 -0.1590183596501584 -1.4633248523031057 0.048758143240309575
P 3.4247196752587725 7.913891404359621 8.918399064354741 0.05408341210796491 2.1287343208636953 -0.02105142135366052
P 3.6528470114315925 0.6395484311509473 3.197445428872469 1.0997929767844672 0.8845487047620444 0.8476101798644823
P 1.2584557985542033 2.455683859495646 8.918629027688498 -1.2536979264674601 -1.6780538752520067 1.3779326027795302
P 6.7939236053884215 0.07146759686548977 9.116814766897575 -0.5610296221909176 0.3043936745955855 -0.48458635433051384
P 0.9422098510631846 3.1863645343628146 1.540846136050076 0.43267578150415154 0.19934354163176637 0.3087462951373263
P 5.157354304390551 4.528117132398379 2.984113636866682 0.21721733658839362 0.6262299701476506 -0.5010000198018468
P 0.8156298721741536 8.251065869765526 1.2944969874915464 -0.04692494668631273 0.6293055237491807 -0.5260271379738037
P 8.981727999202553 0.807527373745253 11.594302488610793 0.48277321238117504 -0.23852278293438922 -0.48053712396180465
