# total energy = -381165.6989933814 ev
CRYSTAL
PRIMVEC
9.23506075988218 0.00000000000000 0.00000000000000
0.00000000000000 9.23506075988218 0.00000000000000
0.00000000000000 0.00000000000000 13.51644491634376
PRIMCOORD
 96 1
Ni 1.8481480999759003 8.301636388215927 13.366844747412882 0.363385065528129 -0.2926974692045798 -1.526342590786223
Ni 4.587534990776815 7.889734200285879 9.471770325326139 0.05986350912485174 0.18812710409065664 2.086972920656193
Ni 3.2404443570206514 9.529382329478032 11.522526427207723 -0.9298541135670632 -2.126095854799584 -0.7113152299537685
Ni 2.613005081872554 7.909294059351299 2.3418461461346207 1.8370023008961782 1.2193359040478224 1.5926485131023087
Ni 6.086782488537629 6.4635729747836725 8.505966728986438 0.38040653978679 -1.5069474740890627 -0.12306019638799454
Ni 6.00413792820881 4.0893958038132965 6.855338112339713 0.3861706959640769 0.9643570324399392 0.23140236983952406
Ni 8.318915187229809 5.900289667967714 9.45701085093598 0.17219654890332925 0.31399931600614955 -1.2223129843982756
Ni 3.605340084779318 7.526399197825633 7.448074799003331 -0.565881036745948 0.3364291057645754 -1.5790082966110548
Ni 5.297748117106855 2.280155015566675 9.641199523802014 0.09555633454077092 2.873386474406696 -1.4412928122037307
Ni 7.5913770865812005 7.883435888726571 13.004536683728874 -2.6645805018104496 -0.6222591584253605 0.3032544187848197
Ni 8.89719623300811 6.8458583222874685 11.627034994305843 1.7255205533744025 -0.9985637602286352 -0.005545355298261417
Ni 1.9168384832283039 3.509360096456889 12.069361166988072 2.1339750004373443 0.9167546000706276 -0.6938044747635148
Ni 8.226906275110464 0.3870173927281224 11.246831229537337 0.2394959454809359 0.1085666307575098 1.250838345531478
Ni 2.3512926899674906 5.912055135601965 5.947938888380338 -0.38696542395123035 -0.4776556886489516 0.6467859399221312
Ni 4.000074294426735 4.625075513487357 2.428432230471524 -0.5716868447944476 1.2979733513460678 0.609513428723918
Ni 0.234350753359726 2.7281939969447815 9.609408750031099 -0.5226638779285256 -0.3987261640315843 1.0803168703377266
Ni 7.920533128512118 6.201860582878608 5.9874335499852345 -2.1745799184429004 3.9137543151553116 0.38764419518580984
Ni 6.003020485835384 0.8719273548988103 0.7995272476678521 0.6709363119160897 0.3447605084484063 0.10812260124155573
Ni 0.5951793602815609 8.144751173011326 1.680040438720166 -2.14986184687093 -0.5502793256529491 2.8924450337000445
Ni 7.327716096818345 8.217375692223063 1.760990365366972 0.14195677618218133 0.655970948855509 1.0201265740010754
Ni 8.389332526877507 3.771035548118203 2.6974227739013545 -0.4368777354006412 1.8783800925120167 -1.6013095312114165
Ni 2.6320754827082915 6.537628928440706 11.66129984090189 -1.312879836144255 1.0834484739881727 1.1054432330917092
Ni 7.7364137186031146 0.2872805816163575 5.894007979518092 0.6426423500674029 -1.3995337259890734 -1.6241416986145836
Ni 2.2689436515886676 5.89368659939747 3.5500941032395863 0.2051807171388337 0.2138445634614188 0.7285063970210744
P 2.028093262341198 3.9460122476991777 4.993501805042394 -0.8062591277215212 0.5937309690786806 0.016319305985313826
Ni 7.541424641970788 2.6721187069328707 5.517344937112986 3.534276457830378 0.1746619797246863 -0.9731175522413887
P 5.328048352042474 0.4815973458124415 10.53614988561777 0.16754130951950502 -2.8153294223629644 1.0301307364016385
Ni 6.325998271999179 1.7380661736020566 7.095836645765468 -1.4967260534713707 -0.7093437080496945 2.2533744601443
P 3.926313862719697 3.247130541139331 0.9614898993758384 -0.46284227778520287 0.03434145359434731 -4.048347451883569
P 6.40323108661868 5.626340820320591 12.856180047299965 0.8106395161774039 0.9535432296538868 3.6852367230627503
P 8.454458176608073 2.508870534742398 7.6605670866303175 -1.154216031620038 -2.127131238042633 0.848587456176087
Ni 3.997082134683016 8.795305805685743 0.32554605661048686 1.1491648423493759 0.10390650627767911 0.35398845480457747
Ni 4.1804627397170275 5.193733625768885 7.651037427249012 -4.1115873336798225 1.0517819961228274 -1.0399770330680993
Ni 4.1246460314113635 4.480971622620121 5.093267244843064 -0.11781951681434548 1.1992278204440379 -0.8984401180321558
Ni 9.110895543099614 0.1413906299638274 0.07717832775997059 -1.1939051226795439 1.2953631674167305 0.04920885762448299
Ni 6.9721108403627055 7.758707155706006 10.41312317432797 -1.825724928210146 0.02501169155298918 0.4522315921488921
Ni 3.417101837692233 0.37647187664370196 6.066409944109718 -1.1704528051938745 0.5217457369896304 0.8847556785665279
Ni 5.7435614487990465 8.580646049256748 7.488719225694935 1.1086457991894068 0.5936188689808486 -0.7326489584345383
Ni 8.435747943148895 1.5408329771619407 1.974306420429575 -0.9562056069773983 -0.04760603191373737 -1.0184131908543945
Ni 4.528883118763368 2.0505529305409618 11.873791205022783 0.4847617035661135 1.4694175954644049 1.383694959184604
Ni 6.665285175778427 1.2377659823791867 3.374596546221742 0.03598593117630577 -0.06436756764279238 0.29157595400562686
Ni 3.000794525695043 6.408929119217058 0.7415689287308046 -0.9235469404021128 -0.8530647752211501 -0.3044378975699596
Ni 2.4486394673086553 1.5162861851903235 -0.06559756134446725 3.2936394567664635 0.5712939802314032 2.772018161169839
Ni 1.4396628845926909 0.693237237314906 9.615882527748216 1.237380163144043 0.39076654286487544 0.06783572869705091
Ni 1.731500045275563 8.076023849515174 5.012370881549696 -1.0687296797207595 0.07960906718289516 -1.1125284220732645
Ni 0.22860285143228634 2.6688956706657168 4.140803694027444 0.7842772241337913 -1.7744735862343375 0.1563212724339695
Ni 6.979840586367311 2.416981678415238 11.414705243751355 0.13594682254267554 -0.45256532133922706 -0.9803490369928213
Ni 1.0543669072233004 1.145129086116097 5.47349779128829 0.3339852722097732 -0.7877034762065208 1.9556653966577415
Ni 4.980339072688314 8.564410812128793 2.724888768635285 1.6269938233513979 -0.5695533433912127 -1.3863830475397285
Ni 3.3475064184679644 4.801428237148005 10.465594020056011 1.767044897870434 -0.379656806104959 -0.8129972177763031
Ni 2.4217100296151886 3.1015121002783603 9.128290703881307 1.2435202146035098 0.710796381335821 0.664302608649656
Ni 4.859849232638017 7.32727281389335 11.922721328387425 0.24085965859768194 0.9708531816872441 0.9515529386967354
Ni 9.083975340467084 4.805279257558902 4.966564055794083 2.519697553120409 -1.9406064454420904 -1.3041036326135218
Ni 5.341429955340771 6.777657397264748 0.9665165430440668 0.6888872399675555 -0.12336487211260688 -0.39352533655693517
Ni 1.370187521160608 1.2592836743633355 2.141099932513917 1.5787131339681393 -0.1766792672650312 0.6619983859965115
Ni 4.436707975547149 2.0183964483569246 2.437325594154243 0.5393858186688969 -1.8882628988433674 1.1501164076293677
P 1.1168328594038943 8.41073016306947 11.297383029602587 1.093570392913523 0.8185186618151645 -0.12196439222065446
Ni 0.6210513834976955 5.851417725486976 1.944002491469581 0.14429005230104827 -1.0028263921597311 -0.6475289887357429
P 6.867569950551303 4.603299239796961 4.736986905432901 -0.8428315275289162 0.7226165138992007 -1.0008813526182183
Ni 3.8920240814591196 7.339573915061971 4.724254526918504 0.17173323611366553 1.2255253206879861 -0.7218976334553052
P 1.1320152995849848 5.527525668290378 13.202782966353823 1.1797509426663488 -0.30708099161976143 -0.5408148378059395
P 2.1645966980569513 1.6533991349279458 7.670123527688342 -0.04900265515094787 -1.6549928796674853 -1.3515903653405754
P 7.848508888261312 7.4972441104462515 7.684788804456939 0.5839898305315168 1.0713038682058387 0.8763353157133165
Ni 5.774341906903412 5.382553681695026 11.055519554170283 -1.4102845367476744 -0.760463152433329 -4.668269734645638
Ni 9.065237401825096 8.290129502287924 9.567250696851852 -0.13164742383637326 -1.1082477924200398 -2.1840420922970645
Ni 0.9077242981043719 1.500872868485798 12.093636448168128 -2.1852042309259656 -0.01197208476021164 -2.8553671550111406
Ni 4.147909149912682 4.918214817762403 12.882415931917032 0.6716973584518303 -1.0426648643129075 0.09803307821603761
Ni 5.4527770850630395 6.149682488582281 3.399940323952257 -1.0860470879532846 -1.7231240281177678 0.23898275328994326
Ni 1.9087855100908886 3.625980445974414 2.822787802620507 -0.7081759129938384 0.6403414698483681 -1.7505836669906172
Ni 2.8664982695433285 2.1034882998341558 4.222861827986739 -0.19068715150834903 1.5178173269240312 0.9511809000692973
Ni 6.68721844550476 7.658968497582053 4.297108023899083 0.38767247732058396 1.9453732707031142 0.7655673064291137
Ni 7.328972065105831 5.878153226900758 2.227361866211917 0.3915427589092676 0.02666696776822504 -0.15200927532217692
Ni 6.302762858680674 3.3238461923463376 13.406515798681683 -0.6807293867471115 0.8749068107969062 0.3454184537473793
Ni 4.085193851086778 2.823989284048463 6.790932797362265 -2.2009895187846804 -1.104381110375782 1.7261838979900144
Ni 7.1825409388823696 0.7992077145594179 9.184802812275558 0.43127350183998625 0.17971445454692922 -0.14244425734156113
Ni 6.115346532017017 3.6951325822736876 2.173958279329197 0.5030044518263853 -0.09267207101444039 0.9718811087311262
Ni 8.742204205295675 6.795601120666121 3.87186671395105 1.6218233348940518 1.6698875373911306 -0.8116584443602214
Ni 0.9930461025989444 7.485746459579186 7.179570943284902 -0.8428888631294128 0.08941011243371699 0.5137326368771669
Ni 7.930396173593265 4.636499283866925 11.395945140963114 0.6833889358571456 -0.7880911985632427 0.7888285909498995
Ni 8.359355519074697 5.18247608648619 0.2811891354220465 -0.9701774957764583 -0.330523796023734 -0.725516204044499
Ni 7.411912147384648 3.6469532693632565 9.318278071509939 -1.7009037832669869 0.263927596160739 -0.43438993598178094
Ni 5.381500884748163 6.443856119682317 6.119165229714633 1.3290775289500398 -0.08552543266733012 -0.3811400755187049
Ni 1.098196506432215 3.6126819582245537 7.089618679236315 1.686789455352792 -0.1907758545674134 -0.9044230750884682
Ni 3.9606313491630867 0.7743524715524915 8.564073732404578 -0.6894228007560513 -0.7064306481679576 -0.6001980648602631
Ni 0.9687394222116998 4.942004334737154 10.6737338234632 -0.25574428901899826 0.35379613628811324 -1.2675422885497203
Ni 5.524080990560727 0.36408396590226955 5.254098601586219 -0.26667790521236656 -1.0441201087021954 -0.3834985484485524
Ni 0.0043469431832355914 0.5647489109867243 7.518928033527274 0.8978366801202021 -0.5566677456777962 1.7461276881017926
Ni 0.8448640088217508 3.3008508906122045 0.4867015639925441 -1.4672792089651632 -0.12644453947919515 1.4893477587294286
P 0.11124000301539408 9.289270745105554 3.8396298867368572 -0.4712387293790143 -0.448412218402802 -0.5181302517242302
Ni 5.46913237798318 2.6819725169530795 5.064584992583679 -1.4518613317481963 -0.768652887332973 -3.304990363002908
P 8.044190594463943 2.0035926456742676 13.257983696094962 0.4949101048540251 -5.6307159232161095e-05 0.18787307909832163
Ni 8.217015524846504 4.409483015903684 7.126140574725462 0.14391569968076504 1.5203460068831558 1.5093835943343812
P 5.266422790407184 4.363954165482288 9.03656807865102 1.1487287832532218 -0.6869275451380235 2.2154936259381266
P 1.740384173897345 5.5178565594889175 8.036350951234184 0.45710614663237403 0.3693772785558219 1.1805839800906055
P 3.641504583410189 0.3310418413743354 3.824599825061234 -0.6057372495109374 -2.3369656519033946 0.5579265577855618
Ni 2.3007492014570836 7.360869965583622 9.298449472171239 -1.1463595116900966 -0.3778004696225106 1.1664665668526168
