# total energy = -340862.4781153456 ev
CRYSTAL
PRIMVEC
9.34408527677548 0.00000000000000 0.00000000000000
0.00000000000000 9.34408527677548 0.00000000000000
0.00000000000000 0.00000000000000 13.67601331717820
PRIMCOORD
 96 1
Ni 5.52922225637305 9.108165737778132 12.690013360863665 -2.066861237507982 -0.5695183763882191 1.8052394066622848
Ni 3.906958248298573 4.748252959364418 5.154694502166364 0.7639593385120456 -0.5943989416799828 -1.369730526584712
Ni 6.897925168435057 4.691749276154386 10.546134484617602 1.2639080342312428 -0.21839773004973997 0.7689719612352887
Ni 4.147979581971393 1.8073516477345233 2.2138455174135947 1.534494530469396 -0.7274748704327665 0.2023568745367934
Ni 2.149971219797069 7.318801454055403 8.432328612182218 -0.5967826114208109 -1.6079915712172823 -0.8309288625540592
Ni 1.0814283566445768 3.0456578508175345 4.588193451915066 -0.7321329380300682 0.35483023397958247 -1.252816038083139
Ni 8.772572917786688 -0.04386487356725163 9.81993834623979 -0.46227766353098454 0.17596372925524534 0.10260475674712007
Ni 0.7747106287410488 1.834393430306018 6.637201831116072 -0.5037302742488163 -0.3122545654009009 -0.0876368225833781
Ni 2.6289677153672066 0.1366394923017377 8.069053005374494 0.7408659470276918 2.2577036836472733 -1.063122360836311
Ni 4.149128904451108 8.291950551391588 6.311589428527743 0.111330309545576 0.3420593074671593 0.7019332745182363
Ni 5.448732306452229 4.694318899584643 13.469641781645963 1.0847491950774673 -0.2219034292101533 -0.11610613366766456
Ni 1.0767095936181064 1.8127618730658626 9.244793082769108 1.4275852328096512 -1.171655053032092 -0.19399744682850462
Ni 5.936643059304054 8.24752877034636 3.7014537824744917 -1.0345530338390505 -2.694110135838451 2.117575218923082
Ni 3.8046872357743804 5.979943550125169 7.161293816274425 -0.20547408000953643 0.5396737822229609 0.9822367409338374
Ni -0.04672977008985716 7.288713499708404 12.62745938248603 0.7924553890692094 -0.8934730038348677 -0.984317534722266
Ni 7.5380136928692485 7.867766459610113 0.2818802150309326 0.13052436597552358 1.5757962174316602 0.5575262370233496
Ni 5.136153968310676 2.2619227045894266 6.84447513226869 -1.7241110746213855 -0.5098014201435608 0.11785242693480993
Ni 0.6505277364206725 2.2597081563968056 1.1971389669132684 0.7570700675913801 -0.5935268234876746 -1.9033107943154253
Ni 1.8453166659059068 5.304057835286209 3.1518290845045955 2.629006975581214 -0.11868006504242785 0.1373159349760603
Ni 5.191246694655367 3.7394468329014785 9.242837365736554 -0.6711144893651667 0.9721600734241256 -1.3700382876331179
Ni 8.1325311137785 7.5565897342487 8.299465999118697 -1.103553472268164 -0.49506565659528284 -1.2232439808529774
Ni 1.6500159411212427 3.467160190146342 10.777451051400737 -0.806273268788908 0.442188091869961 1.7250320437737583
Ni 4.015620615100203 3.793651871152081 11.43660711609595 -1.3385021646980497 1.442205039605355 0.5294690737758172
Ni 6.277562007860031 6.851914892905671 6.014013019176286 -0.745535070368587 0.03570490960077722 0.4204794965482758
P 0.46465893123782853 8.283895949948384 1.271356232438705 0.0914525967850425 -0.7463771066539081 -0.3327817388199753
P 5.893183719034523 2.961299449623527 11.456669801430868 0.25974389709669465 0.05391526196121683 -0.10618861744363649
P 4.222844392601255 6.42054519960468 3.4126580099863504 -0.6429141156715509 1.4583765071588948 0.9485645454923728
P 7.749545093647931 3.4622638895010542 4.6645869548837995 0.06656920327980148 0.13771137064226605 0.8836012532471105
P 6.167441963767056 3.3012559574038076 1.5247659542709204 -0.1306290098741879 -1.7699109065643195 -0.1302582567983305
P 1.0665338848342922 5.968711959713651 6.530774569494506 1.3224574525303612 0.4434649016998556 0.5906194200328925
P 3.508769401546089 0.3361852349931847 11.634430743884865 0.15734020061678708 -0.17660496238367004 0.24942477455887369
P 8.961771954935143 4.9043085263051704 11.46601014899772 1.2630881094331086 0.06930897080846773 0.37976119289330723
Ni 7.328276356449146 2.833014503899942 7.064358276399965 1.0558898476436138 0.12765861439195433 0.3452924696924763
Ni 8.749960231600435 2.655570325934258 11.82161426185548 1.9548138472907235 0.685649192646232 -0.4418777597183938
Ni 7.4750158704445715 1.3804297389891755 5.125933407917898 -0.466757553679209 -0.27825661118890144 -0.6368123736491872
Ni 2.724417545694719 3.404919238622939 1.4338620213936608 -0.45440597409239164 1.1939971681727177 -1.4361598618525395
Ni 7.900704359943395 6.924864166069342 10.306147541176527 1.2622283325359744 -2.264326074059797 1.5938993547902742
Ni 1.3765332554603873 8.710827202778933 10.797294150733434 0.4606596683115872 -0.08007700795824918 0.9794249825166552
Ni 1.1305782448014752 0.9483592392981148 3.4139839356763626 1.3725664533716104 -1.751744520067938 0.02501220577362144
Ni 5.423419179642906 2.978034706218395 4.400517500654362 -0.09079208038290815 -0.7967442462525504 0.2876622207735175
Ni 0.40485865476890875 9.17477037709037 7.557528814811394 -1.006578917223628 -1.2434266264484393 1.4599513078451825
Ni 8.706781213886929 3.3231865253703936 9.392850112777865 0.38172602992916194 2.321982548231001 0.11242071439627735
Ni 6.987796579897614 1.2979962193465602 12.069505366968023 0.7648247718361344 -0.24534751916570652 0.5701356982572439
Ni 9.014911767472839 6.241512527154838 1.95341371555288 -0.8757581030536078 -0.08606099345582598 -1.6404514915182007
Ni 6.8195002613436415 1.8682190187333894 9.635475825879684 1.328607274181841 -0.08493510738149888 -0.04977938541597233
Ni 7.490246729322088 8.85457660951006 6.674947263285235 -0.9752384552391332 2.3574100358006755 -1.173688795632669
Ni 4.883760882948322 2.2979721852946193 13.394520008673078 0.26322054279138535 -0.3014654452051969 0.4025956742893195
Ni 3.9740955004672642 7.323473496655867 1.304587537047297 0.8579241601959805 1.1341763393603437 0.19136720829450912
Ni 1.0956126779795903 7.6474422746573545 3.3650788625517283 -0.21589553245317658 0.8401133572668049 0.04641869647385554
Ni 1.586410753158504 8.462106342900546 5.764549304524423 0.2756716240705446 1.5362385097436961 -0.007654431221464237
Ni 6.044072006859161 6.696401282906573 1.9801088325634204 1.449455293409865 -1.5436178329269028 -0.0596058845880909
Ni 0.9332162148214856 4.673827320739001 0.15545754548789312 -2.1120483755675816 -2.321950666551801 0.45405219029739863
Ni 3.9840656393766576 7.182041423054573 11.935535479808191 0.16781693177839485 -0.44319750697108184 -0.2848653747546707
Ni 0.3286987539301986 5.9297751566813695 8.719606905233729 -0.9699566380149037 -0.8322403822766313 -0.1699074957588364
Ni 9.0847588043498 5.280865815817498 4.133205648860201 -0.9953833056181244 -0.09397047811088978 1.8091022320518007
Ni 6.361901720883636 6.790150489727516 12.147253762290893 0.07970522644112725 -1.187452939296297 0.7126455187294178
P 8.448249064547564 1.4743751715993385 8.366136981435861 0.6130857194562086 -0.5414707262223836 -2.141114439695603
P 3.0267360782856487 5.593789885111485 10.209691352872872 0.06898141226571991 0.6158262583158233 0.49152370488029534
P -0.23299943652782104 -0.09083291782973253 4.982226049570176 0.1455385799961687 0.08341352853064989 -0.006312572481589128
P 5.250534915255276 0.4890666161911811 5.228995864458609 0.5939083751968094 0.832554056862308 -0.2114680928094423
P 0.3168280280909355 4.07810451283883 2.474196025733062 -0.33591874178706016 -1.509789057302916 -2.0958661093807645
P 7.711981871140186 8.651342756389806 11.523778086935435 4.242897943002067 0.10606571871252701 4.7514513496711395
P 7.680623121205861 6.894794899892745 3.5987333194521347 0.4490544799724911 0.5670837988047975 1.0761992486249272
P 7.295665499097896 4.702962178395504 8.301093738760699 0.4285324487597394 0.4573851113253735 0.4580068040697725
Ni 5.2462927005740525 6.181243177608832 9.860925241565154 -1.2416893320423583 0.20599010041400653 0.4907390041954709
Ni 2.4598023968895473 3.41215156056846 6.4130241454264505 1.1457933547739816 0.5823710639811712 1.095431614491978
Ni 1.9687987518362133 5.848005067088021 12.280129457073697 0.5152881542897447 0.17839984950056373 -2.346441452604314
Ni 3.530036539463408 8.914107776325194 3.693426278878372 -0.4530867410603358 -0.6460498330870551 -0.4539730003200311
Ni 5.731119905309572 0.24238183247807613 8.079433349624207 -0.3621429655909118 -0.32552942813293617 0.24915866538168055
Ni 0.27677273806010355 0.277921126131298 13.256706899270101 -0.2036128584310816 1.064463705355554 -0.5442050944344111
Ni 6.120618752825189 8.487905362140316 10.533853553438018 -4.809301685020705 0.6030651019954131 -4.5852354438312775
Ni 5.6644218251453236 4.662950805565116 6.941958235535925 0.37352961016129865 -0.286893460928293 -0.7570063042329802
Ni 3.472364845603261 8.416983755465248 9.877993147593175 2.32066434364021 -0.05734022848236576 0.39943553139378307
Ni 2.6753704424750313 6.717098431626635 5.118713233283138 0.4918985717212109 -1.0325095210464605 -0.7502083074745403
Ni 8.643998305421874 7.090441355829844 5.925652546290719 1.0915387071954752 -0.4573910248626445 -1.2302512654087456
Ni 9.390058100119827 4.109491295028758 6.426645952832369 -0.7913264176710888 0.4270154978945807 0.5276849852922009
Ni 7.872522598977387 3.68979236414373 13.782549031586589 -0.22504300328039953 -0.03599081627231221 0.6439749528358973
Ni 7.35721498831643 1.2560599649647806 1.0527504247543986 -0.6270434671878814 0.9104440844715675 -2.020230682133637
Ni 6.502371353709235 5.152066945407862 4.063239007692668 -0.47679745441371435 0.1738220003218942 0.47012621304112584
Ni 4.651093161445134 4.555568578436015 2.5474994397258475 -0.27330466650026475 -1.0577574969799717 -0.7100312210350223
Ni 2.680902140913983 8.557939280721296 13.392605405615406 -1.0893350146759366 0.44860042315420806 0.005021107363675224
Ni 3.2249615017382043 1.3385962695446063 5.36787606839153 -0.6017762079806604 0.3336559138948124 -0.48069113304116573
Ni 8.589933428449285 2.041140659461823 2.8819055608967745 -1.7378582490041488 1.7252143349878934 1.8996521145169156
Ni 8.042071024948283 8.96284652473325 2.5362715869484087 1.8939527501392932 -1.852924114332757 0.7778273547433894
Ni 4.70673718881668 1.637093071288355 9.879606871107375 -3.4329644517527518 -2.081704216058086 0.87155537782617
Ni 6.219834249488677 0.8774348293974864 3.0752159955336404 -1.1813195727050494 3.364535826666709 -0.5123568395755627
Ni 2.0591560557292183 4.351988994163325 8.699954425239131 0.4060720628736942 0.40075322176394207 -1.087331868202979
Ni 1.9974757493178712 6.4560714115386215 0.9338039577806243 -1.1448687860771831 1.2123882690853958 0.7002738845379424
P 5.793024469765742 -0.5730718109645931 1.245326414294471 -0.34185567609678547 1.3505683518339642 0.38149514486527847
P 7.248393772066385 5.781110761134554 0.37417454778609077 0.6525925193015794 -0.2696732403952646 -0.5664137693209664
P 2.919045496344916 2.989313017055919 3.5439059651271503 1.2137298707149549 0.45946513378285386 1.7873581555064897
P 2.539787766209519 0.6473432721841952 1.4625399532838388 -0.4874135393666639 -0.11535408599298842 0.6270483522838878
P 5.406581138110827 7.4600653341230805 8.214880536654306 -0.18935197763669326 0.5080083327988799 -1.5674272766416748
P 1.9157897564913302 1.9087630044202302 12.473399712144197 -0.9332981062516056 0.4067292368417189 -0.3338837136349024
P 3.462562900227484 5.080995833369579 0.05190826210821325 -1.8108413262300942 0.4417175799914457 -0.036663416859304604
P 3.072783730155838 2.4532895695044985 8.411568858091309 0.9586412130020844 -0.7114890365274714 -0.6121153851231393
