# total energy = -340897.90890560276 ev
CRYSTAL
PRIMVEC
9.00629086331674 0.00000000000000 0.00000000000000
0.00000000000000 9.00629086331674 0.00000000000000
0.00000000000000 0.00000000000000 13.18161704830215
PRIMCOORD
 96 1
Ni 6.371248215603026 1.9304714035891757 11.375049691394842 0.5897200481470747 0.4380247045208908 0.2647729748801698
Ni 4.637573271212379 0.2856966545718646 5.792200459950083 -0.2479106519071924 -0.5748274473059584 0.8860530572217128
Ni 2.7835922949708354 1.6475297733580199 4.931308940908522 0.03995802845017635 -0.12807050511839232 -0.19828321868805207
Ni 3.399181274087519 4.224959066749361 5.063164640018409 -0.23496360482822115 0.3822497636431159 -0.08856396238333779
Ni 4.993772070411583 4.562109561010352 2.4363844758282824 0.6301385611734374 0.39174176229395113 0.21118038636569433
Ni 7.394578995886476 6.204478729768091 2.7874767081717104 -0.333455110737916 -0.4216346931986416 -1.0458838854708374
Ni 4.965123059532881 4.465490073834397 11.38715054364779 1.2240279102068534 0.8888527314540369 -0.4442007514246156
Ni 5.349511548782491 7.802554960612765 12.568711044876144 0.9689227974337505 0.24329037952636165 -0.4416574161774716
Ni 1.8275565191783205 6.282284075565359 0.3041253267064136 0.46411703073256844 0.7795052566664447 0.20726433914073983
Ni 2.6943669725013915 1.4450413384049046 0.33045521771675174 0.5806725932328257 0.6816516414510647 0.8722295210750592
Ni 0.6578176751896349 0.38325189535684223 4.763190312719098 -0.08964871080708432 -0.4655689326877466 -0.1702401965079068
Ni 8.627017834824972 2.3240553156954826 1.2273520859223725 0.10497891340625146 -0.23862742683305355 0.6451291210449986
Ni 6.891847846169671 0.6332773341515061 4.776280055696498 -0.3065251191162915 -0.0399135483654861 -0.9689513366788409
Ni 0.651384481706247 7.429865643048611 2.336705551684236 0.40367913716148535 -0.5220568404721461 0.3269422493200627
Ni 7.497484874006579 3.85724122167972 3.7766916590906447 0.6823525241728313 -0.44065725704773134 0.12192042635659647
Ni 7.639505072857964 3.7490126257258174 12.582393401784953 0.6029879689005745 0.20478296747978278 -0.887248877302027
Ni 7.985553782380872 8.59409984213033 6.691845147463812 -0.5311174080125176 1.2562173504552043 1.376032814653656
Ni 6.945066018216905 0.5203375475057932 0.3254387137684849 -0.4302381185969365 0.6043737935045076 -0.1088057433515094
Ni 1.7758514039772426 6.522076566808817 9.260257342555324 0.05557465194151074 -0.5507472664283031 -1.1460936596232199
Ni 0.10444325195128736 4.769083128757431 1.2595612835349166 0.30367582259295445 0.5436597634539024 0.7229841816512645
Ni 6.268783645729718 1.8628791915034606 6.944497721270522 0.4072282879653245 0.5852792387669017 -0.37002751054531113
Ni 3.3750444148750316 4.1249532142510565 0.27648411976274034 0.6541063848429444 0.46549308514448867 0.3994501866818024
Ni 5.929948975098302 5.490577080814277 4.701368431117502 -0.5650325727027237 0.4313362367571216 0.04025756196846615
Ni 5.133315539306462 2.8073779088440367 9.384111852962086 0.23988572472018688 0.07932547450420532 -0.4803206370756244
P 0.11827421265748758 5.543615127046492 12.297631600193036 0.6970049839786835 -0.1750818408709243 0.25748286897665973
P 4.03221543838875 6.0364123380650225 12.555674439014176 -0.8760380961878719 0.3360539818133438 0.7720747685303283
P 2.349444049322349 8.381812562840205 1.4784762921886498 0.4934132085935245 0.4437749767411067 -0.29456229032746045
P 6.3386094179216625 7.58463874960331 5.550357236302637 0.057874760829597104 0.3497643894209008 0.44449745672942803
P 4.839260146288662 1.1284972373820361 12.718322646201486 -0.3632421121923615 -0.9071214478562377 0.28193765958491446
P 4.060044876809117 6.117351873043614 8.147201390665755 -0.5245662371575611 0.8922206194850053 0.1392979984030956
P 4.762832762976287 1.0080561111698751 3.738662596394851 -0.26272637676378624 0.27082483750120456 -1.0112464979026263
P 0.35001868248591766 5.602795463570841 3.4939328565617327 -0.1814934008242229 -0.30875246578491344 0.7914374893276563
Ni 1.642342149885485 1.2557381131111476 2.5956580258712196 -0.8515719927257076 -0.30350124468830314 -0.09789038199058625
Ni 1.966091283509096 6.347498626892828 4.822771429181863 -0.12271798255722736 0.5632950211863267 -0.2736191124168901
Ni 6.006502446481191 5.7074845872596285 9.227263697018374 -0.381114364487092 0.09093066284330147 -0.30029687881839245
Ni 8.485402919057378 2.1810894563152505 10.108573377821363 0.7859168166197432 0.8210082610062376 -0.02771289253423614
Ni 2.2816086673863585 5.251090803456349 7.113353964672446 0.546250149888898 -0.07889404339374155 -0.038748581523107464
Ni 0.650403696643471 9.125353914655323 9.119715076016167 -0.5573159207847563 -0.3570760925909657 0.1744318659917512
Ni 1.6943985104258494 1.1002535095871258 11.445255529056476 -1.5073421384243202 -0.10897543616015426 -0.4919898458834365
Ni 4.020750430262819 6.862505350903147 1.655189623641684 0.12861249366479138 -0.8209745795548248 -0.7493307899655933
Ni 5.52058604159637 7.925256665803409 7.94608911693938 0.7484656137518206 -0.425296458320945 -0.42615983476250474
Ni 5.247425243120722 2.8109714188536565 4.834028391991448 0.256745476590003 0.07866650076396775 -0.05514939147863405
Ni 0.9035110881331024 7.341766106923033 6.991912239557857 -0.3857374650814002 -0.31870366346035434 0.4370530846362408
Ni 5.033111548411638 4.447990850905343 7.226360397869716 0.3693680225844413 -0.14225116749414857 -0.5225952294741193
Ni 8.043320131257325 7.331525954339228 9.110593504743626 0.3678690694414116 -0.6341944764103659 -0.8095622239528252
Ni 4.622577797112084 0.4612769946484323 10.503942336754504 -0.4179104502695189 -1.272774226372621 0.028672428234028036
Ni 8.489924077014345 7.314495058529223 4.76873998907982 -0.4719401263214131 -0.6123308435680551 -0.4169203184421078
Ni 7.26108775437622 6.038636891880501 6.79061533687109 -0.13447203776936195 -0.2494476573770091 1.0080061365884576
Ni 2.327000372771036 5.2309797562095275 2.517754511504767 -0.1812810277031007 -0.5796675490070791 0.03824181709001801
Ni 2.288912769185361 5.210229262319388 11.328228687667993 -0.03886993759232015 -0.1735792881834688 0.34130443157900575
Ni 1.0136400114354505 3.433846487187841 3.854146660177701 0.16360546480020854 -0.2051786602563047 -0.38746833172957784
Ni 3.5125434557694506 2.840863297855987 2.9018674082573983 0.0667196128147367 -0.43401378358928483 -0.4567284515779812
Ni 1.1898120648143542 3.3801960131845625 8.207784006660022 -1.0587561134478154 -0.051063908555350764 0.7380094514155032
Ni 3.5447859766577725 2.633682585421638 7.178207363740804 -0.07545493580520553 0.3773590112097178 -0.3756669682192756
Ni 4.103212028378316 6.8292901506137245 5.881478919534957 0.34248508215066825 0.2245814902629487 0.9182065020258058
Ni 0.8137057605392983 7.374792175106687 11.227903111848029 -0.6640151593162241 0.08055111938119029 1.0339755640690258
P 0.052585029807443624 5.493783320321608 8.067914510039959 0.5550245536474183 0.39628670135215627 -0.18218451335397656
P 8.361251201055836 1.565761659630344 7.879640703779033 0.3998687622764598 -0.12593083306757022 0.036627421415046595
P 1.916619728414248 3.1220577076814626 10.523715648098166 -1.2105046789094378 0.8049455511164202 -1.0591230098689308
P 3.9313449819783557 6.046913673080605 3.825159913395839 0.15854604799943017 -0.38147354759872365 -0.8375954759409574
P 6.912841509910085 3.955878117983884 10.390620683380952 -0.43263592940515166 -0.09035447862485729 0.033735958799864484
P 6.212026001417368 7.8039689482606605 10.174177901538348 -0.4020421157786947 -0.09706660053771025 0.5517798214578755
P 2.3560996981872844 8.42408809162506 5.867744326139792 0.6076005279719213 0.5097764804428964 -0.554195887098536
P 7.0752879761845735 4.1550072064869035 1.625174358456066 -1.0727794243101008 -0.8900346675772801 0.22250712423242322
Ni 5.568499508391307 3.0386324364556163 0.3669297946289353 -0.6715950285460112 -0.4743284240479315 0.09504211390851373
Ni 1.5318079434993455 1.1257593249937539 7.143026090180454 -0.7545498722726875 0.06677926240807854 -1.1423131095348649
Ni 6.680434177082385 0.8506936960242848 9.102723807885466 0.05940559565182673 -0.9283227645242013 0.2063971060444381
Ni 2.723628411151157 1.5642035713304334 9.293185242169791 0.49035693826570387 -0.30006110865850255 -0.758685748817932
Ni 6.3955111628860255 2.0194175310453413 2.4819662139478043 -0.42518487244374514 -0.16565951911575988 0.26877721094355644
Ni 4.006583534911608 6.7605001018581365 10.467547915830004 0.6047985397467519 0.8476824278633143 -0.7109904996244981
Ni 8.020795398089254 7.217065005185684 0.11394128617721609 0.10462872915568432 -0.2531976113377446 0.414759306235047
Ni 7.370865432339281 3.840291382486473 8.218105215860586 0.9537255208680221 -0.49449075792841934 -0.2507044126022457
Ni 2.9967351718822988 8.261461499535553 12.41728107344819 0.020906154025047863 -0.456142240057208 0.04622020730980427
Ni 0.1261349032248976 4.737362972732662 10.168259867885913 -0.27935138691497696 -0.5369774663377204 0.12718501718964548
Ni 8.477288251090792 2.344661708933606 5.705109628388609 0.1220142716219834 0.5925251216960377 0.4824556811407562
Ni 3.7257763955884227 2.6207405456125548 11.523672401995734 -0.07178160071867638 -0.8523533509764223 0.02998497639786449
Ni 1.1162847071237776 3.3713338230856498 12.56765640822921 -0.6308643835958684 -0.11474910541913785 -0.5006974009597635
Ni 3.135396024283587 8.313562891529672 8.036937373002143 -0.25974492553795914 -0.3965744077959041 -0.1714301030509499
Ni 5.455317452524394 7.782353850458434 3.4610968211129243 0.7559035580871046 0.14350458028527543 0.8041413100475698
Ni 3.091256193313289 8.319038716306235 3.7211048325759166 -0.3219987892718583 0.39345617388189663 -0.17584957227488426
Ni 3.330202093226161 4.3755442481048785 9.311045617357959 0.25660278036455164 0.018026004263775406 -0.3730048480060802
Ni 7.255828080577677 6.061783059110387 11.293192415388733 -0.39256682929840775 0.10354603761446683 -0.13305741681002245
Ni 0.5868183833128437 8.929413053078132 0.28267954717030375 0.085553200581472 0.2780511800463147 -0.013841276758466485
Ni 4.456726952933744 0.2174370763415058 1.5842857984468528 0.7170570175335522 0.8033614944587519 0.13526059510892835
Ni 6.06152187667861 5.52078417999289 0.31553539645876433 -0.490319143049233 1.1909560673535489 0.09197915871247385
Ni 7.972728824351551 8.866423055566141 11.081903933742886 -0.36057999197916607 -0.18365029926622564 0.319348753243521
Ni 0.2391116156626893 5.005606336458303 5.730075066350182 -0.8033051872995197 -0.996352354399613 0.19721286844200875
Ni 7.838102790206677 8.820337865793643 2.5442762365081 -0.07714106525837683 0.11153934023258853 0.16625395816664915
P 8.437705603240465 1.6876167734904006 3.408054271735333 0.3734974713717826 0.6272193306441133 0.799428735063249
P 1.8344733504750335 3.239562783108821 1.4535630907134325 -0.18524335478495838 -0.6232032675061848 1.2919518277423363
P 4.615949167119401 0.9943575429377137 8.096570725951262 0.30080775701654 0.02592057652050375 0.3943997687420885
P 8.563361371797413 1.547505908278213 12.308795798207887 -0.007047650875400766 0.44840450509331803 0.16537978309181195
P 6.330936058201871 7.651582508754958 1.4285706338796071 -0.5838944426042332 -0.297906524209345 -0.3615986630516676
P 1.6241944740223653 3.202573946994759 6.050981814612799 0.4943958842217679 -0.02657775048852842 -0.3269875007357014
P 6.805396461251513 3.934362089379917 5.986879540193068 0.39976129016431794 -0.09798268459407641 -0.1934469736416733
P 2.416036563134711 8.422115713950607 10.183155372158874 0.791774818062417 0.45757563006962493 0.47195606716101307
