# total energy = -381160.7516308633 ev
CRYSTAL
PRIMVEC
9.29092559639583 0.00000000000000 0.00000000000000

0.00000000000000 9.29092559639583 0.00000000000000

0.00000000000000 0.00000000000000 13.59820875148131

PRIMCOORD
 96 1
Ni 1.9942321534583476 6.331477809130075 4.114722411891965 0.8918354682314448 -1.3042458146183409 0.47791922672298337
Ni 2.5273083033296513 7.0966319907156015 11.671967836087152 -0.0470136497453771 0.8894104037297199 0.46807884359379387
Ni 3.176010022866814 1.238991389537222 9.565701055725166 0.6587317994300977 0.1559320074153508 -0.12737270772041934
Ni 6.863829266800981 3.830304879642936 8.52581884824694 3.7510443655861785 -2.144055267491482 0.6171364924868146
Ni 4.285838964071791 7.154969712847537 3.052947067221242 0.05381935981330087 -0.43833092290739994 0.8893008747350492
Ni 0.6840183861031628 0.9724904783041548 8.687270050477117 3.111140240385545 -0.903966961387656 0.015829767943404995
Ni 4.019310180061786 8.741460303400629 1.4152337453960082 -2.2919196674073494 -0.8091477621232258 -1.9593173915880318
Ni 8.897473526850135 5.432125497512112 7.702215453421726 0.2108363727627143 -1.1794516662583752 0.6699423234339366
Ni 8.010654673928777 1.2234662527825695 12.428572507893128 0.766697306268499 2.24170576555712 0.3839045256377195
Ni 8.397714636345789 6.951061767692325 3.5956792761165493 0.6084998998577391 -1.3992876714165385 -0.3382756720550109
Ni 2.3344101050650807 1.3303583523410842 0.22231605613785393 -0.18060714156452767 -1.4620770959389335 -0.49638000453133224
Ni 9.241442176120481 6.337972166156707 5.469090374287731 1.0002084949209096 -1.1482230472613968 1.4312243722241351
Ni -0.001338822385604692 6.431782642405497 12.542634414772746 0.26021106654110027 0.17586165645974228 -0.12686157241195573
Ni 2.7755525456681087 3.6659948595914513 13.441992300946097 -0.4398481308828747 0.4608463304010966 -0.38063819618162187
Ni 0.33477434925095423 0.8908678383179345 6.3836788748727535 -1.0648989931207595 1.9096773599634014 -0.9329818605627674
Ni 2.4473134335166296 2.103892948859404 7.182805326083288 -0.07585217124362421 -0.1814869730663197 -0.841867363843434
Ni 9.334871724417779 4.234348654141041 9.793416068755976 -0.28744599099765333 1.6292047149597877 0.6800015074421514
Ni 5.945281902798151 4.4175285441797785 1.7475738721276812 -1.5363385256566702 1.2319386804134977 1.07594933739765
Ni 6.820505680513163 5.793895560320408 6.360154251136799 2.2949628251090477 1.307577450094735 -1.2833646002939576
Ni 7.107000663736662 3.4878041966246753 11.133384025492834 2.2678333158821067 0.04762197275333734 1.0328224243011892
Ni 7.924806520958704 7.522862495656621 0.8015495246190399 -0.35170428675609106 0.06647252980093712 -0.26980051000174826
Ni 5.463147898244478 8.70537434819113 9.989665503901099 -0.8205081814413676 0.2812331773187221 0.5190342515957383
Ni 2.71626714912027 6.954592319437847 6.930218505097837 1.4100351397410296 -0.5494781699078923 -0.8812859748503725
Ni 3.669859884660234 8.33362583123891 4.93636727959098 0.01342450093602204 -0.8202626410894649 1.7531164607148002
P 4.190783503786423 2.029277524995481 12.615289453325339 -0.4782663256497569 -0.816426040952194 -0.6846860574020143
Ni 5.367804419264081 4.94678612361053 7.575616371475244 -4.202258057993517 2.3750619445544836 -0.5064918961543534
P 8.754151707833216 2.632490872569281 7.2913047557785795 -0.7264394871897167 1.0398919295534608 0.5214148360127729
Ni 6.4493982374305245 3.3780133282645743 4.94070521277515 0.9162840881921124 -1.9244617173614276 1.6893525880942777
P 2.259395171398375 7.775027508617738 0.11319413442427233 -0.361179573236378 1.1062631578898432 1.0374725214786906
P 1.765536018679309 5.30056599036317 8.002395970121947 0.2640908612114807 0.32347511670706874 2.6818847974168523
P 0.4020285727254628 3.6018317270794045 12.528899639390097 -0.3657085714549831 -0.08847680198617021 0.3712055900138123
Ni 2.1016259630017524 3.3402735882900685 9.101621177887017 -0.4934152654760534 0.7581383609548944 -0.5684639669817758
Ni 6.118474047767319 5.331969319047028 4.206755534064653 0.1310344728427227 0.8758864011013561 -2.914101435627556
Ni 5.1328183278226245 4.020936092049856 12.878755019149821 1.5331146194027339 -0.4200534647544508 0.05159895512321436
Ni 3.7153389656979505 0.05037354066808827 7.713747350333679 -0.13845184835271637 -0.03818833814426326 -1.5362086849470251
Ni 7.3247242153276435 3.4336381001078444 0.4194314055531946 1.8057189174018644 -1.0071036793788462 -1.7225493865612205
Ni 8.508527506526962 2.248264642474333 9.513116274753305 -2.8731383629516323 -0.42136832691113235 0.834681387617956
Ni 7.782999122822101 0.5442540625161403 1.417721855284037 1.8501398667194007 1.7964377492102546 -1.597803832051003
Ni 7.860067351056598 1.310884572186834 4.4816703075628395 -4.594811517555487 -0.19250209322990072 2.2176826631696454
Ni 3.705815766910686 3.3101709891966666 10.711594583010655 0.4571010044260515 -0.38982886154195445 2.2015500192738404
Ni 1.0264521744567714 6.9096799848645425 2.1764615818034883 0.16644499113153272 -0.33104855817895246 -1.9302459281433726
Ni 1.15828111844945 2.035344499442392 11.078229374487256 -0.16192087800893404 3.8027849884935803 0.47519797113707835
Ni 8.48965763653971 8.431710133284911 5.573252799891419 -2.6239221048591395 0.7181813609459824 -0.08552826088080755
Ni 7.2621405401754355 8.627804409971743 3.1038186015039617 -0.18751646708985126 1.6774447809130983 0.5820815577652104
Ni 0.3958724053923492 1.358389075015403 3.75694001437098 3.784088954745973 1.2662989030609224 -0.9823149024699405
Ni 7.145632332573195 8.530639909564709 11.823697013721237 -0.1438449943438297 -0.3241577445963901 0.9608886142753645
Ni 3.0686069223977634 7.628983448386509 9.377052526851127 -0.09497475100568804 3.222795280260392 -0.32846588505344076
Ni 7.473574135103998 7.004363808124067 10.2250232323684 0.8480562662629653 -1.3365974914761691 -0.5042182696288283
Ni 0.6488921835129083 6.72541305652521 9.996859467628884 0.11850702979967333 -0.09704320349894255 -0.36827196130678513
Ni 3.8179665303849 5.841864609431282 1.2237273277932252 -0.7197237657324379 0.12850039356695933 -2.094017229097484
Ni 7.9685760716775365 3.084485114326968 2.849232373319468 -0.6051230129657063 0.016016172922598222 -0.04779346533419511
Ni 0.8021905984886217 9.226725349897041 2.1182204852982727 0.061274530539765434 -0.05936342955998164 -2.1956675923511346
Ni 5.406900634382918 7.28624120130145 0.0762515558702031 0.30851900961786866 -3.36864136419465 0.8230412322758663
Ni 5.084412605206382 7.441706260137836 7.392013744319607 0.6157262424028492 0.10155831776047669 -0.38736883003723604
Ni 4.251508993809409 5.8671637999656445 5.431723200431636 -0.31464594845121296 -0.3948800508126167 0.2640448384648936
Ni 5.208019080002251 6.918069690722981 11.418932263392994 -1.980949368035511 0.48841498404798467 1.701675885546321
P 6.21275836122406 1.8773058542020322 1.7785507473243822 1.9391131487260151 0.8484391035236807 0.7401678925194026
Ni 5.708772099550733 4.942558752441549 10.371693500988178 -0.2035627219194365 -0.8177730418983916 0.24828500452747565
P 5.510410837006248 6.733923544417048 9.377759566292795 -0.7439348157610026 -0.015946496026927375 -3.2756720736547646
Ni 1.0367372291470172 7.975609302391643 7.888347999630797 -2.0518220837866727 0.3970338639308259 0.7158719960865155
P 8.120603488024862 7.339524659881899 7.371493805937606 -0.47965343580527064 -0.2866389217153257 -0.4301280753816334
P 1.2412305026179349 4.2614409933251025 2.921561300381883 -0.36591117438409243 0.4802427326498374 -0.02717193242910159
P 1.9075756899570642 8.977421942034926 6.1350091081397045 3.322042690499505 -0.2812216073544963 0.9930644276769607
Ni 8.184209164998142 5.408563710073572 1.888465184995577 -0.792624567657222 -0.20975470966276133 0.162722547974623
Ni 7.989768673076317 8.915367849644547 8.712630561120744 -0.028201659245196593 -0.07337157091361557 1.8056690380005354
Ni 0.7841439045136144 4.701942360058548 0.7991301675807926 0.12241742059767302 0.7380827278555998 -0.22387675088644024
Ni 1.094461750186309 8.41218989850243 4.3130530143818175 0.15276877919602075 -0.0601491586860706 -0.824753844091599
Ni 3.435347630426729 5.591186144573544 9.673425622221572 0.004987168801946249 -2.595400600380678 -0.45748487012803146
Ni 5.191518396054757 0.4083464021648187 3.0763499798312326 1.3281429329509127 0.39592906090242136 1.2878920558506657
Ni 7.175521240376736 1.023506951026954 7.140378314120318 0.588753056248115 1.1151972271546793 -1.4868846419009167
Ni 1.7083317894761993 4.796561146838551 6.038992037049963 0.9325362883849165 1.2687728185227116 0.5642321882886153
Ni 3.5966938451971044 4.689269537477253 3.1386707217876557 -1.631678630421577 1.0485994846297877 0.5677453436481964
Ni 2.111065543458202 9.414216229435572 11.225593675252798 0.816300314007607 -2.3928436940179374 0.054503530364519034
Ni 3.6468648436861075 1.4387741637055613 4.948374871896015 -1.0913687572765138 1.4547144849262754 0.9180908023835478
Ni 9.166687388371866 3.9757914843353994 4.920770602708853 -1.9604918715121074 -0.32908372114309775 -0.5527537553353706
Ni 5.88292120986145 1.2102824292907368 8.978407709245978 -0.3221587118884903 2.6875355679447264 -0.8378857534878665
Ni 6.0479837948902695 1.5569082832958712 11.371828199459772 -1.9978258320758753 -0.898202548100053 0.3430581810453188
Ni 0.36648427848113335 9.07411260523401 13.00411654980024 0.8262211726657448 -1.4316686588504053 0.8950146372903747
Ni 4.969353782004935 2.647867354513596 6.940539794398102 -0.04133433997241268 -1.0044986376558314 0.18949261697961559
Ni 0.336105738896042 2.408161472843915 1.1996498939813267 0.23388579838301007 -0.6462961447699063 -0.30676423171029105
Ni 1.7622656128518777 5.016839702982212 11.343543834515314 -0.36409289022843105 -1.8340283058695188 0.5725029129378398
Ni 6.115528824337502 7.544352406676077 4.801473259227649 -0.4461478478486574 0.9658089343951173 0.854328215314606
Ni 4.822204101621819 2.9509838037179894 3.3409304567332483 1.47935722317562 -2.016010473404702 0.6254879497753034
Ni 5.825726271583986 0.006714551964444905 0.2173045308443413 2.780864812927191 4.280520381340531 0.32243793369180596
Ni 4.306251127716299 2.2475399502739366 1.2064127587591316 -0.027519031355875186 0.04147703619786405 -1.7488170620084975
Ni 4.121073688663647 9.075320425568005 12.451920604041806 -1.0091898724839135 -0.1143482704362934 -1.139311860814696
Ni 1.9688307627418782 3.1678340082982355 4.6704953640241555 0.37561246083225636 -2.0745439508642205 -0.8409461375807453
Ni 2.9751030466952955 0.3318709349865443 3.19556556316675 -2.3714428597446577 -1.3310256538153464 -0.7594411389267179
P 3.984413463334991 3.623962711968442 5.275262154365985 0.6291990800783034 1.0791750434237997 0.6372486898556573
Ni 5.4314751327168835 0.5402812627098629 5.686431139742092 2.146504500362923 -1.3234306150769077 0.38329080331312054
P 3.7426264143205805 5.5252948998913185 12.514023938338111 -0.526327699933358 0.20465209832887335 0.1099030901807462
Ni 6.945700903594518 5.793979178651223 12.413859398039945 0.9587391720325295 -0.5037670410240227 0.8223349502374612
P 9.31814805825478 0.3126192079552363 10.782577254946949 -2.0637260343131105 -1.3999083357196729 -0.2603049118064871
P 4.808081894639729 3.5147478809983994 8.95110260786462 -1.1823660116916928 -2.0269620873201997 0.39694104710670347
P 6.260680955706705 6.8970721987627694 2.3483018970911465 0.7543832647878362 -1.5293968042315145 -0.799022757874082
Ni 2.4899309094553437 2.3275626928638964 2.5089373560495942 -1.6874029205670746 1.6456137524454304 -0.5747551993071263
