# total energy = -340869.0347611463 ev
CRYSTAL
PRIMVEC
9.23398897954402 0.00000000000000 0.00000000000000

0.00000000000000 9.23398897954402 0.00000000000000

0.00000000000000 0.00000000000000 13.51487625746902

PRIMCOORD
 96 1
Ni 5.384061863830589 7.103670666639369 5.027831196165936 -0.44747530841082933 0.6729589987730732 -2.0896070158449302
Ni 4.925612786677827 1.3355764415916869 6.182623681155052 -0.99465902585759 0.35360870286765556 1.804684819710395
Ni 4.924338496220063 7.938293980519678 8.734894498617843 -1.0447762542289554 0.2609805977172731 1.7966460085663187
Ni 8.628442305253754 6.201371448665188 2.078776802318468 1.008489246872463 0.9298682546344502 0.00969203047678331
Ni 3.550090109431877 4.885149447649399 8.56007939239135 -0.09818760151603091 1.2073085405696433 -0.518671726049997
Ni 1.1656618132342913 3.5302462674482866 0.8492517989758899 2.4147502642830414 2.609197911275087 0.13917715655451518
Ni 4.506426630006324 5.656575342015659 2.6615116754518398 -1.6283819619481763 1.229875884347198 0.4883519920205331
Ni 3.2529957529963114 3.074041049579849 7.211119207397607 2.740782600194325 -0.6425395059409514 0.9237981371809704
Ni 0.8598625755339836 8.179522704567752 7.106811146238541 -1.1967251086268422 0.7564499175088779 0.6233112538389588
Ni 5.726716721125641 8.468795872469068 12.723296202374275 -1.1232033852886076 0.39103959402060395 -0.5019675259214387
Ni 8.579243612797464 1.1667791258820412 6.64379124461771 1.8838511429289169 -2.904222485950947 3.7927409739940168
Ni 5.167931121407178 4.8544741367748125 0.47810362236545273 -0.452367346395808 -0.6796857759739455 0.6481429681706579
Ni 2.311932249937387 1.2055341769779593 10.864122122277186 0.5651996944082073 -1.0387935542829594 0.9101748899705809
Ni 7.794280690814666 7.637801516196741 5.654151419949259 0.6331120419794645 -0.19949549382859835 0.672474602937487
Ni 6.377814507121419 0.36656996495131006 4.762939452356509 0.20830537881074446 0.08109979279580871 -1.3795148596649855
Ni 2.9452361394685878 5.300171075361107 12.977051755661503 -1.606945903561587 -1.0418603661337413 1.1008828674145361
Ni -0.09323927875528322 4.428657976127405 4.967662524986284 0.3209860317366278 -2.474879882585086 -0.7359623390784874
Ni 3.2595426510727954 3.2824521773460797 10.335014562640277 -0.6401116132257493 1.623324859140243 1.3755581890100825
Ni 5.8726506805061245 8.310322156265078 2.5449593451116477 0.04476830535462612 -1.0821721783789104 0.25435872152538125
Ni 4.737904261855854 2.8774309595311736 2.3834291786067876 -0.13636694079922967 0.8994757583855219 1.3574370539293397
Ni 2.6708019916080477 0.26027474939723755 1.2195956951597235 0.29906583462476877 -0.5226260827120548 0.8400830182495016
Ni 9.212464396429246 1.7350572661119659 1.2653584203744628 -1.8432611373216965 -2.3380681409389537 1.5909497852436472
Ni 0.6857261674860818 6.508420045053435 4.1460397439718175 -0.6266904547238369 -0.8507201862483735 -0.6526071745895986
Ni 0.41131233440095544 2.6708943314962914 10.581877866668986 1.4895855857718474 1.114622585598132 -1.6479668260586393
P 5.696974043122316 4.310684534907141 7.772607595644965 -0.41528895348627193 0.21489614465438475 -0.15997866668089866
P 5.533116911433713 3.3308936827187714 4.6044232598039265 -0.9555309495078771 -0.430549222079452 -0.02233980114778088
P 0.8248315921309375 6.193513324175642 11.047384481480222 0.5660517579958574 0.3674936883798639 0.34757612352033046
P 4.789402217529414 7.158132732725556 0.7183369224182584 -0.9334570004269731 -0.7435761468700033 0.8981056175108727
P 3.1587998329988225 6.59991040632538 4.664483893314334 0.3448150158354255 1.0710547283095102 0.18211715045115087
P 1.8090492185617137 3.32549179925651 12.214542200904063 0.6374255817531539 -0.08635847009158676 -0.1364366176949005
P 3.4182287490197467 1.6212483538514963 9.030180840041595 1.0719885529776891 -0.7491947786083614 -1.2437786104712192
P 5.941637811013059 7.332849035271629 10.632247428908208 -0.7556107094370342 2.964790220231675 -0.08821480657403517
Ni 6.795827947212226 6.622552146922756 0.203976042933882 1.699572466050073 0.3638697184740314 0.003561492099013221
Ni 5.442337567301244 6.461178958227912 7.173831437125883 0.4481785051254411 -1.625088378798569 0.6176183172192395
Ni 1.5691778908708238 8.375255565678112 4.837055140256504 0.7061077176109001 1.8570275949781694 0.23348984849617208
Ni 7.989561086472629 6.8606505487593665 10.660966980949793 0.5726268401102137 -0.06777556488307683 1.2662539087555997
Ni 1.292952349178354 8.180907802891408 12.688535774843785 -0.22189751567288235 -1.3444316428086074 0.691421576353635
Ni 2.493241620504066 4.7329179078906884 3.945992763282709 -1.0888650170180538 -0.759493332320892 -0.6307144882815654
Ni 5.3503578046216065 1.7164692466084912 12.115005341770551 -0.03450626130698574 1.6048126592686682 -0.2034069130678626
Ni 3.7238922470843363 2.6012423537940013 0.04840918641180624 -1.9083013055514813 2.0445206650292533 -0.4238383857181798
Ni 4.655278529855311 0.3532896422240884 10.504450870376571 -0.24359479814065788 -0.26536741393105906 -1.2808338634523038
Ni 6.641398718113314 2.9958291642373593 0.8281715258887152 0.4978838427703683 -1.5315699006234333 0.46256511286441626
Ni 3.465109710281118 8.096001275651245 6.876774016645614 1.2611237866178862 0.10504576208844489 -1.412599558034096
Ni 6.068512817460025 0.7594974276029272 8.389453746894477 0.3975948786406185 -0.19529225438052816 -0.35738128253621027
Ni 0.5417627413207207 8.319925504642432 9.818759792048022 2.2420598064624286 -2.3925449318305954 0.5809384452997027
Ni 0.438465801937924 5.6480339023531085 13.178422890348028 -1.089787528832323 0.008620137568843219 -0.6882760887461179
Ni 1.451075173807018 1.2804864642654425 13.217197332820476 1.1912538010996259 1.1756749728247624 -1.499618030307185
Ni 8.454427785858336 -0.08070967931948354 3.823750449028934 0.8768256250861739 -0.3065251191162915 -1.1562042656946603
Ni 5.0794602744808035 1.085150664674532 0.862480411365695 1.4616996579948567 -2.332751870932363 0.2853392290672957
Ni 2.963103907843761 5.751694660895585 10.722567843796107 -1.1227159041292278 -1.009588650584229 -1.34031453531644
Ni 9.031718299180854 3.5118706296877726 2.86105909734555 -1.9724616422794736 0.7865747619187163 -0.6273098334753905
Ni 6.62867428151332 5.019347007234097 2.8520033245054814 0.5984186043623371 -2.1108882938212097 -0.3025728193367627
Ni 0.1366824259773385 0.5452097893488613 11.472183979958064 -1.5861677904739717 0.6055791266665184 0.5824463973037969
Ni 6.9154635064208785 4.7286518050538255 12.164307454901676 1.2683197901456928 -0.7249791005941062 -0.37590685214422354
Ni 1.3035714363263897 3.014943521103824 6.45786764983549 -2.7363099091349516 0.1522404174963765 -0.6621459673179693
Ni 7.282311414435803 1.0027834843610723 12.97464630157275 1.5275366110943243 1.3271026646118564 0.08027601134293272
P 7.694341229768413 4.770583348305331 0.8870612896161916 0.963531194104534 -0.24441755115226937 -1.1062644434414237
P 8.184610632409985 8.289831935063782 12.680454187824688 0.6477526747107747 -0.8293291221671072 -1.2062065657547163
P 7.316153983477151 6.7586426742164525 3.731335765475668 -0.23839654176917008 1.2912447743729827 0.34102058178999983
P 4.458160570421295 0.7086615489280742 2.879749614124975 -0.5663983427019987 0.6046638139411006 -1.198328705668536
P 0.8569852646163072 8.326786358338946 2.487372497207291 1.0014863331920687 -0.8918017867800319 -0.7181697909817567
P 7.579885938290237 2.7729206740168535 10.971336119719286 -1.1485698890778542 -0.10749730895273099 0.9923141797744973
P 7.509956940923216 1.6726632036256377 2.6100737407056376 0.10872963869793532 -0.00014783843177393894 0.373798290441653
P 1.0240678286012657 1.3110140313188392 4.732409115106465 0.48667563275937475 1.1254186477723715 0.42504011933576474
Ni 7.168022334756466 -0.07977981664486858 10.621516610495398 -0.1071628084314477 0.8622850082678375 -0.3908961264642042
Ni 1.8371851825095962 2.6446698032350553 2.7827133191651074 1.609342685928538 -1.465207156927483 1.2810886597755873
Ni 1.8290592723441428 6.231418848299716 1.5277893061621928 0.2808464834032647 0.3199799590696167 0.8156130581325954
Ni 8.18816571810737 2.1388688313908784 4.923590543125288 -0.4202324135344762 2.347369106624906 -4.525896439751327
Ni 4.881852913639095 6.08307481783607 11.938068264912218 0.4135321186961652 1.644547773074761 1.2531549094797967
Ni 6.763241200650993 2.5802996671403102 6.655955178096065 -1.7432477954508365 0.5392210109562584 -0.37819719084029707
Ni 2.420136130981459 0.9055948285856024 6.671916127779004 -0.06533584509333265 -0.08472170581911216 -1.0844959414160804
Ni 7.844218102376906 2.401594281422106 8.80940170764399 0.6219542255904321 -1.280995842951465 0.6630504814101097
Ni 8.967680586683786 2.972199386835774 12.830995907628536 -2.976127242511049 0.3835144892881524 -1.398163070893792
Ni 7.95930130509514 4.245437169874079 7.468577590203409 1.191704001263167 2.0581503399975456 -0.5121724914788987
Ni 4.100445077353682 4.97091473585023 5.806612886029696 0.7924407337811901 -1.1817103803855646 0.13394393318003384
Ni 5.615927323210744 5.580413402192182 9.717668852595368 0.27391478928043794 -2.4386460970640327 -1.549122821905532
Ni 2.9273776050822393 7.948931535645363 10.97003874428946 -0.008554831548546558 0.5870862100686534 -0.5725504783463237
Ni 3.391034651931951 2.5098812683655973 4.773386787312411 0.038079580480540866 0.5283820113592255 -0.32173293720498136
Ni 3.2820551158266316 7.909077639879343 2.8517059900653368 -0.10020077529131777 -1.027925501220204 -0.4021804411287719
Ni 7.336154803270756 7.611687795801398 8.448000006237685 -0.15197430831918343 -0.033245649427007265 -0.8190261975792025
Ni 6.719545965534033 4.94183690504226 5.328888780604926 0.3010263007852493 0.25366915165752446 0.42015810865311515
Ni 0.06845525275065033 6.186901788177386 8.345733580007689 1.1198509238766068 -0.14999044511993523 0.09471995468240461
Ni 1.230188927139051 1.2074086767093084 8.685780758858735 -0.6353658710106477 0.5542185128063551 -0.3864722863648957
Ni 5.574614457210472 2.773807136943994 9.806542301434485 0.14066119729920937 0.5374618621733066 -0.3034567646036128
Ni 2.1645762562779494 6.188785521897559 6.684903733060493 -0.9537154935656932 -1.153384536857678 -0.2439077013953864
Ni 3.78768987587197 9.301027583243863 4.646387122016317 -0.24254553094053716 -0.6711011196287281 1.684342536474196
Ni 8.282537083892523 4.7408499042908305 9.88037450587757 0.32519878426639476 -1.5679260706549643 0.5451381477716418
Ni 7.773596555848056 8.671306481376522 1.1733786576948249 0.8803274675918451 0.4926547331609451 1.8323216075910573
P 3.083792141778393 4.304839419981309 1.6926704872114193 -0.11176585442109783 0.022667616800844833 0.1150175285891761
P 9.071332111237439 5.950326994496799 6.197300182992519 0.09484053942066893 1.7274211128312251 2.2291824362791286
P 6.051051344593125 8.601506759853041 6.596773620321739 -1.2480258157833473 0.017686618646485665 1.6359158084313763
P 4.900634846907882 3.954363374152009 11.903619022805106 -0.7496051266729026 -0.9726699231810088 -0.4829189939304199
P 1.1810641065933551 4.093362607925384 8.935198184196269 0.10439578720927181 0.06109635309068834 -0.8080391024400794
P 8.520617017751484 0.15209210652746197 8.70532357280665 -1.9723225455984483 2.1040980103722537 -1.6962369739189367
P 2.370743524759856 7.645068665401527 8.62003106483363 0.25607339022364284 -0.7159758686542314 0.6321841308485564
P 3.553654429118087 0.18135831070744837 12.58394423022781 -0.2875488351241048 0.4257800828255828 0.21442537566555328
