# total energy = -340897.70962929155 ev
CRYSTAL
PRIMVEC
8.99918457023249 0.00000000000000 0.00000000000000

0.00000000000000 8.99918457023249 0.00000000000000

0.00000000000000 0.00000000000000 13.17121627005635

PRIMCOORD
 96 1
Ni 6.472996371243163 1.917564216755253 11.331631747308602 -0.21000359244877384 0.24430879348854698 1.1303019440066018
Ni 4.594380624701803 0.3213437775519201 5.876113764970582 -0.4932761687950279 -0.3442696848549167 0.8445091723416553
Ni 2.7118322345644468 1.5982551548030004 4.675926734416033 0.12960133994062192 -0.7515026008059316 1.0932754873809236
Ni 3.3232638223053264 4.180724113183365 4.861232540691994 0.25128548191669625 0.509020061892846 -0.40501713924661864
Ni 5.038661360836202 4.544210171503455 2.593254480919955 -0.5012026227309562 0.00889524560710081 0.6866521799894497
Ni 7.236658162805257 6.222396082415465 2.496551044869943 0.1568653178628976 -0.545598375237512 0.770106589060364
Ni 5.077411848992631 4.372550728497445 11.595359146464627 -0.06806249999587632 0.055779311753149104 -0.09677786565269784
Ni 5.572061020382844 7.767556049080302 12.29810905829249 -0.3451253479869927 0.2095593058225036 -0.058648148660511906
Ni 1.8905576642802315 6.415653568053947 0.2762047683684946 0.5492169458267058 0.2960360466595095 0.055837932905226415
Ni 2.7943007606827726 1.7377155159177644 0.45134869558587615 -0.2592476741865664 -0.5497694758960661 -0.08073829569133192
Ni 0.6120840286120691 -0.01996199090306315 4.635372809699794 -0.1855590862531643 0.20589137005261315 -0.06574130806186743
Ni 8.331228965050126 2.196403946324909 1.297821882193086 0.8861972961090608 0.8691367410823483 0.27685535996600064
Ni 6.821003832343314 0.6646329662553189 4.791029902952027 0.09209357280315107 0.4192836764679617 -0.8153616042434216
Ni 0.7550414727964078 7.4461771747091055 2.315947312458761 0.628508224658866 -0.4365062109938353 0.44440978211162824
Ni 7.625827893489129 3.872169076625197 3.8477335911418833 0.2730930647100909 0.02019575822158457 -0.6454026864213595
Ni 7.564759427945812 3.8885925882103067 12.688292997061644 0.3382216788886239 -0.6423579860577647 0.018603731144116346
Ni 7.957474837295182 8.829252830601662 6.740922789854319 -0.2160716530197246 0.011261688956748348 0.8514704341508369
Ni 6.760880281165167 0.6324716809386806 0.2301154453092403 -0.35449573345829916 -0.3580394849454995 0.6100942409280524
Ni 1.9204079590351952 6.512421798231856 9.112769436319692 -0.17278224620347019 -0.3567732166385662 0.06022834866343821
Ni 0.1715100565444679 5.068628644988758 1.2763840250434706 -0.6477115370601942 -1.2260932773763142 0.37053401786808443
Ni 6.383517480453713 1.9032825110645302 7.082834203421455 -0.09480068732166899 0.16393353756358864 -0.4775387034551131
Ni 3.2270535415620896 4.295652697541411 0.5446072438360084 0.5105203005874563 0.14371335386197187 -0.6531635613137009
Ni 6.033287220799303 5.660774980495726 4.690888778449679 -0.40816802617077447 0.5245353839196257 0.3617107631494996
Ni 5.4005815610654375 2.7066577035170836 9.378406462411807 -0.4662852420284808 0.9678506474154945 -0.46301968390333165
P 0.11171497559802346 5.55319872981715 12.229803448630408 0.6492261739325077 -0.5770625072840643 0.6500692386590934
P 4.016650982652011 6.053931349882175 12.557253172818216 -0.7903992778711292 0.010173855209208285 -0.1328681836173518
P 2.472678908331959 8.418692038527212 1.3060615354573746 -0.16875152777752228 0.733244425926692 0.49121671516283794
P 6.203587786956353 7.769157903908877 5.770151967978784 0.7317501007693527 -1.1874786503279098 -0.3900486908622444
P 4.645756968613798 1.209130420041279 12.538036314385973 0.8620914041997927 -0.32268733069845074 0.283182587735609
P 3.9572203686749896 6.10568565954024 8.197369696324717 0.024555577852177064 -0.4004066370578007 0.12413671728162491
P 4.722043055028579 1.0568732186667746 3.8125134830374208 -0.46269212536058374 -0.08664000588774756 -0.9036478874853404
P 0.1079677152012894 5.721375488448674 3.5061641465830946 1.0360504443201835 -0.7020155498193974 1.0705713609151886
Ni 1.452027406996728 1.1380278638582917 2.609915570974022 -0.25468216630307106 0.6220575839375158 -0.7849719362079707
Ni 1.9873348936425708 6.487764032893116 4.807875476286912 -0.7427407954529015 0.012096269042901748 -0.4903669655680329
Ni 5.969321017869462 5.539070010261741 9.310351030076884 -0.3468981236166993 0.1626140474212167 -0.5378914935115574
Ni 8.46239207812025 2.2255073087721664 10.013891070297717 1.0372105260665556 0.8868871230872338 1.5731700926627228
Ni 2.3351443726852574 5.181145447919512 6.847689113934177 0.05173522359076252 -0.25866171977610936 1.4880964028208306
Ni 0.7826869673659731 8.88392287601511 8.977988651108632 -0.12210117490883488 -0.15343520913542608 0.8291661142266817
Ni 1.500793987423966 1.0863275493068096 11.3477663850735 -0.741308433881749 -0.07283395324259069 0.20172361182816873
Ni 4.037961051382718 6.853499887320756 1.6427408231967935 0.026216767604683885 -0.23040221070978384 -0.620804171146389
Ni 5.6231853871307935 7.698523305316261 7.874332272263033 -0.576884072724671 0.5083682872414599 0.6502888108690671
Ni 5.2723431829351295 2.901310062742246 4.925073654958255 -0.1479317628186936 -0.26801230775307394 -0.09395865103634786
Ni 0.870357022084953 7.440102725218721 6.979097904739244 0.3400708162822208 -0.24325746940589715 -0.5076398937158677
Ni 5.108926992867182 4.438388761788767 7.110889160882595 0.38415700796815777 0.3823029854785545 0.11183116044139449
Ni 8.069019728307474 7.274643720285118 9.061585674954504 -0.03610882990741523 -0.4764930357994181 0.0411096255561163
Ni 4.657788878196971 0.5109871907232352 10.405801052640586 -1.035883836835332 -1.3026969820739822 0.3114932617548442
Ni 8.234325747105764 7.120451694258121 5.021130949566178 -0.6243468941923247 -0.4143810969600218 -0.7372507188726077
Ni 7.232158570590157 5.987589362262764 7.14568720723728 -0.1226174524236211 -0.27886056332148745 -1.3610785073366687
Ni 2.3393829885518804 5.231018928031665 2.6299891517640193 -1.1958643032884437 -0.17808566069425458 -0.10680851041582251
Ni 2.2795474112755 5.150206251848495 11.218793673493689 0.31215146416413336 -0.15379542068832222 0.7276391639247726
Ni 1.0457052307888999 3.380570628756822 3.8850613082398975 0.03868841770913337 -0.10354809449699585 -0.9079367446686816
Ni 3.4946892865161505 2.7183026481697588 2.7662584020798353 0.12035616719327014 0.06862917113262375 -0.8775465624125983
Ni 0.995201807766634 3.4572076833643797 8.131210392149237 -0.019446538760385865 -0.4729415710027339 0.022526206126974112
Ni 3.7234305563628998 2.6122202621065953 7.035510192258378 -0.9457725845695324 0.2703437840997279 -0.6391307373697186
Ni 4.133406401449388 6.619809066037398 6.096218517519672 0.4320682298271397 0.9396065649681367 -0.8577261852525615
Ni 0.8827884954568272 7.39617770601493 11.432470308604287 0.29434760321349307 0.2564197178194681 -0.6346978984093457
P 0.22287380159826073 5.558625238028559 7.894511143510865 0.16227260492139797 0.23093828571891195 0.2352256002403562
P 8.487814774135556 1.4092182866622807 8.13143447184155 -0.17256164555223186 0.6596116309318898 -2.3336345306476325
P 1.6157135725975826 3.1526482846932202 10.296414166054653 0.47445517943378285 0.7531910442519479 -0.22827796527792943
P 3.9581292863024395 6.0666921934041955 3.743404246205722 0.5699027563108313 0.7705909848959502 1.0731180385964423
P 6.954821704820344 3.9313387142537426 10.507600726833417 -0.12268532954707903 0.2573463433987955 -0.873319154594812
P 6.221757140320921 7.720616303092394 10.162528799694396 0.2808395414247292 -0.8045729982683498 0.4090889953231471
P 2.4616729057738285 8.476484800937937 5.701134522828274 -0.01733566306497015 -0.09896536022231989 0.6037654704965472
P 6.87196621377152 3.9344254345133 1.6559246283870324 0.9866024741017008 0.6722177497316746 -0.0739061032608469
Ni 5.1944822392450645 2.9721516425767573 0.6621167942886357 -0.0915407856234746 -0.8252770635849207 -0.9347901174160997
Ni 1.4914618331698517 1.083888770326226 6.951728685131686 -0.03509427259997182 0.1688859964728575 -0.16412071387373026
Ni 6.710997801868585 0.5963525543096416 9.182418624217203 0.27367027736979965 -0.11005324260536531 -0.7541066140876819
Ni 2.596993642050702 1.6041856173425002 9.16492690944023 0.451387498981042 -0.32076748796791854 -0.29400744626525493
Ni 6.260993584436581 2.1261833102160814 2.723267498219898 0.3928668770373298 -0.8565684174990345 -0.06084695608404359
Ni 4.042316656646933 6.7349626300061995 10.370330767208964 0.6534944622905584 0.7780135026122665 0.3535480248330492
Ni 8.200236836484178 7.156970384675861 0.2291291346956907 -0.6915858698456413 0.6634788271967799 0.19239513533839123
Ni 7.494304813041798 3.783545108356616 8.258273476792962 0.25539461898906335 -0.0018578791443451875 -0.08126717161160843
Ni 3.1570398866951566 8.3401021608983 12.36195017255875 0.4565315050758267 0.1743393062779449 0.4004156359188652
Ni 0.13138359308866218 5.040362206693509 10.062558659696224 -0.8672834899236934 -0.9514842902423292 -0.003039815267588313
Ni 8.63140576090378 2.267398512294734 5.807004528138884 -0.5093275658309357 0.36319326123229706 -0.009616697154157633
Ni 3.556630672949197 2.6420255609394077 11.27946077541142 -0.26365891588038465 0.11122206610248588 0.1704109177578162
Ni 1.1267878825049755 3.292612600136075 12.437381336452663 -0.9621582250164075 0.37665015806815133 0.6457572415473007
Ni 3.114599732922347 8.372247247682965 8.013420967060831 0.5555853112468947 -0.07845901273885197 -0.3111366497463739
Ni 5.539555966220972 7.961263493940295 3.4209076731282937 -0.026003366042297152 -0.27418295534016 0.960799654105984
Ni 2.989340084838434 8.309450938729048 3.473525904491656 0.5531597325245377 0.06383689195030295 0.10630457419621045
Ni 3.509339958768511 4.183765837520771 9.251831133564199 -0.3988920001854872 0.38120075355331123 -0.4425441896577991
Ni 7.0298389062304665 5.951574626173114 11.513882330470508 0.7013534907553662 0.5343868227924087 -0.7747667135401948
Ni 0.6586107120346311 9.12139335475915 0.40497139862485554 -0.2875542344407435 -0.2372709128051591 -0.3605249703715146
Ni 4.62940545050413 0.32776019605065065 1.5222237453075944 -0.6658447563257952 0.44580614823852255 -0.034458438788185816
Ni 5.917278734309633 5.584893857380305 0.5628854873321818 -0.2886145573844578 0.3703581544118525 -1.1780535003592678
Ni 8.067606856351933 8.772584966244711 11.112449411163608 -0.6875191559754353 0.06905083205107462 0.1687661830655416
Ni 0.22306278447129488 4.853755118348943 5.706034578750517 -0.9183499695822056 -0.1770621045257467 0.1420915019878327
Ni 7.902327835106934 8.784157917421945 2.399005285157265 -0.8646298543509302 0.3235345091900944 0.038511782921953036
P 8.434035647980698 1.6046085790107194 3.472973354567642 0.019090955193180024 0.3587599080512918 1.3017029935918292
P 1.5555990206038663 3.302772679357768 1.5596432540867968 0.48454084580455903 -0.7187313199121814 0.5048363628288015
P 4.5524354260726545 1.088352365803604 8.202097867824342 1.1442218965218036 -1.1593651799211453 -0.4151418863854463
P 8.458036472856033 1.5157596311313837 12.349727480265658 0.4253172842565514 0.8028917539111851 -0.42623542519544655
P 6.136579859689105 7.6933847710066185 1.2856054893290938 1.4103889235360227 0.28323041025440904 0.2182781737527402
P 1.7796427161780524 3.1153826619677742 6.020984435764781 -0.3534145845789784 0.15247258811184064 -0.00692449503397517
P 6.8811633802591805 3.926002197886636 5.897701908500183 0.8635265939844224 0.21831082676288857 1.26662980403778
P 2.5055169323177484 8.419420972466057 10.279370610662303 -0.2896062318737658 0.22356179074918273 -0.8359556263446893
