# total energy = -340868.1901264579 ev
CRYSTAL
PRIMVEC
9.26594089963666 0.00000000000000 0.00000000000000

0.00000000000000 9.26594089963666 0.00000000000000

0.00000000000000 0.00000000000000 13.56164112227754

PRIMCOORD
 96 1
Ni 5.170784288480312 6.178084742569242 12.8134186590697 0.42128759427186807 -0.4520305318816796 -0.4240404744266569
Ni 7.187988926099796 8.627082234209002 5.981117706577945 0.8948331174071881 0.4256093615756735 -0.22176767496323743
Ni 7.251803462272278 3.1231225025525733 1.6419349507410348 -1.2341495720218874 -0.032024118315080334 -0.6731873127337955
Ni 7.150239482166779 2.4759891779865635 10.105443673993154 0.7909872891641151 0.5889559162875404 0.7677062071489875
Ni -0.3249445077206187 2.6357988636794327 2.9352685196069626 1.3426043597918813 -1.3168254510555646 0.26862808696020185
Ni 6.959842924990628 5.937114679014493 8.68815683160608 -1.1478885467401134 -0.34235035634501687 -0.5136763297179346
Ni 5.526235053996873 3.039803160420592 6.310082706130311 -0.22723126918096992 1.289994189795333 0.8744933774085714
Ni 1.6779136733349258 3.322340235630597 13.024966579934095 1.136254819155927 -0.5018567113751874 0.18279849278889163
Ni 3.6850277011254815 7.102603279108447 2.3265536399194695 0.7345353768239736 -0.03812406056523112 -0.6567939589774366
Ni 8.335121696927352 6.662230163654207 4.960115705423783 0.5126939112000074 1.0653633343516877 -0.6996223669968725
Ni -0.030858363556732254 5.481035793440845 2.884805277927138 0.4227973460481751 -0.03487341483841736 0.5621429098597545
Ni 1.857709993923111 6.914801185432848 7.526195775278767 1.7162406707343731 -0.38597657767539983 -1.0278365410508234
Ni 7.572655203820776 8.165573507166343 8.350391041222203 1.2702159787271414 0.022368854613503412 -0.7339393951111877
Ni 6.72534048830511 5.529978494190526 3.376916628552902 -0.10213964418524343 -0.1270433494054586 1.4061664008142427
Ni 0.5954201074353835 8.407405303240918 8.730727344679584 0.5816948638497531 0.8580660850904834 0.3873644591618619
Ni 0.40846584736799973 3.2112971978070135 9.283594544329501 -1.4826778029084209 1.9467886629934021 0.05060239553789995
Ni 5.548306525633704 7.59369815599846 7.419302952461958 0.5254501824244112 -1.279348794266345 -0.4230685974316908
Ni 3.921077549970257 0.5217382706138423 2.9974077736333737 1.4621907386986623 -0.749692029959754 -1.6416758508436051
Ni 8.51544617615672 1.2155524797135155 7.9325564008348906 -0.36034242204706324 -0.19552853876105034 -0.7807686967599005
Ni 1.8582659503875147 8.491716101067752 2.6818283525556366 -1.5077221474715583 0.2570128713187767 0.8980158860105438
Ni 5.066551717345674 4.075077490610106 9.476156551934507 0.2725546757081177 -0.6105105025298647 -0.3112752322067671
Ni 3.285776832154974 4.068424544919407 11.34504497716856 -0.24354569007027738 0.1346126771122843 -0.6316724813194605
Ni 3.025005452526378 1.2411635408403836 12.685668202896675 1.3335707888347035 -0.15803388424970202 -0.759611345955995
Ni 1.9490721729068001 6.874429480176059 9.96852549572211 -0.3848671466613049 -0.2500899189466983 1.5989050355349819
P 3.751510828327101 3.7945418586719546 7.4434157109172565 1.6819552671889417 0.8720675415758982 0.7326417593456865
P 8.732769558092162 3.640541918032105 4.759294964540063 1.5571009550150021 1.0910178016949985 0.8982755674298336
P 8.21895459369018 3.8019731434128183 11.760357428395693 0.05120480500858923 -0.45267459322358167 0.2390038363358658
P 0.9754626805607398 1.1679255425962576 9.291405732654376 0.6774985385146397 -0.8570638690782143 0.5194361150198473
P 5.701602254751975 6.856296033495422 1.2088022416415463 0.3991761070848093 -0.07061072033902678 0.4448970061606919
P 8.963797266875156 7.660996686014539 2.7915417278351877 -0.1404863622842419 -0.9255079207832254 0.4176232580464034
P 2.8140663039905074 9.018549712677855 0.8435203126461107 0.6690738047860542 -0.17412564760524207 -0.5825068182280871
P 6.206253203432367 6.75406490563264 5.389748668579851 -0.47501362304041417 -0.8436344830461858 -0.7622215298853325
Ni 6.219642488283425 7.756417347188375 3.0559666680290247 0.4866848887307553 1.8149718034587 0.5757949534255502
Ni 7.2326600280146405 4.596749973042327 5.889549823702427 0.20194421247940703 0.9271693676460484 -0.306426388754898
Ni 6.393554936290003 7.7124041270897425 10.235621806727407 -1.4648052935033742 -1.4454541426702718 1.5365789238022505
Ni 5.094525593446258 5.459473948563052 6.797881687780516 0.5157141860835699 -1.0459985566718308 -0.28334251035224106
Ni 2.958522325324758 9.020004465426378 9.137332591080046 0.9719674977973455 -0.012123779846727509 0.6768902155066794
Ni 0.7261171328697482 7.053188015364023 0.8099701932075567 -0.36517326777680337 0.273135230801936 0.3242549322958867
Ni 3.7190615026880667 5.966070744868857 8.686475063301257 0.49156407119992757 -0.15366172332393535 0.07546110645279262
Ni 6.705557704113409 5.309662213288378 10.959921888552662 1.4696407672188043 -0.9739824713448453 -0.1355920103064181
Ni 0.6851255361551495 4.999104932272422 11.231466777867297 0.5111833880927519 -0.3690371216075838 -0.46449369734569684
Ni 4.365518413555718 2.8258803788590874 4.24323393602189 0.5056092364390841 -1.3820988183420777 0.9445986188660893
Ni 4.944787985700172 8.60795733183351 13.594867359059235 -0.3744204974066842 0.5509264723186448 0.3607761671503722
Ni 6.439476940249755 4.100484701033359 13.122556397913211 2.052698829964671 1.113393084066405 0.6440716263147618
Ni -0.06518774863955883 5.6356380202504655 8.406088613014388 0.3620115822193701 -0.04724916279495088 -0.3224903841962962
Ni -0.0029891925902777003 4.381381704673372 0.6044136298412222 0.5065960258323856 -1.2742459258221408 -0.33145145004432597
Ni 3.6673204877342207 2.8521956515075337 2.038355074713619 -1.404755379399329 -0.9036702560828437 -0.8571422877246334
Ni 1.648800086482314 3.8371744535506513 3.5413240742063903 0.5638938311125902 -0.2627690570762636 1.6931732473919485
Ni 7.559877471080563 3.751473764562807 8.169478174734673 -0.1630771031005643 -0.2459908091766602 -1.101118123353794
Ni 3.906752405070786 8.06536235445756 11.063681896692556 0.5041619624695962 -0.1645266910628973 0.7143493887944019
Ni 7.514789401817415 1.801456465666521 5.4219987764858075 0.5667930070372562 1.178255846178061 0.867776627510028
Ni 0.793662136918379 0.7068597275369083 13.193917116495866 0.48831728212785575 -2.028998143913622 0.4518757514713702
Ni 5.194708948331821 0.8460888315116561 6.4840915199240525 -0.04544244860351528 -1.6740118439721494 -0.6325070614056139
Ni 2.27197168743252 0.6397761673537324 7.188592138863674 -2.2012841672069636 0.9497750208607062 -0.08492739407201502
Ni 1.527666438829802 7.5850622989180545 5.206978907501213 -0.4307592812077291 0.3034148556220839 -0.5033700626959201
Ni 8.749615038963597 7.213535125639149 10.504765890709924 0.5122478248015242 -1.4507567858301078 0.5171583747292642
P 0.5201306298376079 2.1487624689795672 0.9653118421148338 -0.9055044810781051 2.1052110409307745 0.8815618542195786
P 2.285685280221147 6.056719446389894 3.722805869475826 -0.43762155554520116 0.42779711325561165 -1.0192436571754897
P 2.495577377415724 1.835860904872042 3.7720080165755614 -1.183480327801794 1.0599038538990133 -0.46534370405081793
P 3.8209961204365013 1.4786588764926083 10.488030674537264 -0.7463418825405985 0.07197571900735347 0.2931695237449919
P 4.794559283077194 6.058313188254519 10.688309357868192 -1.4409441706150603 0.16014501705543388 -1.1602205859429053
P 3.7643256248316086 8.322288368540699 6.905126616358115 -2.541204059733617 0.4544049456511271 0.114427460413661
P 6.417368404848632 1.8875833879437411 8.111190772412472 -0.22586652762295942 0.5754961912382088 -0.6349601509317968
P 1.1851694589338484 6.892192289213761 12.235204477613507 -0.4060388956429137 0.42787373212981794 -0.9530765744301134
Ni 7.508710944473267 5.437198626222607 1.2426748158294545 -1.8623664906925796 2.2164372207983183 0.18772472644591542
Ni 6.275534644838152 0.872329976631515 1.8769043908566518 -0.010065097545485891 -1.1235677106065618 1.2480528123665409
Ni 5.290768959439722 2.8204968670954442 11.8895320597117 -1.9567259767117722 -0.6216477500936067 -1.198800245988316
Ni 5.76496275981186 0.8332221457371379 10.968059238003319 0.6253997609368713 -2.258307121559227 1.079166044562735
Ni 4.268856116278046 7.891032939102679 4.610605334729376 1.0646588520854954 -1.9030032903773355 0.5478861428304241
Ni 4.98666077341085 4.524762876843109 1.473499600502941 2.089289484604511 1.2309326077464866 -1.5834905007521245
Ni 0.3674177284128534 2.056288377067071 11.21859638571635 -0.1904398113842333 0.016657663161339053 1.6348169189402426
Ni 3.045371991005703 0.36277271215275975 5.155023849308572 -0.9588132198035746 1.0630858511714207 -0.29857449681064707
Ni 2.9688353177394484 5.380963629848164 5.595343222304587 0.6465504268725575 1.326468373461967 0.953145479994836
Ni 0.615202891627085 3.0005618999747576 6.993887845682501 -0.692628966398175 -0.4203511985005276 -1.5742664110506952
Ni 8.236105850617038 6.112657932649989 12.74646482206155 0.5001854943203514 0.42910940430913186 -1.0008335300994182
Ni 1.4233412082844312 9.001935880333255 11.21120587111621 0.39752880128937346 -0.6042259550727336 -0.7478115251075894
Ni 7.60490994469727 8.22378214898942 0.38824015119298994 -0.9411201733991856 -0.6196944830219778 0.029637877471090895
Ni 0.6630151475658109 5.202714721419236 5.965264607995471 -0.7540438791705465 -0.4850838627922226 -0.22590226595690124
Ni 7.797715646552503 1.2806457157541258 12.759402855582337 -0.904810540334874 0.44164713176482645 -0.1059929564930626
Ni 8.912315698271366 0.2463517221301772 4.0859464394892 -0.5100323052074441 -1.1300880282235828 0.3044163003034048
Ni 2.6722510758621745 3.187937760360981 5.820887347160344 -0.9017902654513114 -2.0118185468105416 -0.5023783882066123
Ni 8.347621451435364 0.17956096568492078 10.241900408398742 -0.42558159366153153 2.4659820658748237 -0.4123946626576124
Ni 8.779859070627161 0.27288567098795535 1.890425252070952 0.29491401723992433 1.615034851217309 -2.0060261084984807
Ni 4.301138654977759 5.036215026271374 3.473529816342885 -0.9415330925668882 0.5089966648540782 1.711087408668208
Ni 2.1245505649547822 4.921558271429166 1.6051019083801763 1.0791385337589092 0.8828990849737632 -0.8009917086749947
Ni 5.669449439227289 0.029734404904529263 8.822552820716943 -1.746779976973811 2.138366187526504 -0.049524589092688906
Ni 3.0348088181820314 6.8440279275142455 13.45725701499001 -0.5480301246074561 0.679600672459307 0.12390686065900595
Ni 2.5824270430966685 2.528610457342382 8.777447146165757 1.66388452573016 0.6200660074287837 0.5193165587228475
P 9.095040056238743 7.497045124661861 6.971293774969132 -0.22827436573350363 -1.4342994116050332 -1.789150471520222
P 6.324051112298457 0.5201334096199299 4.256958647939805 -1.384852212717499 -0.6643573731469913 -1.1705451077973645
P 6.1741374516719745 3.5136911847373073 3.5089386835607623 0.5273124324441305 -0.07149800803998654 -0.228723023235148
P 7.500631043857266 8.516363504322987 11.828409279421042 -0.5320422338196321 -0.5324942337553862 2.2989914866524663
P 0.3332319654166645 0.9123421633746557 5.853001245732521 1.187469394356529 0.9602502093604172 2.478292507811061
P 1.8609808711220197 4.820439056495191 9.152182188244272 -0.35495441826227253 0.17891072769871125 0.9119242685615198
P 5.91375524156846 2.003009215895041 0.2002620046369958 -0.7112874620396267 -0.22901047256857976 -0.46018452844738167
P 3.5634307564192995 4.606673795931934 13.465367493211554 -1.0423254786956178 -0.37820259015693575 -0.6940232756425402
