# total energy = -340861.9016257155 ev
CRYSTAL
PRIMVEC
9.37766767452628 0.00000000000000 0.00000000000000

0.00000000000000 9.37766767452628 0.00000000000000

0.00000000000000 0.00000000000000 13.72516455084630

PRIMCOORD
 96 1
Ni 8.543064784397048 4.303768125415464 2.8858122323224524 1.6374674691892122 -0.7376664662537877 0.11100352233377657
Ni 1.4781830270602754 2.1848090545112733 9.9459545163304 0.5077861894857448 0.8704019809480171 -0.5217760760069337
Ni 1.0972152708600846 7.297213478194859 11.089288219885056 -0.058481541175660574 -0.4961375495032229 -1.0033609245069623
Ni 2.565157884633699 5.857966528026724 8.431327996491166 0.5723792428757819 -0.0460271174623917 1.2842498311123884
Ni 0.17705974658008133 6.114914626977745 8.543667768439478 -0.8798286735785558 -0.5676201309242418 0.6412202729088956
Ni 3.657731209910544 4.063512275228414 10.105990044704798 -5.071350061880859 -1.3580559184602612 -5.843048935129008
Ni 3.0714487939135044 2.6365688252728243 0.2285103212112776 0.021212372411557018 0.5150184455681259 1.058629358061964
Ni 8.397335826086872 5.659957071481074 10.742864978725224 -0.5108730559411847 -1.3651205386165264 0.13477311394954852
Ni 4.158855024207795 2.58382882131295 2.589828653200135 0.0523574305557937 -1.3154581383943926 0.18166617895666132
Ni 6.313083503876759 4.790440953563681 3.7056848522023667 0.07663918592129382 -1.105335246758935 -0.5579658956639293
Ni 1.3886356768090602 1.1804420729838185 3.217041776039931 0.6627136668959812 0.6881025392827311 -0.322719983708599
Ni 6.539310362967796 5.888021953469718 5.689561431100727 -1.68268726025896 0.38856722122071147 0.6432337037944987
Ni 1.9961491328070162 7.092827207514659 0.02995695993062178 -0.03291937643584008 0.14084657383713806 -0.3262177124492124
Ni 4.818977196815795 5.054619234423141 7.463991549749762 0.7267433915833806 -0.42595620339213097 0.9996405382325815
Ni 2.21903754214526 5.365657721503705 3.35943978673159 0.5748405599320809 0.5087328696697303 1.6771357343131117
Ni 3.833740657691994 5.366239136910091 12.849018844187166 -0.736715415194428 0.09558513089617733 0.2469115212187167
Ni 6.219006740056443 7.210282497272378 7.83520278032409 -0.23056676131210616 0.2203779937045624 0.5566142667320414
Ni 3.612371430544629 5.997149874181142 1.4247818975173343 -0.7505335520244429 -0.6876914198872414 0.6005135392181529
Ni 1.8646742296211287 2.0294586089921998 5.429057320502909 1.699726475129434 -0.750421709036927 -1.0127076558291852
Ni 0.979150432692444 9.013336071484488 5.11785284870149 0.5458094628070534 -0.8951295656016841 0.05512059512322766
Ni 8.23652757788205 0.6001172893686616 4.621468507733065 -0.33201375030569913 1.518052839973605 -0.8777087990220754
Ni 5.061033559229072 8.487051974359296 9.938583669404286 0.5551322828698761 0.38233049628238025 -0.0712447543785999
Ni 5.35466709478945 7.884818145358034 0.25496847326895683 -0.04520822110552214 -2.1142587529553394 -0.45789727507510175
Ni 4.454983019414924 0.883262841211273 0.5276213525598784 0.8381611186364404 -1.201757528844427 -0.45939082890149274
P 0.04096165314664453 2.6603693462632507 4.206077208407713 -0.19790860895745271 -0.6148824063453153 -0.28190217836128867
P 3.103895524656955 6.40707586868647 10.578204384569707 0.0991193693016809 -0.7290607268626476 -0.24528966934457758
P 3.5969732999432575 0.9342820431216026 4.283802132806828 -1.6541261607918158 -0.32239345360711574 -1.0842136342889714
P 3.8781720479412614 7.002698441857058 7.019886769250026 0.7060583524302033 -1.665672213758202 -0.09436231423266975
P 8.314756083044438 7.415090763005602 12.17879129670947 -0.37630383047232613 0.12359575717649036 -0.8570826381312916
P 8.325390358380586 5.910500223294009 6.736997227739581 -0.3081192030762887 0.7797304853033732 1.018457928049401
P 6.197194284649142 7.75285560344421 4.0293381780679285 -0.959959931813508 0.49409712203442646 -1.401108012454729
P 4.243469721172579 4.576948967406055 3.246660202161351 -0.8028213056845658 0.3316507105393256 -1.496540676933442
Ni 5.562757544268398 0.27046882044983794 2.5997249060768874 -0.7024132994784484 -0.6546342323219565 1.4725993356264961
Ni -0.0811918482013847 5.634440437275026 13.03643622490197 0.6240337338272801 -1.2379802586218873 -0.9267448785141201
Ni 8.254926562193798 7.05760468708911 0.6565886673640322 -0.8322866621335343 1.1478756912243069 0.21244871155515668
Ni 1.7528174075668304 4.668765713275743 11.462338411123772 -0.25095355249857426 1.0507882647509903 -0.04635878977019758
Ni 8.274600909332456 4.205949672125022 5.294537488567774 -1.7329636399160089 -0.9875581531467507 -0.3278411069852483
Ni 1.1203874881049012 2.8098212387078645 12.631502900757281 -0.5972700925801907 -0.8608765579560852 0.8490147735214927
Ni 8.23342356982538 3.586395290614179 12.252001811808038 0.7679293789033871 0.4183879041265698 1.6043115512625339
Ni 5.832768734527403 6.315559208187819 2.0008820417683513 -0.4106162306009509 0.9376574116615658 -0.27252382247018225
Ni 3.7428804339424886 4.785583321620008 5.349547825912905 0.05799868800197108 -0.2872863254913375 0.4592224216444285
Ni 4.157560906045195 2.1251577093496876 6.124786497918101 -1.3359092071598928 1.630475354142095 3.0477756600859705
Ni 0.19329061408608234 2.5883207242106705 6.608200586490205 -1.896199637191941 -0.06010339304979971 1.3615184230875648
Ni 0.5123301273719392 8.704351293661963 8.931088297883763 0.42238005600509837 0.6108889689152059 0.5432846395026708
Ni 5.933991281245553 9.13446740703742 5.958313200568158 2.470453985603249 -2.830495074359809 -2.1590635679748558
Ni 5.184771886442893 4.489342794398739 11.197071383027517 6.550319562699759 0.20841773601889266 3.6083442834800694
Ni 7.929587131649718 0.9790472783461497 13.173440201049226 -0.7710895217989236 0.31982826398310077 0.657326434442139
Ni 0.005710999717561015 8.987791304274904 2.166380061662421 -0.12980779952447322 -0.5252324099866503 -0.7011539731500505
Ni 3.036770178222962 8.31190527201958 8.556487040383495 -0.44937303965417447 0.8230684859693761 0.7217724207313505
Ni 6.495544787135518 1.1194028329811838 10.740929428082032 -0.5333714941540169 -2.177457239990695 0.26457011484074433
Ni 4.013791880314607 1.3174779332017483 10.699973401536093 -0.500870179092202 0.08331068440419846 -0.5319486456645613
Ni 8.741364948645892 -0.02710333560541026 6.807023086838011 0.14614304634938702 -0.02898198905464686 0.9204909271846082
Ni 7.955000611509473 6.506919898231416 2.9294305787695647 -1.2090180670615824 1.5075321429479391 1.7932578088203763
Ni 7.6365256338278815 3.8096494289983744 7.847706024861733 1.1381908598363752 2.237476815077437 -0.7918624926802169
Ni 7.1005731611545695 8.966232045899416 1.0894833837219418 1.179427497888659 0.7236436696121343 0.8097704833088891
Ni 1.6819878823340908 3.7327619303378117 1.9544222619642257 -0.85088113730627 -1.5761281468497825 -0.7815569969891508
P 3.843399655572269 8.16174067681875 1.6340905060493378 -1.5492722029992028 0.828105019952019 0.9290280181213421
P 0.46081297129904397 3.8023817364185555 8.41805578319024 0.6055192199628604 -0.07813016864452352 0.4657285981940624
P 6.325630823453272 1.8240126618455221 1.2030244349211892 0.27823912768740466 0.17828954917494455 -1.347414636696331
P 1.6599316075628208 0.29896192642986646 7.301829166308133 -0.8392906042551932 -0.37565488403441755 -1.2859835259740433
P 2.015410862560498 0.14640508816179695 10.49884493266522 -0.5050428224126527 -0.9553813113038901 0.40919723876623726
P 5.881635761667321 3.697820739947611 5.5426199403381995 0.03684210852901397 -0.8877492139772131 1.3057586517184414
P 3.7456374682888978 2.407041027100372 8.363703758127823 0.5696618439446189 -0.1753896019193302 0.7194908237860254
P 7.200360924692445 4.886168186924704 1.292323276974514 1.2141075657693479 -0.4415252614749815 -0.49991295738525515
Ni 2.5272064628652764 3.897705730062246 7.262753362165103 -0.1284253173546498 -1.6500005686592165 0.46814620649661953
Ni 5.1644223472194 3.9071584192499333 0.7818865007404656 0.2576235083195821 1.2959858886023938 1.2507612124366394
Ni 6.9875347529518095 1.6636357863615674 6.719867979654036 0.28717962471014413 0.9354164381461891 -0.19241801815652668
Ni 0.550843271444273 6.330113348683147 2.0990165224651673 2.2443380609736443 0.2072442845360818 -1.109807937818308
Ni 5.470387515995859 6.786711996052681 11.516415670518334 -0.10832623261192957 0.21987071505084066 -0.7323414544964485
Ni 2.2719275887906525 9.394360093691747 0.24143368526837256 2.5467175333526786 -0.6575622046020289 0.667961802668798
Ni 8.474532787786316 1.7588097373197393 8.950426924513573 -0.24262806335201442 -0.1412255544431116 -0.371790773093321
Ni 0.8114261544519881 5.106187029902399 6.165371168817379 1.6271406333419074 -0.11117861445906012 -0.6073930399468055
Ni 5.5773304400994155 1.508238452503269 4.71430554386428 2.976208232260629 0.9310131668721707 -3.0782152075227502
Ni 0.5890816498487506 8.738814222992072 12.814280211422416 -2.3311834980039787 0.7800027651281535 -0.60257916349793
Ni 3.3756040727958925 8.149821660987849 11.888696892993767 -1.866662289854456 0.2736044571288707 -0.31973467582802995
Ni 2.2169932105550654 8.140143907771883 3.228241524747128 0.5747289740548811 -0.2382762141412219 -0.23136200351989183
Ni 7.340453904627821 2.265878993030674 2.978099737117956 -0.26637605770123157 -0.37822650141633574 1.1291233503174682
Ni 6.002926517573617 2.629704372410337 8.713502959711828 -2.236230858485478 -0.5737653245900312 1.5483800302022366
Ni 6.771473285804674 5.60923326610786 13.025290866668273 -0.10882374107363839 -0.3903816487216309 0.2773335851539998
Ni 5.034494759227926 0.2466364153887385 7.7802055717139424 -0.5326623839021343 1.9175997001342717 3.3714821760775546
Ni 8.478715227645155 2.8951017500896383 0.8767650551615224 0.2829311338464353 -0.23302525015492773 -0.4048836989925479
Ni 5.648844535084835 2.5596250606051916 12.784043796990014 0.5735742916251477 -0.9441209078987225 -1.1929700124597842
Ni 7.898190699704902 7.684520537858221 9.891108288172555 -0.821846697747133 1.1828347237979953 -0.05591249489690371
Ni 1.4865947951171758 7.237627776708188 6.879107344028401 0.03866964865605598 1.7414243690888525 -0.8669934694871004
Ni 4.355120234534288 6.682019712231908 3.978719402574577 -0.3403274123777171 0.6944336237070814 0.11368055494530745
Ni 8.981836485193375 1.3519221071961678 11.268236628769104 0.9255313178219932 -0.054359548587487025 -0.7567957308840708
Ni 3.6490006011469167 8.844472406600874 6.05640735729324 -1.957799412281609 0.6772637967960142 -1.208227709949803
Ni 7.908337336313112 7.714454053619231 5.050078567652627 3.0699866489653713 -0.20782124008547434 1.5042437020046546
P 7.178539091617298 -0.10142229104324738 8.400363875033998 -0.2962628179583349 -0.08900207836202091 0.5307798221674408
P 1.162615126410611 1.4871855881914062 0.9703157318157375 -2.08257659136071 2.1334983179112417 0.9977453780923977
P 3.5976203590245572 3.1456449019025734 11.98279616321691 -0.9716342828276427 -0.8249142809288631 0.6880212924228344
P 1.676792654348001 5.009887758802836 0.21896010427800316 1.368926285515862 -1.0917359108079456 0.34610905205650067
P 7.2708903645541465 3.0008724657125785 10.654379180474054 -0.6250835152480332 0.07340088148965423 -2.0844169870035585
P 0.7467540059262282 6.554755381908393 4.376351274535205 -0.4677086047385687 1.3630875673468978 0.29950060816934226
P 5.238412146515881 8.924342003636124 12.25311306544766 1.8115208687956224 2.7672999297585634 -2.489137935165997
P 6.158642692138643 5.368874261574517 9.55404583505553 1.189133155212197 1.1679881457034658 -1.6654675539465638
