# total energy = -340864.34916669875 ev
CRYSTAL
PRIMVEC
9.29438148973860 0.00000000000000 0.00000000000000

0.00000000000000 9.29438148973860 0.00000000000000

0.00000000000000 0.00000000000000 13.60326680071378

PRIMCOORD
 96 1
Ni 5.330439438940912 3.0697855662151103 12.592408470703663 -0.023386240134424238 0.04375940447413754 -0.1754096565239882
Ni 8.607090058707662 4.682500207317358 11.179286958909051 0.7802922713441143 -0.8600903146093639 1.0688955158746625
Ni 2.3806629292679578 9.030895275576407 11.518879500924493 -1.2020537199286072 0.9100867011321488 -1.9207433879695759
Ni 3.774550647567501 7.451380165915343 4.934027553263825 -0.004268545468366843 0.7749155804132332 0.5079283714905639
Ni 4.9007694672179145 1.7248141788156108 7.355858087406487 -0.4614322848115537 -2.948009658339226 0.3552776059296462
Ni 0.023137433810102505 6.966864047766133 9.9746635235312 -0.4892179395652542 -0.4835566275144188 1.424031968240754
Ni 1.8369137165289742 3.9304546062445556 4.8069733553912055 2.4869213871306526 -0.22201810041114667 -1.0286253555007059
Ni 3.3165049285068955 7.683535232079375 12.862624029939267 0.15736668297934833 -2.286230330332056 1.74276339961525
Ni 0.32952579719350733 0.0673424426251698 7.115733088932596 -0.7382089690208189 0.028674228006240938 0.36204886321520874
Ni 7.42223298489643 8.844886814565086 3.06404070888482 -2.460563208852098 -0.4114132725809495 -0.6819486038661933
Ni 2.3304175017844626 6.326025723763259 3.4533665579519512 0.28869708979593506 -0.20743223217717177 -0.3399026661354727
Ni 2.6736961955830987 0.3572369962393901 7.613844099197994 0.914008147673742 -0.09497269412315901 0.6483504561957737
Ni 2.938130649399772 2.6796538942543755 8.668967404891784 -1.542890210732259 -1.388887044908505 0.7367917769583182
Ni 5.750582669418888 8.390661086384192 6.386448499210948 0.7310399620762055 0.8023916743463149 -0.31108291369030294
Ni 1.5674138246844607 7.99997175152131 1.0545470540282385 -0.8494680590088274 0.012983813854177639 -1.7355720240731336
Ni 4.4184003512419725 8.063619677419751 2.184412989058697 0.8676912668850734 0.3918590045981058 -1.20322305764636
Ni 1.4425345121302158 4.457799235278699 9.947946823327483 1.0160637167856115 -0.09816703269074062 1.8394931856388317
Ni 9.107518158331482 2.195109892960058 1.2392496544103637 0.3430309273518092 -0.5756399159049247 1.306207309220086
Ni 9.14394284022342 6.6005074042002905 1.8145941883086882 0.7179093382315185 -0.8893934344488554 -0.4230189751406779
Ni 6.602291925487163 1.6267212743278543 5.179634378065827 -0.2274783521947695 -0.7924985836023191 -0.1734489332531916
Ni 5.661003418570584 3.6597278560153175 1.6743986641469604 -2.702700191500307 -0.35040973631438366 0.34959983881857853
Ni 1.752530025052345 0.9087535237671194 13.506507193387868 0.4641291149174264 0.49086858779479986 -0.31185450174900486
Ni 4.448969572661363 0.4882478124027475 12.835866434456058 -1.030043061783839 0.5274224756594336 0.1664521902203843
Ni 7.8753991535632455 2.4034341644389836 9.365087781822718 1.0096498428394676 0.4171609736980041 -1.4651197394199995
P 7.908487152424001 4.2476718537494955 5.059857681066232 0.7692529828108171 0.022440845502019417 1.1213971853178042
P 1.4141308816474998 2.1697269365306413 3.4325936148469545 -1.268793644458318 -0.43042426646581355 0.2822801305259977
P 8.986031295098636 1.0865132210175072 13.007920310779307 -0.0022391737431638856 1.0057772472579387 -1.3338911482885996
P 4.074880003519072 7.219857117707079 7.369664891425491 -0.3321086240123506 0.3479769585031749 0.12526594579006167
P 3.3570377271113214 0.8604301744196924 5.794420550156708 0.45726581213868994 -1.0219638843201302 -2.0867906294420577
P 4.177480683132522 4.4928576430603755 5.054402808445059 -1.5403767002817856 5.921391476894653 -0.6346171657700812
P 6.202168793196284 5.081926260980552 8.118851540686617 0.5018983632464001 1.8614848594185749 0.9374787199918564
P 7.248558168404274 0.7429417541952432 7.637976031850259 -1.3137982341934664 1.2320525802835427 -2.6765752122784807
Ni 8.476912948583015 2.3569250783998763 6.336006960273529 0.3482199277519164 0.16836200564858747 0.560304313989119
Ni 1.5862070644868336 8.71913383013081 5.121806593989465 0.14754326913102334 0.7165692792638563 0.7799266604745794
Ni 1.1442406257714828 4.130748531932556 1.839773597778821 0.9712198209980434 0.3335366147081288 0.019990327078997828
Ni 4.3629407756233975 5.917110106381854 9.401014284855405 0.02578173694979431 0.3327799390477624 -2.433666898681886
Ni 5.09892568511435 7.389869947808467 11.400707943644912 -0.09840665950537245 0.10943566362602443 -0.13428717545206548
Ni 5.5214110997813455 6.0218670825502745 5.861702579300812 -0.22077985712867135 -0.7131903354892943 0.6096661522516984
Ni 6.956993414398122 7.214392021266033 8.396385496074735 0.7425014257485857 -1.2541406704318334 -1.0250810897928733
Ni 5.7760492752836265 0.7833397842649831 1.2866537894074173 -0.39933191593638323 -0.4403479533374287 -0.3496869992157462
Ni 6.996541008542087 7.023494715479219 1.2333254155132158 -0.43986895681848115 0.12276040575938858 0.9424561186017898
Ni 7.915681003861704 6.399414161685879 5.587800868282014 0.7264070912898843 0.6572151056752552 2.3524290376463166
Ni 7.438154260752745 6.752442661890395 12.56986773619886 -1.0908699632632246 -0.19258539697232638 -1.1685429897656714
Ni 2.967380068617412 6.115052553499132 1.2406577532382863 -1.6286974363060662 1.651559428505904 -1.3090681757076488
Ni 3.4522586676530183 8.249721082248097 9.460460220786166 0.05244176273948388 0.29884883351795627 -0.30061955226513387
Ni 1.1979342688665908 9.186975827505808 9.267538598664556 0.6924497605078332 -0.2036964192838234 1.4164305017444123
Ni 8.83801826648697 4.816618135283848 8.668314939296272 -1.278517042393669 0.1383178938780134 -0.01451670555893629
Ni 4.853674835131553 0.5626344669202114 3.7733154242392444 -0.5925991694670826 1.2338832057343783 0.5179970685804756
Ni 0.10842175087369997 0.45575093621826834 2.975945770794399 1.9162244170532996 -0.8571903673537494 -0.6134310186107693
Ni 2.3494802786562063 8.911546120135126 2.9055491943418006 -0.007755475575702772 0.2881167918124328 3.552043552005812
Ni 4.359473971248381 2.669114065403787 5.343050056034809 -0.30394424576299267 -4.59592506233464 -0.40430442945031014
Ni 8.490603572830738 9.187561373553063 5.181524855304107 -1.0073265940229297 -0.15408492690428302 -0.2313128954495113
Ni 6.072093921270365 3.7784821710276417 4.148194086388073 0.3846131216689699 0.31586490845997856 -0.8692164452803482
Ni 1.8799931757198736 6.369997443597594 8.47454938731608 1.3032852504772845 0.8180260384494622 -0.913508068108872
Ni 5.468925726307558 9.03026325762064 8.628579598641918 0.051837810606897815 -0.40795745282186513 0.15132381921937807
Ni 8.701028374574419 2.5104589697428037 3.6945520453780927 -1.9818762507251544 1.3867771976543537 1.5513645667518572
P 2.4659853532965355 6.7002547086310855 10.555224064440946 -0.054967100264498886 -0.28909818188909564 1.9322318482251495
P 0.5791236294985446 1.9290675111088593 8.415347893624094 0.8262993342018479 -0.16258859349991997 -0.02010371272841054
P 6.735415354611489 2.138460636483568 2.548367964392625 1.9282227270657568 -1.1483233202846868 2.18559709548901
P 9.374778104185703 7.333676116035397 7.920692534475671 -1.4459578217795679 0.4061062585457393 -2.119864272067575
P 6.862701912026671 3.225903295671321 11.035650654641074 1.4610324567245032 0.8571471728206399 1.491628070123173
P 3.609770554364598 4.3792988874197265 1.8832499270684155 0.3392056400684481 -1.0300286636061358 1.3613878110469717
P 6.784917231558788 4.712669770323541 0.3957873032266811 2.7866852762637104 1.1177171653630558 -2.4608953953805357
P 3.267718718950686 0.34723717096571405 1.3283409502192884 1.642465693734752 2.066136443526816 -2.6522474341663935
Ni 7.379497417828522 6.32837720233398 3.436933161663833 -1.0674963215342907 0.5342230435210348 0.05022418626287479
Ni 4.478256169405811 3.9211881076872035 7.485048134194333 -2.737360976107286 3.437738476102628 -1.254935398418987
Ni 7.931797461733769 4.347521396379018 2.158063416932225 0.2142937351836955 -0.29849324995075044 0.11913026520596902
Ni 7.830739649482928 2.948261525455453 13.076834433350362 -0.9714077686391336 1.3250457820828276 -0.9042587815964619
Ni 5.359307788508751 3.2964011808844758 9.619251014420003 -0.5203406291119878 1.1220494741898224 0.12243104744442787
Ni 8.203490827660064 9.138031613460656 9.218403849794504 -0.46667065039235756 -0.33903029083284836 0.009980508251479586
Ni 0.34930795920902197 7.1980153207063 12.4046833373919 1.6746798165734513 -0.5493336739102281 0.5677934232773124
Ni 0.4408985142577382 4.762004348400195 6.468108936848756 -0.8743756208837844 -0.7476395183060995 0.4574306198513283
Ni 4.156559029920286 5.065419439076984 11.424431852940442 -0.11687669328510195 0.17111205758989884 1.3758754631401853
Ni 5.174712073516203 5.975506706618407 0.41038041193771263 -2.1589638091721977 0.0024929416251828034 -1.1458614890077556
Ni 1.4380453257679278 1.9879567135756422 6.006876174302377 0.7720930233627735 -0.5213677848249215 0.0001807485522383984
Ni 6.788532746041045 5.6187604537329054 10.227969814135522 -1.1869988824780138 0.035643974455854745 -0.08501018359380844
Ni 1.0704711181990623 3.3454941050368663 12.897883196365719 0.021792927505375374 0.5718691360085828 0.1680647861231428
Ni 6.756950437016088 0.8335842823103086 12.572575189588788 1.0922228777466931 -0.6242682184355894 1.2205749186612462
Ni 9.200880222532687 9.147400350216735 11.271911978641251 -0.7488592496458135 0.2106106299051534 1.275093875644733
Ni 6.226046059789903 1.0452461662585875 10.407655307274657 -0.1436238794719591 -0.2059764735672517 0.25192774348638547
Ni 0.221125423397723 5.3025748825969385 4.023982110440064 -0.6018703103563635 0.27881814011932626 -0.5599222480593519
Ni 6.518605312638218 3.2355229807333665 7.3116475019623985 3.4227234907510344 -0.9804788777024662 -0.8677791986131894
Ni 8.350695245063616 8.874433653997205 0.6744626086878626 0.23831015270295092 -0.5006138401070217 0.5925346347777343
Ni 0.7941231259161765 2.068529708554263 10.662186597387361 0.5405063054265852 0.27951542329666695 0.22281565661177752
Ni 4.986491549659699 6.102179834841226 2.9574453040156534 0.08575554640026521 -2.2255772354263734 1.186247863244602
Ni 3.5222918337810496 2.842082508886556 0.47026225437031827 -0.9753212447609269 -1.386109996384 -0.3635838118024964
Ni 1.834199757071856 6.403680282887308 5.772913350897217 0.049040707477734896 0.0658346391066221 0.7854378201007957
Ni 3.336803858145067 2.4005436117295185 3.061224511228975 2.00239673927601 0.7604994049879031 -1.234078866684952
P 5.762767603830812 8.124944007892578 13.423268569736983 -0.14029172977493257 0.3600711706635476 0.1381044923156267
P 0.9462981786542043 5.618788336878013 0.091347971686282 0.5276657020184913 -0.39370222845443165 0.5327498014096179
P 5.721296072674439 8.029016694341495 4.256489433670619 1.6646463435968493 -1.9135522695377756 -0.7059531943109068
P 0.49753568803801523 7.53537349336047 3.6153536894532654 -0.493782161897169 0.7456492273489481 0.9177714713709161
P 6.888921362809309 7.990305594550751 10.49371012858139 0.9363957713403228 -0.28886781104584447 0.037869264241947684
P 2.097332997450185 4.356778600554668 7.918706325105855 -0.5313853169619236 0.8404825676807655 -2.2239389284920024
P 4.294013640917958 1.4220404004762925 9.561015206986903 -0.0599108174230194 -2.521149455075587 0.14722162412554646
P 3.007197199830748 3.3789074072572083 11.886331022654886 -0.5587158864560765 -0.5456377131158797 0.28899919441738614
