# total energy = -340890.41252962645 ev
CRYSTAL
PRIMVEC
9.11132888512086 0.00000000000000 0.00000000000000
0.00000000000000 9.11132888512086 0.00000000000000
0.00000000000000 0.00000000000000 13.33535081061416
PRIMCOORD
 96 1
Ni 6.2812406853783855 1.7054038423137825 11.294161634256593 1.155245758436133 1.1428257875052252 1.0094757791554485
Ni 4.616892490288394 0.29627398720389314 5.975370646763906 0.07915552458524432 0.7537026937810438 0.5577409241373169
Ni 2.5363661331386793 1.5319150321077886 4.918357201465522 0.36157500890258376 -0.7986080389341667 0.16177638201126976
Ni 3.282201279708832 4.4953564764583565 4.893673700823273 0.47255924796265064 0.3153676571085859 0.37243766264870054
Ni 5.100385148950285 4.957428401293543 2.587017831773056 -0.5984628273367112 -1.3996648522502992 0.9072227493207924
Ni 7.2979283008836555 5.9170153196946185 2.557133584695978 0.9437900069218649 0.6131116875981376 0.2242783572002331
Ni 5.2249825692310985 4.424853014803297 11.860394269047921 0.9071168198705474 -0.3652524577541709 0.29888405763126585
Ni 5.623484753569083 7.866283875267338 12.461298243027155 0.3900592323852056 0.9315860086565054 0.12059090891189553
Ni 1.9713999730397838 6.4255276870286195 0.31492669936468887 0.7334966511468141 0.6342073319261723 0.48775163943237293
Ni 2.595489545219279 1.6413512013942857 0.3140884571222146 1.0737991238238669 -0.7176637978796157 0.43089374990306434
Ni 0.38514315416498784 -0.019462709284230027 4.715646537780579 -0.14409387712984217 -0.949396811585681 0.18890383435568112
Ni 8.80363004025668 2.2702424438105626 1.4597405527650145 -0.4694433280414883 0.8292882416268427 -0.4083292343389871
Ni 6.808376608621271 0.7990380172468412 4.912076762577071 0.26765055353828093 -0.3517929898151554 -0.32578191046337446
Ni 0.8827702170741646 7.363311195796644 2.487189558624483 -0.8291789697424882 0.7563365318594653 0.005350979899268204
Ni 7.961278588528601 3.6868444996058116 3.7361787001069082 -0.2608422723671959 0.8240866428212453 0.040739386700891125
Ni 7.654017250018189 3.8796675493610477 12.62692306541272 0.693091250746574 -0.7262615668509557 0.6782894098470512
Ni 7.653579906239506 8.972134953651441 7.066135187049218 1.0455771528636961 -0.19016444623565962 0.5810500311769026
Ni 6.977783543559564 0.48051963209972476 0.48967560633301105 0.10857331562572915 0.48240837284258853 -0.8911577254381298
Ni 1.973841809137426 6.3490107484166804 9.443748261924878 0.11333859822485644 1.3810179265730733 -1.082851206723806
Ni 0.0760495274484728 4.827601078325988 1.154563886266322 0.19030714246111097 0.2935459332478041 0.47001848381866795
Ni 6.503065094457485 2.051124099362059 6.9784687154795 -0.5695039782105159 0.1519470546256738 0.5599140205292357
Ni 3.479616439140231 4.475958457608056 0.6879362970698625 0.019118465997005785 -0.15885997969542318 -0.7070482271472984
Ni 5.97926391752705 5.686908712806725 4.798792879171042 -0.46976317327475225 0.22910483205459897 0.10551293153285055
Ni 5.3261547633662465 3.0855879172050162 9.266588497376569 0.4568048133418713 -1.8991237528172713 0.7183212289579565
P 0.39929760333546266 6.05076962534159 12.427839621692222 -2.1698819987465985 -1.7237104967488572 -1.2844984567880848
P 4.169972705118801 6.352354606057855 12.764037629092567 -0.6610553053569519 -0.9497683359924868 -0.47619118828828316
P 2.4540635007879237 8.497097608044072 1.3905299886556843 -0.8206634760723093 1.2812709509897222 -0.28224182108889456
P 6.551118242140191 7.862192888670915 5.616596589054839 -2.062575208538119 -0.16787966669553023 0.9475875262910842
P 4.992680132121072 1.0352291694556508 13.028397365179998 -0.8146972311865454 0.23991786350970296 -1.671937477941624
P 3.959920132749231 6.034578794201626 7.782310225228867 0.4364519607171322 1.6269051202923337 0.33210733846076995
P 4.530207308822093 1.0506090923393079 3.855023227432306 0.9718134887179843 0.38240634382563815 0.9789382726882239
P 0.20848177929780334 5.472874489785402 3.5788479202574766 -0.2662655002652963 -0.6222234200914187 -1.140650120010145
Ni 1.629752479930485 1.2626479343703934 2.639492707284814 -0.13854569361810332 -1.1448559305613766 -0.27193503984624784
Ni 1.4707324597358937 6.609722308483605 4.802939444872672 1.594200430970461 0.9361656576073878 0.9372596620025149
Ni 5.955146230398472 5.470897331452609 9.417451144965867 -0.3396818083739182 0.6183613660328512 0.07796844625567863
Ni 8.56752817906935 2.2619238006868785 10.178059399926754 -0.11884667252727918 0.6369931222014255 0.4557241786831829
Ni 1.9854678645873944 5.458970602154797 6.947304326716905 0.36133255387447444 -0.29767846735893894 0.4837628299879539
Ni 0.37755888413634076 0.09876953675101295 9.42561216210265 0.18674385058988485 -0.1621823592004368 -0.8100443057955662
Ni 1.5202616426716524 1.1552527027177462 11.351650473964366 0.057514035056068696 2.029192776422931 0.7983149331737799
Ni 3.8991111248549606 6.833514764566774 1.6472626314694734 1.1519202936073258 1.5526285210659454 -0.02532613746961445
Ni 5.598638160142701 7.7179149983494035 8.050151400021184 -0.44801215475090583 -0.23545031465665256 -0.5343204883308474
Ni 5.312724664829215 3.0857063644784093 4.86457576141495 0.3804983281696479 -0.46128958858610225 -0.5958986661539608
Ni 0.724515548492267 7.614291856787889 7.253030406337566 -0.6612980174953772 0.036824625027517224 0.05297758063829585
Ni 5.533273487887157 4.482582393589347 7.27755445872717 -0.8813371398032821 1.2452665078706555 -1.0515588243684277
Ni 8.007436579837016 7.239388013841299 9.060357216273234 0.3481538504006714 0.4246369703600751 0.3678271604598826
Ni 4.60170390530791 0.07726862323154943 10.410334503050613 0.35151813888721395 1.5566358424531257 -0.19899798536688953
Ni 8.108462992712605 7.037453635363517 4.531204999317213 0.827281238499143 0.5656522085645936 -0.33821885067514657
Ni 7.447463427878077 6.224221990232694 6.826112721112579 0.08320501206426961 -0.3037087327134189 0.4482222138791829
Ni 2.3310241177186657 5.399209397063619 2.7117300547957734 -0.8946446555454658 -1.2071977260233917 -0.5018042608706971
Ni 3.0771143814930486 5.101934074833118 11.393096997190355 -1.8024939827066635 -0.5742931720690433 0.20859745612986652
Ni 1.283230425954624 3.401823914507135 3.849902660690235 -0.4518500404397573 0.07840244846930369 0.14269262590694134
Ni 3.6476293407839746 2.7900984154041346 3.079452348443254 -0.20230725224578064 1.031643059281107 -1.248526666679166
Ni 1.078170861725009 3.275212890578639 8.206801563615041 -0.4077466223626397 0.8015390965380325 0.5330333940883077
Ni 3.985122067995793 2.8787972005181173 6.813750470301828 -1.0735952353431768 -1.4263778427651113 0.5113569375561386
Ni 4.0481815740845315 7.144101738060915 5.859739685078951 -0.22591357881081092 -0.7575554918682308 0.22897422001400564
Ni 0.7440793935253173 8.038351318192616 11.696395818839331 0.6146723472170382 -1.2377331756080876 -0.9489319561341206
P 0.10089703200772739 5.698726106159866 8.24158041648187 0.8536360743435879 -1.3335756739307096 -0.4237951911850701
P 8.546608568322386 1.7028526702714697 8.018866741719451 -0.22264442114123592 -0.45859018737706825 0.6456281721686042
P 2.2748163308292804 3.3725492153215955 10.387024990779725 -1.1384464274906072 -0.7921663970738809 0.6272733238105004
P 3.863422050248749 6.349065416389016 3.8678118884272714 0.5972137854209586 -0.9476168368671228 0.022761719176547894
P 7.013144610331764 3.855458748945244 10.527512568352657 -0.4855222358812219 0.2521303464154948 -0.44530041224669764
P 6.249041249672908 7.51436791468773 10.206463967219289 -0.5609200931962469 0.6464907772792156 1.027849653676946
P 2.0966898543035106 8.528586360109191 5.8395763146159565 1.649897467422449 0.16831906822579398 0.534237441698738
P 6.988799139985122 3.9751451630446053 1.5032936151916554 0.07772084902124679 -0.6246767667279177 0.294707300545757
Ni 5.123373031317269 2.845422403407432 0.9719938147225663 0.5857212114003268 -0.06647767200725971 -0.42280685912987176
Ni 1.5171455682485417 1.103181459068397 7.157536392262309 -0.26359283852913956 -0.19475155138570976 0.1229555524893302
Ni 6.744305745044328 0.43834420257593265 9.343027078561496 0.7543382704825138 0.6166631523948218 -1.0782432756381495
Ni 2.981973886972226 1.7025975530672384 9.166639954688858 -0.11682732810440526 -0.3863481020822056 -0.18924476263486764
Ni 6.600100745352598 2.0106242431903434 2.911333755386328 -1.31470120562371 0.0433732247793124 -1.706022592550791
Ni 4.057138010218794 6.988780917327677 10.4614226343308 0.33159800292451924 -0.5793507890976087 -0.22057005511071043
Ni 8.415405434717727 7.408129821782847 0.5447982339715407 -1.7880641804345785 -2.0956169694844355 -0.2686167741062922
Ni 7.54629401053153 3.959154781136537 8.20208098420389 2.2364771701683286 -0.19736250664599558 0.6894873354453996
Ni 3.152246398139161 8.459285593845507 12.4316135340491 0.1070252544123189 0.16348282317941523 0.43312392478516376
Ni 9.666117528461585 4.83344144003714 10.462702776016316 -1.2238998692694212 -0.5334154600180749 0.49705851865559547
Ni 8.706293715513723 2.1987914039683587 5.843390316819215 0.47463952753044714 0.851114850583631 -0.17742668695401703
Ni 4.010223778626407 2.288501546570544 11.487658011204426 -1.2811650215394774 0.31892015034653465 0.2949446133675437
Ni 1.3571141905657478 3.4744594270832696 12.685625534106338 -0.5956819221574644 0.33280847829285265 -0.638113608959114
Ni 3.164920256392222 8.278179712827464 7.954176307789376 -0.1326997763602876 0.18841558186535293 0.5120699044627632
Ni 5.436164946362265 8.041959404366743 3.6055322686871967 1.2496335265900995 -0.46708871176638267 0.8536594713823555
Ni 3.107856004602918 8.384126243213228 3.7102542364926485 -1.344397447136562 0.46824339419611616 -0.17590536521348415
Ni 3.453876935499039 4.308018446594092 8.804025471923238 -0.6305460810245012 0.1047112615671616 0.4738301442552743
Ni 7.211325121375857 6.015882347662962 11.572270365386347 1.1125009112694388 0.4448628104886468 -0.08166569260160773
Ni 0.492914683693876 9.202897576207357 0.3516207535289974 1.2688391529842729 2.1135730397422243 0.6270858903900426
Ni 4.875490222091688 0.49003732608329603 1.7645600551777831 -0.97456791153467 -0.7223735446504591 0.20842005001173783
Ni 6.033685883986816 5.807269365231555 0.54355727099953 0.02459671550275764 -0.014910855673561416 -1.1911558420691808
Ni 7.665497524208598 8.814135402273774 11.501433429100041 0.5432144483863677 0.03890027660962332 -0.08211383588261988
Ni 0.061355687617623236 4.773133555222609 5.741642286708801 -0.3263557806889734 -0.6234542071747263 0.10506555958278678
Ni 7.8893902049077145 8.977638196199859 2.5435850388855528 0.6034800780456445 -1.138449769924717 0.6767824862842214
P 8.652828438569825 1.5462562635170753 3.65559264208748 0.0387012732249398 1.3313200451273135 -0.4609905692884448
P 1.8319146416263303 3.292961758930158 1.6328466871646614 0.21539056779230004 -0.07755886952208578 -0.4275731701702637
P 4.8495138239037106 1.0257442762554805 8.228351678309606 0.45233083673091773 -0.08633584438376744 -0.7572186773541024
P 8.65689209118008 1.8074233900201275 12.508118627933701 0.0029081747857304754 -0.9238253908744799 -0.30097616427360424
P 6.208832956020314 7.730033065550389 1.6050161335816455 1.3064957869947822 -0.1452693854951821 -0.909945290458278
P 1.9260346673302282 3.212253609105847 6.13680790246859 -0.7090452029726693 0.5045242309050214 0.2386891333089244
P 7.042437532174749 4.021412490297692 5.784435464319982 0.6398969261117817 -0.19714910508360886 0.6074696588210119
P 2.4849509051573535 8.785061152320132 10.155883336948948 -0.611042977994567 -1.5357746827334002 -0.16366048640786007
