# total energy = -381171.9277737078 ev
CRYSTAL
PRIMVEC
9.23734824506426 0.00000000000000 0.00000000000000

0.00000000000000 9.23734824506426 0.00000000000000

0.00000000000000 0.00000000000000 13.51979288211691

PRIMCOORD
 96 1
Ni 5.998992463763754 1.5891656449806981 7.992211720623258 -0.34964149068979145 2.0060258513881646 0.613258240478331
Ni 0.5892338043278933 5.510807857129222 13.197547867905204 -1.6759419711153267 0.6798873504617904 0.5912647669263752
Ni 8.893312250847417 4.828269447705791 6.95082266196111 0.0607633952313018 -1.2099945720422387 0.5631029597801787
Ni 5.2002389786327585 3.3536469184371818 6.09823760738465 0.16362294830170532 -0.7727270574023466 0.5767858565839099
Ni 3.4913665403848864 3.363493931449205 2.6803126026020996 -0.3424637419944296 -0.8837557765471038 0.7562956513192007
Ni 3.3491113805489046 2.486407734928007 11.777036799727712 -0.8753348994732603 0.4163510762021991 -0.9414891267028301
Ni 1.3618806964245733 8.356973348873602 1.2583152451247621 -0.02921004590505292 0.3977555725881989 -1.18843895735865
Ni 7.9783344526608175 4.219251091343047 12.289721624572177 -0.9045809408225711 -0.5749652584354034 -0.6254599247508454
Ni 4.49016403469822 6.304573174317917 13.08538798798777 0.684451572793705 0.6329657462095873 -0.3230028050563405
Ni 1.867801011298396 1.3205712759838908 10.374412932297389 -1.0187669746493875 -0.8109426492401196 0.39982582485366625
Ni 1.036375026145332 1.8073056189759387 1.930978005757242 0.8966642570786557 0.38429918997297685 -1.6006744687305787
Ni 3.4370971206422634 2.203440052378941 9.0858952540168 0.8270290132790207 1.3683786405425078 0.015961151314946704
Ni 1.8376225952474772 0.18186028956304456 8.310589853153834 1.135015290321871 -0.48826740272652686 -1.0662745333120476
Ni 7.175516534391651 6.264464609122602 2.9523580448271356 -0.4359328549888686 1.1975650880296342 2.2774099038269484
Ni 7.05020267086341 1.1122783150006734 12.150400246474112 1.673867862195117 0.3887826796656272 -1.2765612042188788
Ni 8.884564482252308 8.915629683715192 8.281089458449147 -1.7359875143439976 0.5788931327348998 -0.116226975516245
Ni 5.286839116519922 2.3742386176625314 4.045284115681291 -0.06111872168819151 -1.6379922313444306 -0.2737630941939221
Ni 4.59488784944241 5.567617547583201 6.116867490914339 1.3865774229387218 0.5303090531786093 0.5281711809
Ni 4.880829958060773 8.103454331880192 6.000516626190567 -1.37760453001615 1.5375690556296615 1.4748765616964472
Ni 2.574227202756622 9.298222164889653 5.808467541737972 -0.2535061437170989 -1.3827873597686702 -0.02204669538739429
Ni 3.5846083315137434 7.096213901457112 8.060108076196403 0.7324476410570095 -0.4597039892665373 0.3984268876236106
Ni 2.7717678906197696 6.389806184694969 1.3328070671993937 0.6298986772484894 -0.14292736762556674 0.04949810673012766
Ni 2.705646953340162 5.764326874122633 9.996115817962131 -1.065445866763165 -0.4421564673010772 -0.332359306570576
Ni 0.37429549516376653 5.720467945622552 2.2653764709958404 0.19032231196976257 0.9187865428989919 -0.6969836438224448
P 5.887950302959316 6.180460166035044 8.516590104353202 -0.15387923865138015 -0.14654156733938634 0.35484540348823407
Ni -0.14860214167515703 0.8575464342094412 -0.04605464612949695 0.3774996505526402 0.7237300586783536 0.7249302496340418
P 5.221300132166917 5.814827455864406 1.5912791502125472 0.07625043512330738 0.08604839505033568 0.737591390041478
Ni 4.520231602572643 4.2591471975334105 8.199294589013066 -0.3992797225422091 0.8842807958126384 1.207105937640534
P 8.665362213232319 7.122143137409035 0.5850594467480309 0.14610987911860643 -1.1734219151245275 -1.12681141435484
P 8.436857934734743 9.128504369326892 10.514234974659292 -0.3161407878291846 0.5305995878358345 -0.6722591444925712
P 8.393229939935694 2.03805457304755 7.359809941428773 -2.2104182682977482 -0.07153246082234777 -1.1976471062204792
Ni 1.8520698075840665 4.2003607145985935 1.2044522686959562 0.3150976912766509 -0.7676799818967424 0.4534862904915996
Ni 8.995652829796953 4.091433906495613 9.450010267904254 -1.5334239231130364 -1.1470261987398183 -1.5109031163027014
Ni 7.89918885464298 2.071022668206941 2.6622092479107646 0.5226397095588096 -2.603247350118607 -0.004703833233572544
Ni 4.20133063614293 0.1572048839060174 4.071052621777294 0.18753112237787056 -0.47383760045444206 -0.34035106652680097
Ni 5.816610264036376 7.992375221683589 2.0947700425515086 -0.4371057922510472 -0.7677879682295164 -0.23628952272849632
Ni 5.981570825357866 8.556971171315734 13.199995765136148 0.9985550184778869 -0.8440941962914236 -0.34843692885872896
Ni 8.844696088106069 3.362902741174562 0.864722006167921 -0.8909479234201688 -0.036681928802065854 -0.08326414743697917
Ni 5.412134505352082 4.455163722969743 3.4753027921410697 0.26422995789250625 2.4438926901749527 -0.1260691584176474
Ni 2.2760733200276633 6.983869274578852 12.447550953205786 -0.012024535264701871 -0.3362707258098402 -0.6861125054358957
Ni 7.86765254842999 7.061102741552141 9.597633250687032 -0.821580845680256 1.0468012550787844 -0.8839879471625679
Ni 8.125522356350851 8.219503135323013 4.487976630682041 0.18865726556251378 -0.760361079637826 1.34935196292836
Ni 7.653549295528796 2.3234054913912714 5.151270872931037 0.8616813132455676 1.798558652207999 -0.7439857236035962
Ni 5.665607335605285 7.313928957442453 10.878809084744399 0.11279866656098637 -1.0237382026117336 -1.815527418851854
Ni 3.1243574653560953 4.036536347086182 5.0438017183489725 0.9480166434087027 -1.5277651821653624 0.224761981704871
Ni 1.9217286491634908 7.664624875830313 3.369348562637779 0.7853385755187701 1.622347325718322 0.6380099935017141
Ni 3.1135867175399423 1.8405138851844034 0.7676818175244825 -1.1589712869168363 1.1106124359974743 -0.5557056388748429
Ni 0.6141303047687983 0.4799670618169934 3.5458761311765827 -0.15420756852507636 -0.8831621088271628 1.6949815042452807
Ni 6.811158578250712 3.962563663971472 7.801190753007659 0.8433915137974443 -0.07791265331707872 0.5353425018374588
Ni 6.111401752078303 3.2753973431793506 1.2775058356805578 1.4925683225492554 -0.9078107606137785 0.19621296642258465
Ni 5.528488141280266 0.5448243298845514 10.202468012121873 -0.034712720890837 -0.21656350505447863 0.10596416013765622
Ni 1.0718187305797904 3.092479377265578 3.8343077050920766 -0.23345436727254634 1.4416548235288398 0.1268875405538847
Ni 0.15616660598617557 5.8647553220276185 10.654934565085119 1.201481135254589 -0.12437428721372772 2.067372887037078
Ni 7.542858153949929 5.256568326988591 1.011217108754858 -0.9453411534590689 0.6241784869352605 -1.9305981692764689
Ni 7.997224829405271 4.1169197497415535 3.0078024552406113 0.07978647330102388 1.4763611166617736 1.8475399672027086
Ni 2.869009453450508 2.157964587971633 6.629701037062269 1.1124016666874132 0.8575595777677103 0.2043358526400352
P 1.007471364124112 8.047633037666632 6.7093860962057175 -0.2577217244603432 -0.25850513959358706 -0.5349738056441302
Ni 9.237532788258326 2.253136984841121 11.36581962444288 0.048702350301709676 0.511815365249796 0.477222457766275
P 1.2219810603391223 2.7214335811427395 13.191640583832795 1.147024141857289 -0.673342350254421 -0.7051340408437211
Ni 0.819414661494965 1.6528017356371967 5.603467695331477 -1.206743926315425 -0.058978535416737136 0.7116857259193098
P 5.768243509692142 3.5903539619954303 12.230815979847627 0.5425565030873946 -0.21668151868958166 0.8166024186290582
P 7.105802268723979 0.9815328908241486 0.9805592743405959 -0.41479247346582754 -0.3593116667897037 -0.8986638040071877
P 4.707638919634486 1.219874944985707 5.98413049450011 0.3674931741592316 -0.2896910782780882 -0.07847778179192937
Ni 4.535399328056454 6.889703748645865 4.03849743607535 -0.3361267440328082 -0.5415933678431769 -1.6996434284973243
Ni 4.138701416422933 0.29461413095953426 7.999620997487183 -0.8632625416897584 -0.21942539998330596 -1.2622319320804003
Ni 2.341713915209123 4.532212442982206 12.258571439507314 0.8817958246072555 -0.16193656173821788 -1.0061909377565896
Ni 2.741635661309057 6.78302161611692 5.850798612872023 -2.2183370089241925 0.24352897789972894 -0.6840232270070349
Ni -0.11489782987687484 8.154084236494544 12.227813841734205 0.9866587812609331 -0.6574287643479582 -0.025939345573581133
Ni 4.639421104349505 4.905493677331038 10.94263638850535 -0.5907099228641697 0.6311649455554227 0.6324199010084464
Ni 6.916529007357793 9.834450218686973 6.212520229881974 0.23810137912625445 -2.1767262753619416 -0.30645724199283353
Ni 2.0914372073782084 -0.025375918804248367 12.370637098474727 0.5441901820360757 1.4186151681005568 -0.1187559125856858
Ni 1.0475429799272606 2.3423790042680963 8.03371789657722 0.3287836734041757 0.7219775947636211 1.3164282156171458
Ni 6.716715931876488 0.4661128872246554 3.7434011155480595 -0.596668711550766 0.01658952892756498 -0.028118869723403186
Ni 3.3874094255281237 8.58044327268867 9.965709239414593 -0.15069826982023726 -0.12880481218125558 0.021562556662124158
Ni 8.073839394059792 7.037778437747864 6.84217759297339 -0.5379020350345187 0.5294652171210753 -0.41570855752219377
Ni 7.776258226909393 1.7080595516202384 9.518650229994723 0.018178984901871916 0.2809035618934453 0.10116493897679997
Ni 0.9325841835533132 6.446966894374517 8.172295668157961 0.2655723308530136 -0.09235325422244094 0.19532876404541846
Ni 8.325834248626387 8.415889154680997 2.080304355518837 -0.9630388278491478 1.5884398743375998 1.058017435509578
Ni 6.119669178575264 8.467609066364222 7.997565687547994 1.3308798722661015 -2.084179417071456 1.562904963291289
Ni 3.9254849489337036 8.910244309807116 0.6196837984112263 -1.3888747036133307 -2.1911925872989166 -0.8076056144470865
Ni 1.2243735334818187 7.885129610924126 10.052385123555695 -0.9895592427371795 0.5885921051902185 0.7406252917717955
Ni 5.553549066516306 2.925292615066134 10.153364117403944 0.1556299027938997 -1.1369423321412548 -0.3254144998216267
Ni 7.433321680876222 6.542277851464625 12.095914672787321 0.10682907924111279 -0.5213983809525408 1.0981482420921924
Ni 2.181214992991579 4.40437678343869 7.193029622543148 0.6130836625736796 0.7202822093390692 2.078049135804002
Ni 4.187714785130058 4.0388179720523825 0.5603144388150032 -0.5691054572205166 0.9507535827238917 -1.7340082791304394
Ni 7.002399394749695 4.776512586630401 5.495106212928625 0.09979634076404749 1.0196344648560052 -1.0181172568805306
Ni 6.876688325255677 4.913216100293562 10.195194524274154 0.10833060348730375 0.6427475081866996 -0.06783238626294125
Ni 2.511958239610236 5.531970621491835 3.605282440164971 -0.48579708680916334 -0.5969911278871911 -1.0998600825769769
P 4.24213200244134 8.43449317363617 11.824654405145797 -0.713787602753661 0.7147687357200078 2.481906193304248
Ni 0.25608699974889065 6.414257444960283 4.472780269419302 -0.043131541082151524 -0.8952992584103291 0.8325486575456694
P 2.89094815504859 0.44365319919704466 2.4104841239069748 -1.307822733336322 -0.34873671948733487 0.24939854930662855
Ni 4.9729725047727165 1.6029200562141903 12.916755580819865 1.1933405084253255 -0.2037434704716749 0.7981436977032383
P 1.687866708801962 3.6374551996580062 9.832850310006219 2.265992406018627 -0.04433404603068494 0.674334024743729
P 6.346603107905819 6.986520393466704 5.209608420751047 2.7739755420065255 -1.5762392185063498 -0.7413997080439748
P 1.0970366907325326 4.693450353043054 5.463902451245121 0.10334420601630588 -0.2939601379670873 -1.9633874478923474
Ni 5.1816534343736675 0.9408146606581091 2.036053763461805 0.04614975908318504 2.1603527190999245 -0.3122121421987397
