# total energy = -340863.8588285821 ev
CRYSTAL
PRIMVEC
9.33790157791678 0.00000000000000 0.00000000000000
0.00000000000000 9.33790157791678 0.00000000000000
0.00000000000000 0.00000000000000 13.66696284883981
PRIMCOORD
 96 1
Ni 0.12735684080573745 9.3867389914839 6.368695524508217 1.4755651031230392 -0.11936680669680734 0.659412113326574
Ni 6.789466980791515 4.172267887732082 2.93350464092433 -0.1291953627514549 0.06068703346741162 0.20027530941741636
Ni 7.852512393551291 6.625316005660156 0.4357149004782299 0.7631810655851243 0.03609340328844751 -0.8441949835353462
Ni 5.592375988191551 0.6379878595662283 2.14373105574429 -0.7293250362676278 1.659360926828194 -4.980354350127578
Ni 0.4031452329112088 0.48568854935532707 12.199281386731338 -0.08646157132835432 -0.24549895714190625 -0.7638117571905877
Ni 5.129085330010356 3.4685542728009535 12.830394683017985 -0.32969770057801284 0.09278134289879504 -0.39984896478211784
Ni 4.341274571781372 8.106521997369665 13.62572992248941 -0.5048047382599177 1.2357806798674071 0.3843858361495122
Ni 1.8170809803038457 7.813255854530174 0.7454316248575665 -0.1688137484740254 0.44742851433329395 0.715813117824122
Ni 8.83311347162566 3.0239300802484976 1.0056313237561267 -0.07714389347185426 0.09886431586808135 0.7662692175921448
Ni 1.690216246921137 7.316554183832908 6.466755632315653 -0.8213000812150435 -0.8868737533507952 0.7617281351886818
Ni 4.7747773233314135 5.747217075262953 6.280653117714541 0.09598750854091856 0.016210291211275308 1.6566874937610887
Ni 4.177721222362989 4.759846018408776 10.301036298074099 -1.3809166251085185 -2.7366444096562352 -0.24650657247081417
Ni 2.4303383408349815 6.3656196196667425 12.5182136863628 -0.7411726796348332 0.23785583877435162 -0.03330632746161361
Ni 2.5523473652997595 8.834149978721603 12.083289706164086 0.47585205978130946 -0.3077391940290506 0.26232245645714825
Ni 8.168366920760928 6.088153206614056 3.5917464094193887 -0.7039356496602457 -0.4657514810121978 -0.779761595651625
Ni 1.4961559724356777 2.703070437692686 6.610600406268295 1.9170268583499372 0.4319533015158302 0.2384052835199184
Ni 9.00011250679542 6.636091944297256 8.154475858094939 1.006247244915822 -2.186602653935389 -0.23159211725282697
Ni 2.1494542557362126 2.0296676518915646 12.287706647497386 0.1999778327816556 -1.904013991030037 1.6581905606691767
Ni 7.844612528657888 4.744289074067867 9.526010061151922 -1.2432975570697427 -0.10806115187600099 0.036622279208724025
Ni 3.1470316392198097 6.017521317661692 4.608841875172716 -1.4211479618247396 2.047847929630273 -0.9036687134209468
Ni -0.025194592752825432 4.595975180330375 12.923029469899813 1.531729051909117 1.2513052578655675 0.02907660565098218
Ni 5.590415028820848 0.6641993498212895 6.400443456719896 0.6444326091986062 -0.7315554682600434 0.519065619054306
Ni 6.4510520829170295 2.373806683548148 4.96615108347901 -0.6314613937499188 1.3812246432672406 -0.2876524505815046
Ni 4.17738505789944 3.539176823851552 1.6196441205400713 0.5299840657390227 0.5813621631006827 -0.052235046045316494
P 3.6541824219923913 0.3943125116314572 10.191085306158792 -0.9609621478257773 -0.013543543012389579 0.16653240863901642
P 2.5401707413978714 5.08579481742665 6.450670162734831 0.27907782153861616 -0.64118479168527 -0.44592699008710296
P 2.545913550983501 4.543701606248496 0.3473690118771842 -0.5912066599949302 -0.6592179950378969 -1.3523406132430387
P 1.5348148857438195 1.7678235484921436 4.587972598517554 -0.8802768168595678 -1.3989297738564874 0.14782351937560348
P 5.642090977189751 2.8343239849050628 7.030955392132864 -1.2879725313796142 -0.7882205250522554 0.3236162702706233
P 0.24062278784771018 2.634128708959833 11.561731474757897 1.8726946120914651 0.4307842209083936 -0.6158974778733909
P 7.861411413933576 0.4600438697374165 10.17068105701154 0.42634572552106575 -1.3154663659245087 0.9642408185770491
P 7.804067359193165 4.667652914280446 5.230606064211996 0.40122347653214124 -0.3124070318183652 -1.5382144025231446
Ni 8.530966984207414 1.3197630080900742 4.8031990949343095 0.2949176167843502 0.8389015963468907 -0.06051811198971513
Ni 9.100933832154842 1.1031236871362364 8.533583464282037 0.4575992842187087 0.6894253718592127 0.3056936243539316
Ni 2.0883003370755797 3.7929156285187346 4.232822313099386 -0.008369712120933973 0.1440563390236874 0.07804943600525913
Ni 4.651311586191256 6.330705204966466 8.826357499698501 0.029414705716691275 0.8421787244362657 -0.737607073770762
Ni 2.7478363387553024 0.35892186394115355 2.2363247558583486 0.1484377559208347 0.9503818012067697 -0.15280914551565297
Ni 2.7469865896946644 5.762400503533253 2.1322781192292086 -0.732798596638525 -1.3696114845083445 -0.13182740105766327
Ni 2.0622942806593536 8.464341055112342 4.387245062171705 1.477686006120784 0.9713470906045273 -0.8459356203755366
Ni 3.81111519905921 2.142488181019335 5.691251294823094 -0.08648908213218008 0.0385313233059788 -0.10081192651275542
Ni 7.805636126689728 8.448223836665518 7.860867948050838 -1.3282902571620543 1.8234505303536725 -0.32723458374950093
Ni 9.475262300218485 7.75471654836381 10.21217308971526 0.005052989042875169 0.8085031865606914 0.6337375913786053
Ni 5.617905811617749 6.5118044718017565 4.222804612085624 1.1933466790729126 1.4429887118489146 0.5213541579781666
Ni 1.7411451631488195 5.315385808128892 8.438584320673248 0.47110323224241446 0.7306036458697353 -0.9015228707225378
Ni 7.690677218057715 8.701458394637378 12.37876986551212 -0.6811312501712204 -0.7418856465414577 -0.726036338214027
Ni 3.589816265124512 8.49874188521553 6.960501857104217 0.737843101040968 1.0790135781452708 -1.1604548134408983
Ni 1.7116187177670938 2.9795190194529604 1.7858074135018416 0.6268763454823979 -0.12645199567836288 -0.17383922671307478
Ni 4.397852918577031 4.188786635954813 4.380835526400037 2.3117811822179672 0.10626575053847505 -0.06906497311846171
Ni 4.688980681912281 5.887621766205276 13.372139590460296 -1.1935929907557639 -2.7030539752952993 2.065612966923178
Ni 0.2500008425905524 5.3866620123030575 1.6238265667407277 0.5729034908103682 -0.5029743699193983 0.32182266870531023
Ni 4.513456142430846 7.433511403442685 11.344399281493079 -2.712304804469606 0.48299458436336173 -1.2050876216589246
Ni 7.201894088057383 6.687992002308524 6.068514665411555 0.8558852753890808 0.5330801881658432 0.1295979975065123
Ni 1.9904858160845686 2.9310646471930695 9.420583282641877 -0.301077722848475 -0.5678075643446995 0.38830625424984094
Ni 8.64979178417024 2.7235764699691787 6.871079308429636 -1.9989123802718352 0.025547766562117293 -0.19696989919326724
Ni 7.031234595395644 4.484564674369158 7.157539054672437 -0.9470910462706398 0.3772178576461632 0.8674614102624544
Ni 2.429423226461987 4.093764147591612 11.660543283657438 -0.6835804830426615 1.506353806369122 1.1955105194934508
P 7.104882626618184 4.553216928147288 0.4135075025001085 0.6912984205122095 0.3050251375319973 -0.1844943924340758
P 7.521325031643111 8.834280709346316 5.396810443941533 -1.1172751927296307 -0.2932808525118756 0.3610728724551846
P 7.584570640299161 2.0754233705412974 2.9758716350234535 -0.44671529031635326 -1.0153381514734965 -1.5827564507995773
P 0.8781913756246786 8.50261711444811 8.256636238567497 0.13888816455918662 -0.11669928716697323 -0.8289074612486563
P 1.2170834402793675 0.7791675963550676 0.645585176442437 0.15054220385834718 0.6367393543194066 0.10147424268710266
P 5.045585812425476 5.478546965673133 2.608011531512601 -1.3763323481719458 -0.370475139605691 -2.1849334937630824
P 6.747072906777272 6.483697387488349 8.325408017488224 -0.052893762675237946 -0.18236809011969238 -0.13339371710351866
P 1.0458916872170092 7.0566803777059555 2.803203559692009 0.3857567483551098 -0.22381478730025323 -0.1038388862645373
Ni 3.8418182200633577 1.564481399652024 8.117643438372081 0.38317870321528846 -0.23469698143039577 0.7057963570180683
Ni 0.1236030042961063 0.6850331424497423 2.7968070969828114 2.030739809195077 0.6841728652110217 -1.4686367514343224
Ni 5.707727088697704 0.20331600271517686 10.461486662735888 -1.1192999364691432 2.69354963534929 1.0288539265717442
Ni 0.5435611293356506 5.433781064610518 5.339162907393752 0.08460652039748655 -0.07894340857443824 0.10056741460211713
Ni 1.5043826638908644 0.3428718783870391 10.067905308812652 0.1612081682126256 1.6856833667728066 -0.23401229665854537
Ni 6.513401253003615 2.603985962061601 0.9995514159167714 -0.6525313270463408 -0.826439459324138 0.7486471336350075
Ni 6.5894864765868855 7.64154117896896 10.470547228818713 1.5652670357655623 -1.4674054501303824 -2.787102566306787
Ni 5.479125915582578 8.469383522065579 8.270111764604932 -0.10794956599880119 0.3724456330685005 0.7000838800143233
Ni 3.8997038731061524 4.106445018188824 8.134644956116075 0.08934043553804615 -0.9320284955105625 -1.9107253416119416
Ni 6.124188169526162 7.68830539100934 1.565564596256793 0.2204957502293493 -0.845444282561415 -0.11499027489566646
Ni 3.954778817717606 7.611482473186615 2.2921271230173157 0.2527376409821906 1.0417469804843285 1.4166495597337536
Ni 8.113142569721228 6.408088396895107 11.442036382350551 0.09754302595349652 -1.488234985281224 2.2595836742788054
Ni 5.344949605117678 0.11731766261791542 4.050518456936378 -0.6596723089664961 -0.21396566242031537 4.053462147402317
Ni 8.38551048841009 0.7860571002774702 0.33786396167033456 -0.7553561702240669 0.5892037706322885 2.3885044432126348
Ni 0.5012193475712936 5.299614092047381 10.538991247387479 1.0547770741954092 -1.0961466382811316 0.03349401799238747
Ni 6.575442272331947 1.7062961137609005 8.84570936731681 -0.28919999757428255 0.9346857306277516 -0.8211766682633018
Ni 6.524569383514856 1.5140100406108388 12.59513185078353 -1.9316302100854088 -3.4118510668129045 -0.6899889576721666
Ni 2.860264676008932 8.003384872372461 9.076941027359204 0.13708942078755101 -1.214585790957347 0.8756976821293176
Ni 9.148837268210583 3.5581421023367783 3.5831088502865316 -0.298882257859053 0.12374822359395463 0.29381975573448105
Ni 5.82073437586078 5.426656245563629 11.312965102780714 3.490445833798672 -0.392903129591904 0.5310173920995436
Ni 3.912898328300453 2.456363073054738 10.865331304489315 2.2945794736277 -0.8178910555334946 -1.018692155547394
Ni 7.747199537442783 3.154735408176142 12.242264682346967 -1.3151784023704445 2.5464388257699953 -0.8049923451939556
Ni 9.31145682745244 7.791106351542996 4.500927479632408 -1.4989012067458187 0.6789010752891211 0.8118841872177823
Ni 7.423062291367367 8.978159099745314 3.0332866578172797 0.714493370571434 -0.5647227547717887 0.9406779436554445
P 6.221349037393606 3.3328745601518475 10.462415783961532 -0.2986565150014921 -0.14316108090292767 0.7075282521075106
P 0.3961343362658578 7.538105241115268 12.598712002320328 -0.17834559922386056 -0.35429415897045435 0.056917539122650365
P 4.1292388363978025 8.031127778517023 4.927063560479843 -0.5035788362726165 -0.6763536262769191 0.7894058036096082
P 0.26256592320587496 3.79736980766076 8.55152811010432 -1.3024874371663375 -0.5541416368218328 -0.3095356238078411
P 6.16255760787958 7.093649130794586 12.65377667523984 2.0829450304437223 1.6967661069495295 0.6327186631957877
P 2.5220738877768136 5.98142098943723 10.316124479746394 0.3206623298486219 1.8049720119335109 0.6450830982984116
P 4.6920341757895185 0.877907503411015 13.678716912266154 0.5184693802312038 1.4164459283633797 0.08732623332149476
P 3.943153130019868 2.4012787905415185 3.4785430263192434 -0.39961987949044725 -2.2628572028237546 -0.824670283238857
