# total energy = -340863.61657569977 ev
CRYSTAL
PRIMVEC
9.27414347288613 0.00000000000000 0.00000000000000
0.00000000000000 9.27414347288613 0.00000000000000
0.00000000000000 0.00000000000000 13.57364641736001
PRIMCOORD
 96 1
Ni 6.108210466647913 4.943999433242542 3.3770420327027257 -1.7372398986938598 -0.4856721311955248 1.7456083252632129
Ni 4.400562457113121 5.033810237154642 11.649499971451183 0.9511492755004135 -1.3584814360334538 -1.6265114843983406
Ni 6.652584131252666 5.733887493960989 11.978729277072658 0.0977965367251993 0.41701827747255277 0.44203665389376134
Ni 3.204225791246835 1.1721775225173587 3.053093424287731 0.9490180880900236 -0.05876487674403428 0.8179062250421462
Ni 3.111586373622097 3.408136380426444 4.293480416095952 -0.49843791550162553 -1.073285674522558 -1.744334857867428
Ni 5.7793307962296065 6.460998878545503 1.8119190577116306 0.028091616029893556 1.6140573177953879 -1.767086806851963
Ni 5.690512325652761 1.2827438591799003 10.55747330516368 1.9309432113207132 -4.295909719312408 -0.3558825865034968
Ni 0.25428124379420924 0.7528814466281485 10.767919383140983 0.26035890497287417 -1.660046640041309 0.10606520449189476
Ni 0.7774866762707746 4.779884193049594 0.3494144785577292 -0.8521749164170291 -0.22608404295040418 0.3004359754994181
Ni 4.072081574857581 7.344602157513823 3.5352422242860984 2.6265490009590247 2.133479548858164 -0.9212591728092004
Ni 6.889158253205759 2.1234449511493176 0.3499412498983124 -0.7979925168373547 -0.24593450201742809 0.4078530660335169
Ni 2.481148659006575 8.172402916124945 10.087988347868944 -2.880093711223543 2.5949542568718793 -1.644656530738484
Ni 8.060195056094742 9.296215781227847 0.48762610904323417 1.5710412192451781 -0.4238111320246701 -0.44632705373899906
Ni 8.600664306361722 7.20882869930718 12.630915785188206 -0.14700745123221134 -0.9104186305502707 0.7986538045704374
Ni 7.602581002249766 2.0453937609671375 6.769421643628276 1.5251388002861088 0.32476915292814396 -0.21142309850411978
Ni 3.1065597879425884 4.55429065678753 13.443040459345319 -0.5800946092421687 -1.7024029935203326 0.5298822500538358
Ni 8.532740480685119 4.091436711966684 8.856112237385602 0.1909828283718969 -1.201699164802666 -1.1501104940920968
Ni 6.106513298420329 8.89728850631263 4.035621207808838 0.7227877493697423 -0.7876800791677532 0.3619010247834348
Ni 0.285333857872987 9.117818360321905 8.556296804718238 3.0678112385806067 -1.973160982339344 1.2687640767719632
Ni 7.815951217615904 7.6896095631658286 6.498450651515168 -0.9540386812330667 -2.099670056507887 0.10811643059396864
Ni 5.936351316782659 5.149152757627048 9.666676073221938 -0.39578610756665383 -1.3957999699782542 -0.20050259493687406
Ni 2.114708708141759 2.0913193186884014 12.42234308416157 1.9046541957171967 -1.5629404445149149 0.878659592971119
Ni 1.4171261958885253 -0.2792444553689923 3.9050023184595197 -0.6099661999906204 1.050029789318411 0.5004703725506219
Ni 5.6597128956866225 7.619441394805755 8.139260837556144 0.17117350695545358 0.6209774634994596 0.07334534566137045
P 4.531652472943102 1.2249937687254762 8.908981346210645 -0.6545576134477501 -0.8320750603433605 -2.549138484089345
P 3.0046091304244444 0.40570203661056964 5.57784539552821 -0.8937915635165511 0.8795293971705821 -2.048645228720588
P 8.241968265169211 2.6494094412636207 4.361199283205179 -0.6715734312794563 1.8140953143910177 -0.6128741176660348
P 8.251066199766253 6.065855454104898 1.0957205575719084 -0.09676501013689141 -0.7292551022616409 -0.42434283615842405
P 1.5168325107231995 5.418956135096153 4.915967407643129 -0.2913838925994788 -1.3645674943265338 -0.018603988254432477
P 0.14357023049587375 1.8710213182621296 8.381563597838078 -0.17574878503096183 2.7199191264817544 0.29130753083558864
P 4.1997123352291545 4.424684503888769 8.344561620819439 -0.04694834372508044 1.192819602924849 -0.1048992092082516
P 1.6912049534282074 7.310065247789675 8.224530093484377 0.30936181723413814 1.8007430614538278 0.46758056380113666
Ni 0.47266320621054303 7.8448216257714565 1.5430523687178594 -0.28081614438596153 -0.5181533916526818 -0.3242780722243383
Ni 1.290673251718608 8.412287907243323 12.300655194829533 0.9226593955908368 0.2483307701637465 0.6361641985422269
Ni 8.491405623907317 0.7130527107255356 4.876291695105299 0.1731871949513727 -1.9237423226969 1.2383368706303577
Ni 8.832286035781866 5.3128042906539905 10.988585567057063 0.7683996336715864 1.0081267213267218 -0.37213710068914624
Ni 0.6105548787515037 8.537739243934666 6.413099783125717 1.6010539635571845 0.6106002340301936 -0.06069166145310193
Ni 7.589365348018587 3.7867347331839456 2.1969221338460114 0.6162540898818613 0.11504555361363412 -0.2939979331835582
Ni 5.6604641012955526 5.675933372353522 6.674297683008076 -0.3485084055266127 0.3441462719031751 -0.184804724585643
Ni 0.5064229427244654 3.6617471036586084 6.141911776058918 0.323159642349179 0.4079553959393361 0.031195965986830148
Ni 1.8756491157788724 3.834533667855875 8.248066941816525 -0.014518248220833061 -2.406081275754134 -0.45783531148891476
Ni 2.201561060334738 6.67870939298546 3.1390415475069977 -3.0029507904617962 -1.953640395807913 -0.9410736364319664
Ni 5.229253533482976 1.8291949318883614 4.530802034000646 -0.06898655447204248 -0.47791022786191883 -2.4928554932269007
Ni 0.570156710449035 5.22366122506094 2.654706831928076 -0.7416380493070259 -1.1840395427393737 0.41175600063234896
Ni 2.3443550450347175 1.4954834328002695 9.496462156381675 0.06759970142684486 0.5483805659683394 0.11670288671139901
Ni 7.279321462683456 8.728462001313057 11.186096069931454 1.6671405707736124 0.4093777302081595 -2.773814076727997
Ni 5.0538702091560745 2.023488234445 12.485433226339723 -1.6286087332470018 0.026532756183205917 1.2525108481378946
Ni 2.4070111573054884 7.425945668574648 5.379669936577766 -0.06704177204084583 0.44224594169109 0.9591739455771029
Ni 6.349458756834349 3.710158131789666 5.381665732220257 0.1264957044321047 -0.5265220753323512 0.7119068407911804
Ni 1.6250339408391086 5.477216303433183 9.579383199221253 -0.12413491750941202 1.6129088060132415 2.018035731364847
Ni 4.613682270609616 3.017667124219181 9.991940682574059 -2.197839660301789 3.162282310476999 -0.016829155742196823
Ni 7.667129039757844 1.9246907856556983 11.333560513207447 0.1430122140298892 0.49065107246735495 1.1090656603356448
Ni 2.6298502730014746 6.787522916560498 0.3841229599333006 -0.7548473489084484 -0.039109050186319744 0.7027994791732735
Ni 9.008615322727422 2.250417247345162 1.2818572510784962 0.9224053705985018 0.6118022247580948 -0.13795511122195597
Ni 3.2266692180815397 6.271361195935569 7.234346504652506 1.353074663195586 -0.7439502423799703 -0.1929551216069193
Ni 1.4734944389882507 1.7805056794577 6.510205628173428 0.9457232193888357 -1.9542525754706148 0.3390182066479903
P 2.498890095177976 8.486212103648047 2.1583454072916153 1.2006758657444743 0.8478300091847721 -1.4705226556031255
P 4.784845859725861 6.182895142804886 -0.1479105295696927 -0.1821122653551444 0.3004426603676374 0.924911424849807
P 0.3276072579547851 1.1558735785605774 13.038261199995102 -1.1217098314622165 -0.08029915127138429 -1.3267373108526377
P 5.812560051745617 6.85542819395046 4.473140975322096 1.1258115123354162 -1.9103990686207744 1.144940262745067
P 3.8424723345379026 0.09089866092355045 11.596196832718759 -0.08418100282429374 1.288701953346471 0.6599872691037536
P 6.102070983769989 -0.017925991623471443 1.0106961390273257 -2.018813490071136 1.1724163566781485 0.9967876421648186
P 7.760464018131591 5.219042701687518 6.671623947488884 0.25525063721203134 -0.07596555689303691 2.543559447339671
P 8.580836187943293 8.688304960736911 3.1828303426073044 -0.9219788245840443 0.01907861389800585 -0.34938155216018535
Ni 0.08935915313240954 7.094942219336033 4.641263572843671 0.6883020568880468 -0.1688461443738576 0.602271402449524
Ni 7.720807781294733 6.328258065204541 8.94781589394934 1.2095464287612265 1.644985117722496 -0.7409153122083885
Ni 6.137915547702275 3.2600004891740726 7.935356740276858 -1.1783113820063447 0.8310116520758527 0.5079553680737575
Ni 7.062297234849189 1.2574161737726364 2.872048235463892 0.9169479470283561 1.1745452300956933 -1.6660326824214147
Ni 8.159984838219296 3.868430661690935 12.670278959096148 -0.29656440835915376 -0.3942622147229597 0.8819991988673131
Ni 8.42903701007947 4.76708587526782 4.769385862811211 -0.28539373645431493 1.1526155199021375 -2.5285102663160326
Ni 3.718810907507343 5.442633022992434 4.97935617723619 1.223509575809538 0.7553556560034346 -0.06291849390109164
Ni 6.099845189373159 8.070980884776048 12.792320193288683 -2.0886197122309964 -1.165187185919561 2.011819061031174
Ni 3.90338490786449 8.685522717740874 0.5515648353351785 1.5486543669095458 1.714596707373047 -0.8018594559919286
Ni 1.7291825703241233 1.0911493323294184 1.1268770420558716 1.3069737550724652 -0.6341281419488047 0.2867811037201448
Ni 3.734335823425234 7.2321624439006165 11.549883615806714 0.6876502822366608 -0.022053123145297504 3.6296723555338843
Ni 3.367543455114253 9.243983806048897 7.5949845514562515 -1.5610478554778922 -1.5980041209872673 2.334182689841619
Ni 3.7843698266373136 4.990722567289336 2.295642607245756 -0.5509946065524188 -0.5780739792677141 0.30379049379394774
Ni 3.9286105776952325 2.4039228675798867 0.907409077456751 -0.6442456899987807 -0.36886588613704213 1.3650323497780943
Ni 0.5311607926165695 2.9888523609235502 10.928440892797381 0.3916031798335578 1.9923239284210394 -1.244880071065514
Ni 7.4782054661835575 9.340453444864847 8.421116891684083 -2.4963053994487137 0.6219927921378513 0.7581828410395846
Ni 4.81208401865707 1.488620566743376 6.4955330060266565 0.10469480650692937 -0.17618690100964496 3.380535801639391
Ni 3.45201235247396 3.6066215957637797 6.522245321031615 0.5964681655041857 -0.4322543776960169 0.15377022387734163
Ni 4.578922781445784 8.228854626514552 5.80880124145797 1.7597828169913823 -0.30225014589002136 0.6765048071428027
Ni 5.531868830018685 4.181915254197833 0.7600846737448903 0.6770521950058405 0.18549763688760956 -0.5323068003349285
Ni 3.916053387639782 6.58294458906184 9.415807714169535 0.11440483470584169 -1.6793841640276563 -1.0875465553169466
Ni 7.778836096048761 6.577751068802569 3.2099368087033686 -1.099298810756868 0.6860937363828183 -0.9443363663436382
Ni 1.013144512863839 2.185999047843567 3.669173837629365 -0.08197525342222656 0.6471559216670403 -0.38153422563333
Ni 0.8521824813997331 5.779275151369686 7.134335997916932 -1.780290450026431 -0.08649165323534136 -0.9821524087501472
P 9.181272048918206 7.58441295548564 10.275575517390799 -0.42706820550938707 0.4602616615422202 1.0439221337587763
P 5.738478194904451 7.21106376784733 10.3969378842923 0.992216992075001 0.4533399947217225 -0.08109439347917002
P 6.178647585164269 3.5676701938192505 11.532536330726417 0.9443065415469672 0.557431106206382 0.131199023445045
P 5.191869461759548 2.97928144501718 2.8565056986736925 -0.17508878284945975 0.7961950586172998 -2.068470748086947
P 6.712365259094197 9.448126248811512 6.397394948827416 -1.4394822413575532 0.12289153202061417 -0.7607811978943801
P 1.555106900205359 5.913101039479103 12.214259130487903 -0.3641327423274309 0.7629879757377118 -0.6772596830309562
P 2.7569060364872 3.6590390538091317 11.231744330767444 -0.7076313533442781 0.325555139164549 -1.2034392874222242
P 2.07650851180616 3.3645757292518126 1.8329305568177081 -0.6621377397878533 0.0736289383400603 0.02344820372061123
