# total energy = -340893.4736919418 ev
CRYSTAL
PRIMVEC
9.03636105118800 0.00000000000000 0.00000000000000
0.00000000000000 9.03636105118800 0.00000000000000
0.00000000000000 0.00000000000000 13.22562780779165
PRIMCOORD
 96 1
Ni 6.077675846695283 2.3937501667329895 11.3964048814428 0.8961184118775148 -1.5688688941842077 0.03895555532759097
Ni 4.549175341969441 0.5329889844522196 5.952974061503344 0.4613834338514893 -1.0103129303447633 0.13027111231413693
Ni 2.82030256297939 1.6348946220338063 4.715002510827108 0.10673086310035168 0.05493367592340216 0.7599157645702912
Ni 3.3705446719582017 4.486228049531249 4.640714585025446 -0.14840407446942183 -0.8893091022651652 0.04997041838085587
Ni 5.173235485965133 4.478420633414884 2.7912027688595638 -0.32136192701880784 0.4435528334279716 -0.4621313677611073
Ni 7.181006518445332 6.051624017223663 2.703318733927482 0.11148354729398866 0.49100871291708986 -0.46833852501308376
Ni 5.055961589717236 4.620192105000126 11.375454981530556 -0.20662413445357963 0.005279246121068327 0.2654694867265621
Ni 5.627493365791135 7.766490436282735 12.53994555346438 -1.0300078376705293 1.314923348936845 -0.8205855716465222
Ni 1.7118302016804858 6.548714249354722 0.39486549190190384 -0.31444231708083914 -0.9231371065582038 -0.5991346565927552
Ni 2.8412488483471376 1.777922147832214 0.5105869412877749 0.35060308327211237 -0.9061313160288265 -0.02677186877720551
Ni 0.7602317825169174 9.141273399856397 4.656849008029809 -1.6963357042803302 -0.037085334888071614 -0.31211161206513344
Ni 8.386728199471458 2.313371733451663 1.1255646385953213 0.9739073951325355 0.6260803319436637 1.3750637658721674
Ni 7.14456287354105 0.6607342161117425 4.694846907068367 -1.2777714224768961 -0.8554628431396817 0.3947574091918234
Ni 0.7666421771846826 7.55092803876435 2.677422329869289 0.17745805441258472 -0.6002114345967018 -0.13742340708820203
Ni 7.589983192068665 3.8922047703165714 3.8262140314107955 0.732420644473816 -0.6203567991963252 -1.0225516385028004
Ni 7.386493373174659 3.956688244166548 12.539032880978553 0.9621484548243946 -0.24438721213496623 0.28017722525038197
Ni 8.13689088374778 8.889556520993596 6.96514501736971 -0.5421870355631179 -0.428521650126462 -0.4453335794774782
Ni 6.953787214919874 0.47649636485189717 0.34721946996121245 -0.6228669672126886 0.46103659203503183 -0.9249803304145297
Ni 1.7472075559577644 6.223233553642513 9.232440344829076 0.41117236021473696 0.7273627703349345 -1.1414808434415566
Ni -0.07617652530203282 4.890641360725457 1.5267799815446437 0.0837014920847139 -1.0432369347662938 -0.6192962191422947
Ni 6.450976966120228 1.6856699358739158 6.922624419527633 0.14154771366922075 1.0152569046136 0.4458038342456774
Ni 3.5828720521505937 4.298316917424989 0.5496330582308453 -0.1648272530224516 -0.15790070110594742 0.08207475511456833
Ni 6.04258765597787 5.724435449235999 4.794184529879491 0.6075429352611085 -0.8522438219817515 -0.07626791862480414
Ni 5.332320625697315 2.92966964313722 9.212377815591168 -0.029717838779406886 -0.793612128381472 -0.8179393922729268
P -0.07382436046975298 5.487971948156095 12.617950134646435 1.2924161689732643 -0.10900397540524452 -1.5544550327517228
P 3.8881655168397016 6.081154845774914 12.528531725574817 0.4260227949640082 0.3810377456128857 1.1675009216544023
P 2.3525353230909287 8.376462893096237 1.382528028797431 0.06777787887592197 1.4570197360206842 0.21440146440615335
P 6.366496024833311 7.811247533533146 5.735769757146597 0.42019538964895375 1.278860798886333 0.4284573725474298
P 4.7639063942532145 0.9960961728462258 12.51258164433987 -0.5623817653434379 -0.42588626938614393 1.1667375611258166
P 3.832899131460433 6.182714509816379 8.104334681451439 0.3811231062378404 0.10398826735820801 1.235476261253111
P 4.923407206602701 1.1728745078976692 3.8179611226850136 -0.8912374296361296 -0.002869608238311187 0.01777043660954359
P 0.21913266384659863 5.556829020849035 3.5493751646485645 0.9340637807730365 0.3322202098895504 0.6817971658899935
Ni 1.6383916938359282 1.173570307713595 2.5215722074631013 -0.9693724833766596 -0.23907634144501408 -0.03907202630079722
Ni 1.9818908938722477 6.536316361725494 4.787584371625565 -0.39829987512744314 -0.6183994183596382 -0.34019628611649155
Ni 5.885147133992423 5.618203986430459 9.210168425266572 -0.3771828906431698 0.7798657253296569 -0.4086007428328189
Ni 8.500568278445954 2.4745261999091306 10.101086775028516 0.467275373855892 -0.3882386342366991 0.6839028993790867
Ni 2.564555467000964 5.0677540411429955 6.737041957714413 -1.0773996966909314 0.4695834531637784 0.9982462289882164
Ni 0.5008177311449483 -0.11905225214107025 9.066247203340954 0.4382494189371872 0.12067704086779861 0.49306328145327344
Ni 1.5172863804198138 1.1221895576700178 11.517115305872476 -0.4461025964330188 -0.3551822180023625 -0.8216312393022172
Ni 3.7828105810750046 6.693196629313702 1.5757010340571165 2.292226142904175 1.0360522440923965 -0.1628091941511583
Ni 5.585691158668098 7.900382200861646 8.106384128181984 0.022134884225826396 0.2550727168732704 -0.12767866899661234
Ni 5.206173022706048 3.0601185540814835 4.975679845501238 -0.34237323916315227 -1.1633305923267965 -0.33303036449567164
Ni 0.9039343245003855 7.360324071006843 6.704917693485619 -0.2567866142405836 -0.5309163477453049 1.2334895698403854
Ni 5.05311513592481 4.656464059040738 7.048506353498273 0.8414282194234863 0.009942198814376427 -0.506606824465663
Ni 7.9228556312799325 7.146008691340376 9.053696601206674 0.985075238823897 -0.09449369760421146 -0.15838124028679176
Ni 4.7652347393563455 0.42902022650262667 10.432229654697338 -0.1388259438626835 -1.2181467688357281 0.0907440007537921
Ni 8.254941907062816 7.0946821594642735 4.697677095410549 -0.11727675693699802 1.2757610769150867 0.47095642225190504
Ni 7.009134927550353 6.1862115816185 6.903142928317828 0.9705639325815996 -0.6788625087417018 0.8368058901601265
Ni 2.3177814777396097 5.260797826436865 2.4932956258527668 -1.3192548864326632 -0.9396567014797818 1.0724312969420629
Ni 2.410937325822487 4.884117107905995 11.409775985178202 -0.5929249282376176 1.76426116447771 0.25709051863424753
Ni 1.2566777220911511 3.2590721196301025 3.8843539796662268 -1.0677714295725482 0.6371453315085737 0.040260133071627444
Ni 3.5632992936922068 2.776665974523457 2.749052661828564 0.26484419443773743 -0.15102994212804313 -0.6566461205456627
Ni 1.1419882251595495 3.347140496331599 8.191372009334788 -0.5776047529407794 0.4202164726948763 0.3007689333588046
Ni 3.7294508679185983 2.832140196211378 7.251730503371654 -0.9546572886536718 -1.505588388958007 -0.6336396323481603
Ni 4.334453326046914 6.872143691064136 5.999885427274752 -0.7305452818279741 1.0170327655671 0.4564903674252461
Ni 0.8193458505146443 7.139159129516066 11.385427509801413 -0.0410134662978842 -0.00945985986131919 -0.05178793120556888
P -0.16881278261327715 5.460203210047774 7.894192293408278 1.8574271444094335 1.4344269383218327 0.7159830677430831
P 8.564401134286236 1.7431321570359117 7.982129642871711 -0.3250059515292983 -0.9898441209674502 0.06397238908690273
P 1.7308246330191421 3.1685548890309967 10.364540983513479 0.0584889973748283 -0.8835580587140008 -0.4512162635105003
P 4.182904511593724 6.267059905684608 3.893717457189117 -1.6365171894608008 -0.33750408399630905 -1.9297558758808313
P 6.895800884805622 4.039723367654138 10.202104257395234 0.573107122180742 0.6079933925349659 1.0972262444985554
P 6.366306261247149 7.864968701139384 10.33384446436152 -0.9615149350054538 -0.2206209629533039 -0.04684061450262256
P 2.46243554856226 8.676036341116758 5.702983127638487 1.085126633021544 -1.1386968529385164 1.0926951893974215
P 6.8911652314865295 3.9492874643062437 1.5983967589620494 -0.2747429416086881 0.6265403022992178 -0.13609183276097206
Ni 5.516147322520476 2.610387891239625 0.5373562578423113 -1.2002068965278556 0.5440433720455663 -0.1828098056428013
Ni 1.5728328929977018 0.9676768167282076 7.177614268433661 -0.5085109834669114 1.6061637739799242 -0.8357442816648316
Ni 6.9539137239773146 0.6734312072982059 9.27506666809773 -0.16092097598950997 0.49089892681210295 -0.5598559135977906
Ni 2.8789124020196017 1.4259920227535698 9.309599122598526 -1.031912768002726 0.2172330203176775 -0.03728973758939384
Ni 6.484935611681917 1.817031519304005 2.520883636736172 0.3013872836690938 0.6282272030833375 0.8204343907806386
Ni 4.042633075975283 6.836820554954332 10.476152695804764 -0.1510960194792882 0.5569695931889311 -0.8262620532060093
Ni 8.230823858897795 7.131749313294516 0.45114575701295023 -0.6808908520256403 0.8064504177967209 0.4472302822795588
Ni 7.407132422260049 3.847899491128449 7.97875727285478 0.6467604860008346 -0.5951353056253751 0.21497790573491363
Ni 3.189952992461034 8.294421769345684 12.516364265157359 -0.4688684293746248 0.4006660613667745 -0.25460606164949695
Ni -0.006526963727836099 4.895783050274313 10.23950575659157 -0.24708918444716155 -0.1635239608299958 0.2670003215487918
Ni 8.575244767781186 2.2807685420768427 5.683634470938997 1.0753399859484254 0.9026680400705743 0.6444596057817997
Ni 3.4972615657079533 2.7334089132398467 11.656962936148487 0.8921344875291023 -0.529188823531237 -0.5985098785245628
Ni 1.1229395756534186 3.2527376303968016 12.64200763919111 -0.9951519063336086 0.6388103779158224 0.51520279366479
Ni 3.1865733933551073 8.290617461261206 7.837216228481306 -0.6225990582632827 -0.009386583421222543 0.8101443217085402
Ni 5.498327618143773 7.9810588340640845 3.6866700228726415 0.6930128321001549 0.42994167040244013 0.06814040442166329
Ni 3.012903566572217 8.254083452744466 3.5954795833607243 0.9324820381082134 0.6282760540434018 -0.7225000429259943
Ni 3.5064063632886957 4.274244051066197 9.252200155965252 -1.0443345387058465 0.7549057129502096 -0.04564273753977946
Ni 7.112953681903266 6.211007356876956 11.503611367626762 0.7930472570169375 -0.778586344396601 -0.8873499216562654
Ni 0.4814013017361135 9.121303041503197 0.40155872467666254 0.5090609424331104 0.29719355730272046 -0.21844349568601087
Ni 4.671898164048552 0.19418869226371233 1.7443674276182117 -0.7841862070818818 0.4923654840553004 -0.939443299917395
Ni 6.068431649140837 5.805130155160929 0.4524144621318595 -0.8913248471436133 -1.6453604987840436 0.508588630782382
Ni 8.169177802478998 8.756369592591856 11.235818802107696 -0.04076818305629753 0.7883951029569067 0.7831937612616253
Ni 9.042777062277256 4.952486217091663 5.671519421416762 0.26989306971555455 -0.6252007575521878 0.801194311604104
Ni 7.81955194951803 8.773583860765092 2.4340839651535853 0.7899547341345429 0.23022429037102288 0.9243470677059048
P 8.629218953502306 1.6678411951359668 3.45963957929722 0.059816972157632466 -0.08907535480211756 -0.22399553585249166
P 1.5060632197525394 3.314085486894489 1.687815168033667 1.84903480658068 -0.6349768631023451 -1.0904099929076705
P 4.7333002387137135 1.0274252372853891 8.2359158484598 0.5628615331933339 -0.08392980604543611 -0.7131391705363848
P 8.441407221369749 1.7277974520018018 12.34814697875018 -0.023702742933578533 -1.2631241048773667 -1.5430637601956458
P 6.23750196804962 7.668635680352046 1.5291601590967856 -0.2392676315202137 -0.17794502135133225 -0.46657860489918357
P 1.7421381572988746 3.180573249487901 6.055512363467727 0.6811374208188076 -0.652261875435038 -0.2608780107011378
P 6.925991367727814 3.8797165190748855 5.838824035338116 -0.22719604506766036 0.3663050673884014 1.1328650767480877
P 2.3020220637269473 8.380050328510817 10.239796727423684 0.2816777210553084 0.2519683669163338 0.06280330847946604
