# total energy = -340858.8191717168 ev
CRYSTAL
PRIMVEC
9.37650857455367 0.00000000000000 0.00000000000000
0.00000000000000 9.37650857455367 0.00000000000000
0.00000000000000 0.00000000000000 13.72346809087251
PRIMCOORD
 96 1
Ni 9.499903268440736 0.43555381841397384 12.36355457475433 -1.5710561316435139 -1.1900065589560862 -0.007462626925632309
Ni 3.395458734238258 1.0685750288022737 2.9763184938094054 0.27104338126991384 -0.011330337411154679 -1.2539005293965697
Ni 5.414961740726371 9.125855594643273 0.8388636996812837 -0.2646444197221055 0.537860383163306 -4.582531157526237
Ni 4.2333247734239015 3.9748519423825686 1.6128503999699064 1.547160813083155 -0.1495289321024844 -1.9326082577279617
Ni 3.8977207841388624 8.466837077016157 12.828491557596736 0.47801255776773804 -1.4794487544481616 1.7360751889617971
Ni 0.803069816447692 8.51311014605733 8.83577267842431 0.20130092246845332 -0.8502802704974776 0.7036625985045172
Ni 2.819797376444177 5.872816646760918 5.63143906586667 -2.346539668745075 -0.5738653405030052 -0.7583646180330875
Ni 1.2863444368025265 1.3071977915234119 10.072270658827692 -0.44669446438074684 -1.18483941293285 0.687788350476422
Ni 1.2383085841788322 8.458538867066524 5.355651574381278 1.0663267267062215 0.8034746229978483 0.7144087812774277
Ni 8.679271251726759 3.8778332097849963 4.911862368624069 0.7948711975995536 0.9733885465145882 0.17688829795204375
Ni 0.6271749573898862 5.096516761845658 6.711242463499096 -0.2818510134083791 0.8824555696784416 0.6038294909652633
Ni 6.279297663175082 2.456982759731076 13.15527506541328 -0.2268664296423835 0.6508629382049823 -2.1601082071892863
Ni 0.20885891205094642 6.921813525987108 12.713228952570915 0.7325491996318804 0.23003300029582316 1.1906092255370915
Ni 5.558234789348281 5.304168917263251 8.045341457672787 -1.2327971717590511 0.12130618981136528 -1.4802496530829024
Ni 4.07155187369394 2.8110397175820787 7.288492201819129 -1.5096047092062517 0.60032379180485 -0.3695796243746151
Ni 6.419513970052833 1.8749547527214012 8.118226932904975 1.2288394726628837 -0.15093044043570136 0.40238818626420375
Ni 6.88278849795279 8.707635189690192 6.03070954730765 0.755224529742209 1.0539692335821333 -2.1670165042733456
Ni 3.8766048871822822 7.477643568477829 8.843813972043298 0.747288562724584 -1.0704944849306661 -0.5734447080258189
Ni 8.237778352881037 8.010763707580967 10.73672005013032 0.1356403470458503 1.7448359658735628 -0.13186648182571484
Ni 9.108274641360152 2.9850114547634217 10.57335595692188 -2.582389275722675 -0.47046868398220915 1.2338598086956105
Ni 7.303137370316679 6.390831230803199 6.180555528330343 -1.006887449602982 -2.0770672315067067 -0.3322721461734084
Ni 3.135213743105986 8.91915984308428 10.473311425057927 -0.3117863675152308 0.7449493730684461 -0.14295462131907638
Ni 0.6122700596091671 8.657780294433472 0.9083051833716635 -2.3063378997152086 -1.0202098777435011 -1.958319546451137
Ni 2.5442874296079476 0.20209001062423457 0.7960918188832663 1.1043194038999111 1.7972653873178728 0.09904712130284878
P 0.6233680949723145 1.1274876311904583 2.1615421066022593 0.26022289361564216 0.44659907645346314 0.4131785920114884
P 5.783074084695453 8.083431647817864 7.642105650821978 -1.395237926827197 -1.360832452764134 1.4558491127513509
P 0.7149568915452175 6.8899333973670505 10.540474417202814 1.2241042719707433 -0.1623718495034236 1.1515917066233134
P 8.554479301196064 1.0847495058227445 9.51493287378341 -0.8929348719432105 -0.23506439207214352 0.31564482202937255
P 4.223610710703202 4.2669864386433165 5.619773751744254 0.7970836318698401 0.3825688375454314 0.038477844360224056
P 2.8744999265528306 2.0288888914141956 9.029602922783424 1.172001123517601 0.7189748033815553 -1.6844577218958214
P 7.741198467081536 4.690007615906241 7.649515905424456 -0.9220143058076702 1.4459246545487874 -1.2625160389797223
P 2.1963064492115913 0.04688347973916314 12.36613498987087 -2.171718794845021 1.9063832625931618 -0.7716441087508129
Ni 3.585379912238048 1.1897382705753314 5.256760353052698 0.06250300363022784 0.007878374306812238 1.4922585046183203
Ni 6.613467046672219 2.0571028052429474 10.597330751295004 1.1824688558181442 0.00022857107103831602 1.0628539376662727
Ni 1.1118757446750474 4.426818401130822 11.689128578495309 -0.7891895738337441 0.6705969262987999 0.07057652466698168
Ni 6.629069556679212 6.805460433032312 9.51678567184674 -2.1349291368204972 1.4574565664477868 -0.722359403583072
Ni 4.4285249256628365 0.5194266862099807 7.791498746488096 -0.23417067661328056 -0.5102966146124245 -0.4023390781938232
Ni 8.807391862745723 3.1144072709271886 13.317129540766476 0.7845011672191392 0.4761379664528444 -0.9284081251491559
Ni 1.541291700678818 2.182504228820789 12.38688426534832 0.8569337712582532 0.8558305108917453 0.6401062139091105
Ni 1.6842834540481983 3.3841975476286428 0.9068302585975648 -0.046376016161378195 0.06508079165973309 -0.048531371941484165
Ni 1.3184214720993561 3.7921600523727976 9.176540310894957 3.1726505410852006 0.7381973990565932 0.5768660750025421
Ni 2.518164477156335 6.34939644010554 2.578008166830394 -2.5589215316180383 -1.1073867299713251 -0.01418271925828525
Ni 7.9345889531958615 5.812656968753184 11.507484982126632 0.13115428625003864 2.6934377923617743 0.039442008045706266
Ni 6.625468977446829 5.214051294861079 4.039804891493413 -0.6700125145502397 -0.7589986520726606 0.6887905664886912
Ni 9.043154790399473 3.246165967212207 2.2161208867997995 -0.08122320574755044 0.4519467139186216 0.6807532980065114
Ni 8.974518748782172 3.162565018160312 8.152508385330798 -1.4717734972910912 -1.8772297809576572 -0.8266906561029956
Ni 5.313311012970473 7.796069794341708 11.310511732145915 0.9620296698583432 -1.4195502783203164 -1.0606283907698635
Ni 1.4994443436107825 2.9471678667897283 6.4655507510818815 0.2996566741312323 -0.4560553367703565 -0.1712627242351502
Ni 6.998400846742591 0.314828459584021 12.371445844238636 -1.2925164419965547 0.2514546605047089 -1.5397202976447095
Ni 2.800500522120624 3.4269075434711036 3.099267022785186 -0.2559252946815528 1.3421215066181917 0.4181019974550348
Ni 3.9102759289101146 8.056605457234927 1.951408927057352 0.7737485566883255 -1.0639235165813676 1.4509406197061399
Ni 3.911504251512828 1.927303799217221 13.416926532808201 -0.43361860503339517 0.29835775281415067 0.08690148707925034
Ni 1.5938095243261556 8.556279590812256 2.9865285738254 -0.10327684311348019 0.5241846854484262 0.6598129483094185
Ni 3.584207848685839 2.2509621167781564 11.074646600550413 -1.3060545856923054 -0.24136693725140368 -0.13012790186805331
Ni 6.3816422525538865 6.77692771791736 13.190805468760335 3.24361041723353 2.6671734593486067 -0.37251042486816494
Ni 7.771015763849709 9.053844009995611 7.9994228206498015 1.1861840998862023 1.1013947740539483 2.251352544618265
P 2.9251049424829647 4.152142963543764 13.0437715026121 0.5018461698522261 -1.4327642059074295 0.1852677802649906
P 5.720110830670838 6.128673431953723 1.6580967413393455 0.35311068018531444 -0.4075360490137304 1.7214944629341449
P 0.007675609790699974 5.062386271205359 0.7937992625751474 -0.30420135607912124 -0.8094177279551608 -0.3398643566983695
P 5.326878820650833 2.0398312767376097 1.352044693634258 -0.005378490703093963 -0.5232470041255053 1.1609209544440393
P 0.06908236341798331 0.6403133209847174 6.262403070308134 -0.016556618807100517 0.0672834557380067 -0.02624427840850964
P 1.888034981964043 6.8779033370671865 7.676180820062611 -0.2996124511568582 0.08261622944033513 -0.9230689723244295
P 1.552581016813686 4.650795057703568 4.442177121918956 -1.3027741151688208 -0.7626951270876412 0.03856911852244971
P 4.13248980190034 5.526776603607018 9.99860318279347 0.4628361071376158 0.025726715342142794 -1.0367988924504339
Ni 7.798695216698654 2.034299136771188 6.263349160007477 0.28056649026900066 -0.5307512829223504 -1.1989676248041157
Ni 1.1945202898683402 2.4527445779262913 4.057178623940502 -2.1102964258734818 -2.27202909913101 0.9352189774234023
Ni 2.762375638894401 5.95313581786663 11.937385703615597 1.21672340612564 2.3693376404761968 -0.5109913266866039
Ni 4.983417317311791 3.052428550286428 9.404061287649581 -2.2207119369142725 1.3111875360434968 -0.20365990961893313
Ni 4.712576871667558 4.202129129918333 11.623914962450453 0.8893350704070943 0.2749242043815588 0.010824344309013616
Ni 0.4904767164704423 6.5849062020320135 4.336231953307768 -1.254327332521343 -0.8496693763863561 -0.48239603154741434
Ni 3.475580998667199 7.847959391925062 6.3756628531359425 0.17694743332475332 2.5504944838966073 0.7790625127020712
Ni 8.264632672989226 0.6140131525240109 4.059319280812256 0.8632455724088939 0.9443623344855672 0.7299441579088655
Ni 4.235950195780847 5.469711173377113 3.5424523814002966 1.5843801024459296 -0.9676375029634238 -0.9299988666750435
Ni 2.997847894787204 4.8306083596291165 7.747899857647641 0.029838166407355066 1.2116076821656294 1.1656124463824378
Ni 7.030243469328978 4.053014516552218 0.8820528351038871 -0.702306598697255 1.8129115784955616 0.8395268886357155
Ni 8.638952265530802 5.9177301220815295 9.340370416571755 2.014420760320079 -0.6603891325278627 -1.898529056656066
Ni 6.460470558821191 0.21604881870561138 2.4720770629818314 1.4111749097724278 1.340942655818742 2.8587507267713925
Ni 7.640935462571452 1.7586579188171112 1.1386156713805422 0.3680045665780114 -2.0174099248553903 0.49089429882641256
Ni 7.953445111623784 5.740035911058374 2.3862773227059946 0.8994747299442574 0.7035893220644205 -1.0488429680991616
Ni 5.426588611164275 9.081617227928733 4.367767964068897 -0.043969720712730725 0.16579810157615318 -0.03222415014102837
Ni 5.006192856258298 6.362729835075458 5.434397367374506 1.909482470343776 0.6003258486873789 1.1697704344148694
Ni 4.833065004834544 5.540325658270542 13.598076924834109 -3.745795458482414 -1.8511780781759277 -0.2572003047392345
Ni 6.818634427359131 4.3630862734159575 9.68624355787582 0.9745146896992314 -0.38507514890705297 1.1489686671781696
Ni 9.038288382530707 7.407291625820094 6.913100874365415 2.4979439634934013 0.6103618927671424 0.5534500100714469
Ni 2.0340178415186583 0.7471286295770653 7.369324267935288 -0.20357532032492684 -0.24138467786321652 -0.004157216701483163
Ni 5.824818300170895 -6.469790808188349e-05 9.647337611498406 0.7441279056084152 -0.7181757045190277 -0.4898604582452596
Ni 8.358988477196183 8.218575263641661 2.4473605867928687 0.05704403739818562 -0.15450478805052098 -0.7110941150818979
Ni 4.91718166184941 2.8714244317918367 3.9098024152350224 1.4697518388753719 0.32769686809790016 0.3733745726406731
P 7.3197619197411985 2.922770191886966 3.6174785135042375 -0.5738437432364504 -0.4448471267593629 0.04636650307968144
P 7.616875341971725 7.538619002717899 4.255098901271402 -0.451427608190358 -0.8944808762740917 0.7639200006336779
P 4.8700647070506475 0.6504540148384214 11.477608613355427 1.3487852917916128 -0.14188864194840725 0.9068730792908575
P 7.785164915051964 8.526565435636678 0.05943768685957383 1.599067272144459 -1.2915584489586596 1.8398184301887346
P 7.381346827028416 4.027163482844718 11.849912256587205 -1.4171637803660109 -4.569551714547433 1.038868887605585
P 3.46296959484544 8.485927648154522 4.169861751500624 -1.3645584954654695 -0.32806813539438984 0.5257715703195719
P 5.593415448931358 2.0989032797688947 6.107903528157754 0.6172488496949627 -1.5724301291729048 -1.6893919259726453
P 2.4493502818790973 7.197989204920992 0.5532093083879833 -0.5774522865233153 0.2064158750975155 -0.7559752918653044
