# total energy = -340885.25879774196 ev
CRYSTAL
PRIMVEC
9.12420617840999 0.00000000000000 0.00000000000000
0.00000000000000 9.12420617840999 0.00000000000000
0.00000000000000 0.00000000000000 13.35419803100177
PRIMCOORD
 96 1
Ni 6.659557409272582 2.116605993235617 11.580280161515864 -0.7964377707557252 0.1809239014739981 0.4932553428594215
Ni 4.740773331741287 0.5950770819366992 6.004849077389589 0.596456852650276 1.63074531997403 -0.6563105915831149
Ni 2.6865860334613108 2.041522900005099 4.954514250089828 0.6382791880027008 -0.9562865967269788 0.4991549961733081
Ni 3.685221283307826 4.576783972811635 4.868740324396289 -0.8045478014573694 0.8628187692841206 0.641270923641173
Ni 3.597391673946182 3.388693704391967 2.831117110142402 -0.29474972374791825 -1.4539886625038443 0.3487125511176188
Ni 5.5956019668829535 4.513808701274749 2.86412848835458 0.45610084529631123 0.6163204243434225 -0.017624912170614807
Ni 5.198781112868072 2.758813250135607 0.7502935165570611 0.9058505515636143 -0.17621364048252233 -0.332743172272556
Ni 5.786854454087339 8.046856472746558 12.94543933852443 0.32277551953688277 -0.8678992691308214 -0.49713025243379555
Ni 2.2589436107342293 5.750978075112689 11.548470441266801 -0.5866519507447122 -1.2427172590862403 1.5747870594408555
Ni 1.1679987662573643 8.027066069390502 11.856404190415672 0.05176170595332376 -0.31010280916522076 -1.0533511403821603
Ni 0.28020619877601854 0.29017256926279633 5.208551312920476 1.4587485457863327 0.31091193533007744 -0.2308210434147573
Ni 9.119917872973598 2.670627796730216 1.4591065666607765 -0.49730354478686606 -0.05053683240728715 0.4986276629149283
Ni 1.5730587785159158 1.3433842587931546 2.9995800673963844 -0.0323925573980926 -0.7816863234781635 -1.3009943975605789
Ni 1.976394315793234 7.099362398930794 0.632030117248839 0.34233672949826205 -1.0167468588955653 -0.24920880189332567
Ni 7.98524070794091 4.213056614865181 4.187596429745429 -0.30143510618789376 0.5518896075628624 -0.6335761261000766
Ni 7.329858097216047 4.174999550596802 12.7691505495699 1.272224267406422 -0.557087349713718 0.6048041961737068
Ni 8.006947194609449 9.139626158473405 7.566742564717489 1.1242202565888961 -0.7492014634765807 -0.5760374084536596
Ni 6.949606801751004 0.9715272330780295 0.7616549781794504 2.3339281506286516 0.10362625603309894 -1.1508802823785858
Ni 2.0220883406927888 7.007125797950444 9.508936618224181 -1.1910884791663552 1.1089479038108578 -0.6886818088249688
Ni 9.164535241535663 5.229584433167771 1.2753970607631924 -0.07268817169334578 -0.17695951750961136 0.8550365542355404
Ni 6.7552429602154 2.0593424748111753 7.1665302432395155 -1.5663924076192572 0.5287347667129539 0.5542030861873875
Ni 3.8488821708124807 4.675407518166924 0.8752403969433431 -0.45663023543722 0.5155048982862412 -1.0354027834338555
Ni 6.119751119115344 6.025251714985015 4.911286498139624 -0.959404059310038 -0.2778560333163731 -0.0023538449441572367
Ni 5.50766286704631 3.494105659197189 9.347778500493877 -0.5142463432887918 -0.9217055163179998 -0.08993307481672252
P 0.18473871636257416 6.189095086614668 12.450573413830506 1.5904923859912543 -1.143863227630804 0.4187805115792981
P 4.06957847158533 6.440558210862216 12.845496432945406 -1.1620324423406632 0.8301909559467703 0.726817953575058
P 2.803704344885169 -0.013312216918620232 1.5345309052050413 -1.2768597092959042 0.4776978547407967 -0.004924176774494745
P 6.573178548704674 8.34309207706242 6.240616742046041 -1.3157754125244954 0.5056038371224453 -0.9029176941875353
P 5.216646308705398 0.9127947174473521 12.6590186428716 -0.767237495042685 2.368381961431147 1.3347470685309917
P 3.804529404231663 7.007709747150439 8.295521202937259 1.164679650155523 -1.89147112136802 0.7633774978666465
P 4.692825627898004 1.7514826317329264 3.81302404025033 0.6446614373799607 -0.665942201135608 0.07920154733183134
P 0.15991175115656617 6.354197598706809 3.719985421540612 0.5844485153354902 -2.1428635611762257 -1.504268641705319
Ni 1.3409937167556778 8.060843880927672 2.760126223414969 -0.21484266570863 -0.2788597919905391 0.23203177589340687
Ni 1.8994225118689843 6.823200048364736 4.8125990833405865 1.215979843091396 0.8915343920512581 1.728812336751797
Ni 6.0170673019788445 5.865550732992822 9.489667207044993 -0.019819348718772316 0.5278487645635748 -0.11074949734144152
Ni 8.76682021530829 2.5675425145187214 10.70568667079564 0.9120749352067713 0.521814642554353 -1.502874846681586
Ni 2.411892680101489 5.623512913801432 7.149356662235932 -1.0506329701200487 1.0232517498936184 -0.9594554813732636
Ni 0.5958243544285668 9.438170186970495 9.447240560403532 -0.4022904843440749 -0.632363336738898 0.696812151241587
Ni 1.7151500424457806 1.4526466286358393 11.730527553412525 -0.30865553519573297 0.6162697736111451 -0.037031084611368476
Ni 4.537504264905768 6.817999250802288 1.7724756054727218 -1.2566755210385454 2.1685997896000653 2.032103522311823
Ni 5.680566575482125 8.322371004668874 8.329467812290053 0.31757006407654337 -0.3767139214265512 0.8525130164827383
Ni 7.105849709574482 1.0773680255769977 4.927231960981969 0.18945379332188017 -0.24462941005275934 1.6123501052962943
Ni 0.7866324927885817 7.7457029212619934 6.983618192968174 0.33630826391599494 -0.1723454157763677 -0.027372992696314147
Ni 4.612021657348792 5.210934555592954 7.13835286949854 2.8218255716102694 0.00901197369062319 0.36341154789069025
Ni 8.302863451706562 7.168779360080118 9.475804800489504 -0.4516957742500802 1.0440838561476213 0.6265055924065404
Ni 4.541080953755733 0.7171872465998838 10.617455596359001 0.9317305046541695 -0.5102819593244051 -0.24287848879992366
Ni 7.98401806430342 7.477870971002105 4.837091190177222 0.34497262445921234 0.7004507764354387 0.6844551723381308
Ni 7.0152463415128645 6.5288075337113565 7.356440559704538 0.7867557675812709 -0.8124955955495362 -0.5725137115711172
Ni 2.377412304683075 5.813104795468333 2.725378508753433 0.16341751715911856 0.4754316844144392 0.4938071015978334
Ni 3.3116671552302175 4.7488208816537085 9.281261212090774 2.2085490762994935 0.059003989338033865 1.3398594500568923
Ni 1.2003167047945493 3.538978505534252 3.6364286779658017 0.05789352988267449 1.815468026368828 1.2020537199286072
Ni 0.8416833911974202 0.40903177923913775 0.34460119680539075 0.15667634178054307 0.031115490457881895 1.5669531652187336
Ni 1.3889322963927107 4.102416489878759 8.598153788254935 -2.327237368872037 -2.5158010462794804 -0.6541359525292992
Ni 5.680977164763371 3.268673895380637 5.049409644771402 0.2244544777667812 -0.23056444731926098 0.7848336108578935
Ni 4.26848616783339 7.418609251408933 6.185798510896576 0.04691466227366759 -0.25307779793042867 -0.8481511399696168
Ni 8.582994831991332 7.466420092158466 0.6339562371881952 -0.5267398477701122 1.2274747311048733 0.09704268927831029
P 0.43548467799887985 6.02269693723504 8.263911302805068 -0.5566219800415252 -0.6949218761974096 -0.2678277025460936
P 8.80486815537042 1.9901536188181 8.289204514950447 -0.5268874290915699 0.5605079453594928 0.3839623754588484
P 2.110894240123173 3.5052645634408304 11.07598528208328 0.42646322493553646 0.5447841068663327 -1.3205900603043192
P 4.143274685465861 6.593580273879476 4.002733624177856 -0.22725980842606022 -0.23176669515747825 -0.32798663142417706
P 7.124928424843045 4.247783343852342 10.6662253911854 -0.2281272986326781 0.16817174401465232 -1.8396600502339995
P 6.5311068336863345 8.226338733888559 10.737135984897833 0.316595615978416 -0.3014042529499583 -0.9069977777941799
P 2.5781904632123673 8.953802573987717 5.843930926283657 -1.0780036488235176 0.07967848696824988 -0.1825519239957243
P 7.118304251105609 3.903928507118194 1.475344916523743 -0.09580804554026079 0.23187982369657484 1.5022348991047418
Ni 2.764315146504303 2.34612540145213 0.40926992102226034 -0.23633837368856073 -0.0901063671697932 0.8558752480867519
Ni 1.4903660972729718 1.1030161693454976 7.407453084427167 -0.47477399622578237 0.8411248292504547 -2.2034361805529596
Ni 7.084864035199686 0.9839635261966583 9.475804800489504 -0.8990427846131612 0.17025999400224873 0.6234133266344619
Ni 2.579568218356104 1.8578161313693897 9.36377688373247 1.0052311449464817 1.8258023184153007 0.4842685659797788
Ni 6.7436095972467625 2.188595980547415 2.971549593376033 -0.33688547657570367 0.687544609896732 -1.893716465758771
Ni 4.044486904398074 6.704703981797142 10.655701531696753 1.6917717390587315 1.9117748659223786 -0.49308153628571855
Ni 7.335505980884743 6.355976818925541 11.78911316932258 -0.14772607456579073 0.9612007461991445 -1.0500945811180755
Ni 7.713056511299812 4.069751831504078 8.357804859640401 1.1289032638868621 0.327660615543326 0.11167226626602704
Ni 3.306165258861521 8.704611377096397 12.840408775540455 1.1666874246141714 0.7903594257721291 -1.2752764239691843
Ni 0.19426256284623133 4.932892618539413 10.540415360887875 -0.6494004947268429 0.8490857359687441 -0.13783632625590456
Ni 8.827122094413951 2.7073618510923585 6.127306874310896 0.7753680945696194 -0.26294594897376006 -0.41175471508076833
Ni 4.231952846008746 3.0731786522700424 11.632133938054734 -1.2937338593434236 -1.3780285049274459 -0.021982932028994397
Ni 0.7683758685031348 3.9156713605618294 12.809386474290758 0.7535792808293021 -0.5528650841022542 -0.6992924944612796
Ni 3.478904731584837 0.0028394529849723204 7.985396731867783 -1.2488719658337266 -0.034608591212804914 0.5110589466997457
Ni 5.976108740122995 8.484444280286043 3.8560912061705355 -1.0475052231243442 -0.8181985594715845 -0.7263844655820652
Ni 3.539535082115496 9.041267215099364 3.639940584951393 -0.28177490875480504 -0.8164687212646712 1.1257888866275967
Ni 3.7957975388504983 3.01391693267687 7.07429272983854 0.2549906986824254 -1.0867101754585802 0.8804549943086449
Ni 5.282285848467257 5.0149739779636135 11.811748500187356 -0.07821244394568466 -0.4113250837425174 -1.0237518294584886
Ni 8.384014142093273 -0.04624877663954916 2.7725990133585974 -0.8552119034711401 0.7328713588579895 -0.001579428671977925
Ni 4.939900008939346 0.3747986698100964 1.593850107297588 -1.1519136087391064 -0.15430732732773425 0.8067280969381396
Ni 5.974393389348011 5.835650709111864 0.5232266949805245 2.6294317218234586 -1.1073134535312283 -0.053590531631946416
Ni 8.371559600562144 0.24966748045756623 11.539015026330018 -0.8137286966256888 -1.4572084549927224 -0.1293491147204998
Ni 0.17113361242333175 5.020795221551056 6.20167645461267 0.05218259554082626 1.6148016521605801 0.0676017583093739
Ni 7.348526223203366 6.281349936007519 2.5638453861462573 0.23636022806543167 -0.9787115013893984 1.3583665077221445
P 8.771364070020745 2.0438039515675768 3.8215305377371225 -0.21904924759080985 -0.7340352972591035 0.3422500833217267
P 1.9289484432936963 4.089460117003886 1.6936059666484906 -1.3075000598895805 -1.824694944283735 -2.411754929100143
P 4.965630270564095 1.4523272814170927 8.57558506409578 0.6970142399500642 1.3360801855201183 -1.182274737529467
P 8.642585023009502 1.9050703955376793 12.770886886019259 0.10501233774734817 0.7260949593661044 0.9690750067408989
P 6.712806276947063 8.031883650290455 1.69674469359846 -0.8280520552268965 1.1625206948309916 -0.35257280540397345
P 1.9260834425312243 3.652045669383149 6.138390960063288 -0.2762750619824984 0.19975543235820437 0.3175386966179757
P 7.089070294280895 4.577678145024127 6.230320987713641 -0.3676024460435863 -1.0390450081721332 0.5774988234905345
P 2.571146575987436 9.107946914373715 10.40505684874982 -1.0603620244823544 -2.040690749760201 0.1715568584368013
