# total energy = -340868.02314693015 ev
CRYSTAL
PRIMVEC
9.29558326824053 0.00000000000000 0.00000000000000
0.00000000000000 9.29558326824053 0.00000000000000
0.00000000000000 0.00000000000000 13.60502572502913
PRIMCOORD
 96 1
Ni 7.827234508775091 7.329493196617124 1.1611959202852207 0.5641578834072543 0.8905167494200211 -2.180882977842793
Ni 4.04206362669171 8.933483305646854 12.177600104422229 -0.22115061020452884 1.6409266313824062 0.49015613510880746
Ni 8.31944494877204 5.275652621435436 12.295746040690046 0.6670819711670061 -0.521278824655541 0.7529192786478001
Ni 8.025286210056937 7.5934784714084085 5.514688550209613 0.7136940145985902 1.4730816745795534 1.2700557990001933
Ni 0.39694744154221184 2.7335336380620276 12.742630286158674 -1.5642805034825769 1.4845966171976883 0.28081794415817446
Ni 2.170416487402454 6.9620573734560995 13.22777236448967 -1.0863975293141679 0.5798048459158918 -0.4905705969384067
Ni 8.206113195180176 5.771460452232912 6.932536459491448 -0.7706249234576792 -0.0966667939961303 -0.45692848340392916
Ni 6.052252141926927 9.20273917626217 0.32547555940498063 0.06359880779756788 2.8566269955601706 1.8960386861340441
Ni 7.303307537999318 8.78980147204536 12.083752823329045 0.9159300472868032 -0.48128737186426784 -1.1118244540277045
Ni 4.879688652623704 5.711810693145068 3.3898148444301888 0.34452628095041316 1.1820163416617577 -0.47961641191974824
Ni 0.3768308693679867 8.44315986909308 3.833338736476616 -0.793590274004601 1.4324027088029523 0.48653345075455573
Ni 8.418498686163353 1.8947466641970472 3.4853223167300253 1.9502593951508218 1.011557601385142 -0.42238468399078866
Ni 5.046153961295217 2.3473207363039275 5.80568679054699 0.09410006171021859 -0.28194485867376606 0.4456009742062519
Ni 5.143776178833091 8.91616563365361 7.517892364030056 -1.3063708313811437 0.3426899990726227 -1.1964600278909137
Ni 6.145180089815531 2.949321312592993 1.4079564789178993 -0.12570200488621577 -0.8151929398760411 0.7413410868918975
Ni 8.935258762088461 1.486744914799566 6.7295766901406635 1.5867930827627963 0.023627666721268988 -0.35808756457461555
Ni 0.9154959877257727 2.943130454006036 1.8197127144764496 -0.9113519409978175 0.4710245564856791 0.3417723723543598
Ni 6.487266856870501 0.18554356417282158 9.765075497910779 -0.06285627320458853 -0.40038066891587176 -0.2471624608872582
Ni 2.240402935302154 8.07513842417383 10.792935568989822 -1.684306798140254 0.3168941210554413 -1.0229905258124317
Ni 2.4222431390229575 2.306968608487139 -0.035999006080643985 0.7337535043526267 0.7101379218162157 -0.30721828852857413
Ni 2.5471571896108407 3.289855717209491 5.352911004278943 0.37376126655613046 -0.9445577383258248 -0.5562699960187452
Ni 1.463961439729548 3.0187128431510035 8.495563720870813 0.4407914686327505 -1.9158472362195393 -0.9316245752039245
Ni 3.9461332053442666 0.027794724115406195 9.4781589482724 -0.3853124617288396 0.8610830175399364 0.6396809534462339
Ni 8.449452979098139 2.2485923443338494 8.900952481756592 -1.4004377258605818 0.02226909581084552 0.258632923420703
P 3.725279437825476 9.10493104705502 5.691730373746352 -0.13484536194838065 1.4952484404845796 0.08549535076034308
P 2.217507913230569 9.188758618732466 13.482743711996012 0.2694374702353747 0.3816470970621105 0.19861669076807087
P 0.6906869494430928 6.337487120516686 4.202375259110123 -2.812448758381059 -2.2772116717732134 -4.779026688186247
P 5.467671489049208 2.1597544531693607 12.96388934111649 -0.8423306766330977 -0.6900308666536955 0.11352346054215288
P 6.501405439319091 1.7775386523007373 7.4661392030947935 0.4957706530821075 0.05743561640964947 0.2928573918212118
P 8.984683379366015 8.98245243933468 1.666316066596832 2.0068270071332215 0.9585265418010912 0.7304632636371291
P 5.3752547982511185 8.672937396737213 2.4244833746377576 -1.8489275915788546 -0.25457392285998093 -0.4306168420925938
P 8.25980448526766 3.56693846910141 0.7162516630855095 -0.1544605650761469 1.4824703148833052 0.031072038814456165
Ni 2.635112000346259 1.6570864817755262 6.8296008864456095 0.620982348595466 -2.0136558571295966 0.6992955797850731
Ni 0.2642715787619729 3.743796240085564 10.515487500667772 -0.4894010021103377 -0.38153731095712357 -0.10049156705885917
Ni 0.8032741267994984 5.208975401248883 0.43248910491643194 -0.4220568683377247 -0.7429922493420753 0.06421432989437974
Ni 2.0444334447162222 1.0603657968939553 11.388359519978177 0.9160822565939513 0.33655097605442036 -0.27463289839338506
Ni 5.648405518337809 8.090866551394749 4.579696935285003 1.360812912380108 1.4876143209780894 -0.8372553189927192
Ni 8.917485606505483 5.148665655735102 2.7058355880146463 -0.09293406642657544 -1.3316874557690614 0.12603342008370552
Ni 6.804106819237518 6.229872150755121 10.84704237165814 0.6281135603236085 0.9771523844323945 -1.0565393083021546
Ni 4.398893189120424 3.8650292396217427 7.756184646127121 -0.23056547576052547 -0.22661060487783555 0.3558180518141485
Ni 3.3878683492528485 7.8270857794396695 3.448397470536377 -0.21012546273861876 0.6444171825796385 -0.9610325960523963
Ni 1.1096602760030148 5.888501143626871 10.922046575511654 0.1820536442030671 0.5898488604154551 0.410668423995125
Ni 6.712935736623591 4.346828626139123 3.6579422312129872 -0.05786730463042938 0.08712337328206932 -2.378423147717233
Ni 4.119663157448344 4.227854453384672 12.018435547003262 -1.1021995293434308 0.7192964483870322 1.6411564880050253
Ni 1.3846701127824845 7.012876328253239 5.767755232664201 1.6064869616472977 1.89057920568137 4.337884006861665
Ni 2.8856744526156723 5.851318809771272 1.716274250365214 1.013056040307539 -0.17159851030801415 -1.5644509676221703
Ni 1.2248697374545865 0.42677789843621206 8.654225387224384 0.12851144931055286 0.598416547479808 1.3062502466428794
Ni 0.4366405124914095 6.614755784077883 8.465781601010825 1.0880854585395519 0.3799511974169263 0.4717349522891424
Ni 4.041329275598062 2.268726578116656 11.013350584969118 0.06373044827942571 -1.2738677165471157 0.32117269382613717
Ni 6.016324711838955 4.8748084713051565 6.431286064575858 0.09876609972732023 -1.7732122030234105 1.6132687604558216
Ni 4.020144640883835 7.056779368953237 5.610658013007605 -1.1988961481362321 -2.5683441104835185 1.3643121837826182
Ni 8.065275810118633 1.3855903755454104 0.7291427782332455 -0.29110981300248573 0.1266196316044787 -0.0055870071694742495
Ni 2.61697631700819 5.363207722081905 3.8379781621834486 -0.8097005493029024 -0.41354677398418455 2.1649511371038845
Ni 7.059856207079788 0.961497971171919 5.476852736836502 -0.00944931833835792 -0.6800336462316675 -0.9927744072403676
Ni 7.048636437838861 4.559269890623084 8.713842611770104 0.7179571607503183 0.3534909463428686 -0.6707607055701739
Ni 5.035027147888929 4.987405873803372 9.965845227797468 -0.17559374751033627 0.13552310474169563 -0.4261714047267305
P 9.053266194162665 7.360810017307002 12.010407881123836 0.30961455667489257 -0.4490246551758202 0.3250326910021757
P 7.509734559982137 7.26896035710021 8.713162175060546 -0.3620542625318474 -1.0996675069501964 -0.13576787376265004
P 4.027990113327367 4.759961537608677 5.711621063242404 -0.534141282440506 0.08847705909648633 -0.754396634524275
P 2.7720452403529636 6.499983215049115 9.3114835594146 0.39627281739508524 0.09539692614477119 0.5098353587052897
P 6.380544263121469 2.155143843771267 3.8523444864269054 -1.6633219683584708 0.8383318398863497 -0.3246891916198279
P 6.5460521266962015 6.03490658318329 4.968419644578358 1.1341722255952853 2.5549417210346834 -2.022630806934697
P 3.4429167945260617 2.246510133637936 8.856844938220389 0.31292716598789333 -1.0899173695419682 0.8550308978085855
P 6.888045937916532 3.9239260564490106 10.718705687238852 0.570617780099985 -0.2275205182866146 1.3192006361559603
Ni 4.282512484152401 3.3204567779726486 3.7559799613316973 1.509249125639046 1.2398566497089938 -0.9236891224069318
Ni 0.14696596323929184 0.43809805997854895 12.591315848974968 0.5586050719098251 -2.451021845020566 1.7654559561167593
Ni 0.8428891148475993 7.079060882516204 2.1220710873650583 1.1781815412967 -0.24986263342724066 -1.645871119871875
Ni 7.316786134021973 0.02153879644420176 2.9842764246506412 -1.489516937317441 0.9010688139042546 0.041419700597367375
Ni 4.035556718266981 1.1274334315859909 0.9467012614140836 1.5451751501116937 -0.7325875090689835 0.7358129579848166
Ni 2.8049516058151682 4.32911124405693 9.847059755387333 0.010120890484085796 0.2634966792709075 0.9610192263159579
Ni 6.081142815332727 7.221050919927271 13.136115122860582 -0.8569286290519306 -3.6382318150681217 -0.8737945515693338
Ni 4.873283995617077 6.517068497455762 7.906343642286263 -0.14707764234851445 -0.2015148382514723 0.8433596321182443
Ni 6.835432935510861 5.375087477748769 1.2062776409684408 0.11748655895495895 -0.2736173126446772 2.627132384266321
Ni 3.522059392137703 1.113164710968905 3.7873674284559007 1.1208168873343018 -1.254863150420155 1.1982119775850137
Ni 8.864063888338453 8.420571601275803 10.088670560781011 0.08173665504885923 -0.7024978887724548 -0.13489755534255476
Ni 7.370207852189004 9.028103049725889 7.424126884071353 1.6664000930631624 -0.7948827675637794 0.9127053697019184
Ni 7.657143922552657 7.166253455407583 3.3573397940407093 -0.2505807425401878 -3.037519529575601 -0.09015136147511571
Ni 1.2411370085164106 1.054556057229018 4.609722599431746 0.48770433113420525 1.2045615739521254 1.1455789247703303
Ni 3.815279276922952 6.630846439053894 11.516042724879958 0.9462860338708412 -1.6374276170902122 -0.14895737586973057
Ni 0.7842683768492092 4.521706437845466 5.92651264352745 -1.249486202378958 0.8829314808735955 0.1709909586310023
Ni 7.68511433319553 1.7543461715583077 11.660037819644186 -2.609669451594867 2.08783912531123 0.14937955100881373
Ni 2.613239492455703 7.93752660657426 7.572040067265617 0.7816040481770024 0.7172313383278874 0.6265300178865726
Ni 4.094053825005301 7.8157730543641035 0.7573976337301147 -0.37937604163974664 0.22736496654535682 1.2793639637749967
Ni 2.6381795428893455 5.429782690850354 7.335571578644167 -0.6647101285007196 -0.021777757996723785 0.02272083863628345
Ni 7.780626453287099 3.501860089270649 5.358516241107675 1.3544741146462735 -1.0611883770383916 1.7912361504046568
Ni 6.225670547029438 4.344699937525889 13.027193194063992 -0.12979365845708615 -1.5359505461896321 -2.4543483382906377
Ni 5.658100811890656 2.5279896965082793 9.374529924700154 0.9770089168759949 -0.29228994935351593 -0.3883759311455118
Ni 1.906803035949725 0.5745860415373332 2.2007628491787004 -1.2291297502097929 -0.8928911631894686 -1.1809876432869273
P 0.5937061271642283 8.735301466196516 6.898074942915733 -1.094553582762399 0.40445355343366474 -0.9774316062357101
P 9.367810147414101 4.367185953925063 8.07265092603889 -1.9660865919910657 1.2267432522554873 0.13109515087732906
P 0.04231535504436376 1.157709146927912 10.623689021745909 1.2641990831091001 1.1118596781410142 -2.132247733333592
P 1.9191568663732477 4.2954612319176135 12.369894121306533 0.20953719433531653 0.09880466627473951 -0.8136039981223665
P 4.750396382224324 5.686052631366602 0.44721609779828814 -0.7041523936567421 -0.302309281262731 0.0612498479494171
P 0.7296084869647869 3.26122532014068 4.113738152548454 -0.6865817317628304 -0.2588578949473155 -0.22321212071924784
P 2.9775798863232477 2.6240130736903624 2.233986194037024 0.3013926829857325 -0.40818088168658095 -0.8832978630740788
P 5.464594650922658 7.894506646303333 11.03738989336511 0.7337501619185169 0.9251351108248389 -1.0565645051131352
