# total energy = -340870.5991704079 ev
CRYSTAL
PRIMVEC
9.24378393078234 0.00000000000000 0.00000000000000
0.00000000000000 9.24378393078234 0.00000000000000
0.00000000000000 0.00000000000000 13.52921215869925
PRIMCOORD
 96 1
Ni 2.1522949106449762 9.272809375934242 13.26738117297027 -1.3978236852765025 0.3498016704167395 -0.06535204304324874
Ni 2.740976044182664 7.251600564697249 5.229541325341962 1.004114000622903 0.1197144198442132 -0.8720297463594272
Ni 2.3201342948175125 6.930600925176652 7.772126355202359 0.7338686897742522 1.1699031033379914 1.2307469740982417
Ni 2.7314549467713234 6.799792139285504 10.350307348083717 0.08526729390993701 -0.8036785114785384 -0.10630226020336532
Ni 4.088562591675359 5.620433214888915 7.620314767924506 0.8927368969997915 -1.8839246764793296 0.6036058049902313
Ni 5.473697389347535 1.9932648525239036 1.1935998978644644 -1.3857757529730326 -1.3408020164758199 -1.4650809157622637
Ni 5.900076165265496 4.514303546504599 6.378631479375992 0.3503428876321902 -0.8192779085786922 2.2202421963667054
Ni 5.661004182401899 2.6926033230627167 10.76795444573493 -1.0382176271748313 -1.5014404282279046 0.5319267912876904
Ni 0.44584248728623127 1.6048595408445716 2.5866640133613474 1.2324680705544064 -0.11730709595430118 0.18742596425857397
Ni 7.308745636733082 7.254965302034849 1.0457594401476906 0.29724935024132026 0.7217564798917505 0.640853119377464
Ni 8.70170067558001 6.241282716379482 3.937636558894599 -1.9078477629538302 -0.10852317911408406 0.6728098747897187
Ni 6.863740636267694 4.292776265472774 11.649869665109287 1.0233054859496893 0.8355668755467028 0.7976356477185682
Ni 4.9086526112280975 6.08516445018518 4.925620500944852 -1.1464638984784448 -0.3762500944162553 0.43945706609204316
Ni 4.7990305780231575 5.081853390059447 10.368165414189512 -1.7929274220641507 -0.6726098429637707 0.9563372474592563
Ni 3.5954714273907524 5.261617255455895 12.596359185635496 -0.08212617717779404 -0.8290889811318432 -0.8963007030916498
Ni 0.09349532782258639 0.17812309375517363 8.605918435621923 -0.028641060775460348 0.9427751925041052 -0.16589708904786268
Ni 7.519013988981399 1.6159520815179782 3.8418358313687233 -0.8808406597828379 -0.521449031684818 -0.36290889722265884
Ni 2.051297327813609 4.009620677216282 2.098840881518219 -1.740744055192376 1.305811616443564 -1.418579943987247
Ni 3.9300686730201675 7.421242486729215 -0.11517569856875957 -0.9202554141350345 1.1123795552002262 0.5966041768614176
Ni 2.9360291281406248 2.4758828096560355 11.256940445591987 -0.09700000896583295 -0.2533462211004669 1.8561840160309515
Ni 8.659447339398225 9.705418462197102 5.4675743068958145 0.5655794463451291 -1.8485856348584033 0.24208478925403468
Ni 7.952538209849812 8.028170849674655 7.101605380954666 -1.2614829697295176 0.9538468769372346 0.2825097300383006
Ni 0.6686786881175175 6.7642590339950255 6.211152602775342 -1.948665825411457 -1.512390756591821 -0.8344178495439243
Ni 8.97515029074727 3.9128844787602817 3.1533615800411225 -0.5246922212124642 -0.09348453961340673 -0.05798686092742916
P 0.2083354770359754 8.03435494110008 0.5209519289426462 -0.5443071672299142 0.5517191434232692 0.5780765503708754
P 9.284826294997101 2.3552236984810553 4.742733160970451 0.6072909671513025 1.4159278510763806 0.28040373943889124
P 4.566068736313829 3.2849265074548404 12.799622598448554 1.3306369030173602 0.26390728444576483 -0.137047511806022
P 0.5751177294292801 1.0205044981695122 11.174290849412822 0.14903913695025944 -0.31315419439703485 0.32972906803658053
P 3.2453538686024617 8.646764867894964 11.583806190372037 0.6165618509302672 -0.6163425358306095 0.44148078139029134
P 6.650717636418815 0.8156317425804186 7.912315732989651 1.3551019780382598 -1.1447883105482348 -1.59149948709953
P 6.4853833176816895 0.579793235323121 11.278465520768732 -0.35836087284066026 0.12502066254847502 1.1161233385133744
P 2.797991703243974 2.1607622166923433 2.5956877951991633 1.144444039834939 -1.5109164860391398 0.8830600360316598
Ni 6.42313567693609 3.188338209541152 2.711809132860331 0.062391160642711906 0.27886981929286814 -0.9604898361750491
Ni 8.294530482594832 5.686091811891587 13.327383498607896 0.2037658390691781 -1.0219538570178013 -0.46777056832475566
Ni 5.9431337106461015 8.493013010377654 12.968994601990802 1.648022104776607 0.30826292774300457 0.8381750025935113
Ni 0.5838096594252836 7.988551991902805 10.574189020873472 0.09178735441664193 -0.21333702769738097 -0.8843299038830189
Ni 7.635670541730058 4.240447204845979 9.500618732500772 1.2649657860717956 -1.0021244809967 -0.08544778535185929
Ni 4.958790895071895 2.188881807299429 7.414860578328448 3.7470257313450888 -1.1206441092018635 -1.3186799877658
Ni -0.15973720758900223 4.295059480094717 6.3444294789663225 0.5194597691689311 -0.14515805672829837 -1.7504060037621725
Ni 9.205949087025285 5.818351871854173 11.244655456796188 -0.2759945546276021 -0.4846670869697782 -2.080152812410566
Ni 1.6696954410806333 8.836373363139062 6.614878561881428 -0.5692869771037035 1.1282268066451282 0.2521239186575916
Ni 2.345989158370444 0.3277568455474814 9.908700362577951 0.32104388155775676 0.7682538521223413 -1.0710251606231553
Ni 2.0290937588990072 7.999727726631263 1.948598888745653 -1.5100551664801092 0.11976918434154857 -0.5751233812798224
Ni 2.31803595587346 2.617996743250163 4.728906309021049 -1.6928577730340586 0.5391623898041811 -1.3629047619121302
Ni 6.23844487472387 0.3435822035748748 5.762185716532768 -0.5623192875366186 0.5397912816374316 -0.1805966000415664
Ni 3.520689215684203 0.902537176864612 5.678453673259558 1.4050500278216125 -1.0878666576605265 0.7937131727357105
Ni 6.739892419649109 3.8561368894319124 0.4287608990275746 1.0210719686334802 -0.8834986662309752 -0.16631849285599742
Ni 6.232011201133293 6.328941519051078 9.075815097358436 -1.1994854449807988 -0.11890015147303393 0.24361485274531594
Ni 3.070868203809776 3.010866802550541 6.88157929042731 -1.3513008591246147 3.0873449377381603 -0.6007400534066621
Ni 5.015778822781521 7.319024724423772 11.156553876876046 0.19981405351028167 0.6894994196302576 -0.9257393200677412
Ni 7.580531370799333 1.681139245542031 9.716815123360638 0.7313271542993212 -0.1583907533684885 -0.1691518485397345
Ni 7.739025289454524 1.43553190746502 1.22483187050883 0.04325881068863517 -0.2030189336008245 0.16172881660278596
Ni 3.571807340620818 4.433032198504106 3.738824952405133 2.262380520297652 -0.5324595238627088 0.51037194793505
Ni 5.784907861723852 5.953468261040159 13.218838366226665 0.5731060937394775 0.31691751809420904 -0.39218322070674394
Ni 4.609662421160317 1.0880395833027694 12.69069847092765 -0.7364696177322091 -0.16794728670867204 -1.638084276837605
Ni 4.48492680128786 4.399486506750946 1.3142774966072335 -0.5198042969925435 0.5088951062792075 0.08359659107573345
P 0.8863910595360793 7.795735903647316 4.164927339184648 0.6487860010712956 0.9693511432204208 -0.07504972994698689
P 2.166077392431684 4.467511512430612 10.780658177941149 1.948881798077005 2.1120674017309757 -1.1143994138437323
P 9.19619689501658 3.881723683251904 0.8878867037702102 -0.5854869839023337 -0.21173600175884824 -0.05985733847726466
P 5.67089503116902 3.0037953078712443 4.796024499500664 -0.31008995364941433 -2.204449709419139 0.670629322198632
P 2.7448769209861457 6.030737050614331 1.1456080206409707 0.6958839830003628 -0.6744931760294126 0.5572110197757759
P 2.7943588961734336 1.131004690844431 7.738032507064255 0.121911427495532 -0.629226076661497 1.268933255359976
P 7.080322492915958 6.366406575175509 11.326007225716562 0.04135053792232878 0.8025407983296695 -0.26902069441293025
P 0.3292487922680546 7.210336313392178 8.45915302997208 -0.5712320166452162 -0.12451904032170813 0.5771753787128446
Ni 8.336414067420836 8.44608231954525 2.9776307775578466 1.9276226315879126 1.7670353847887372 -0.42321515031188406
Ni 4.077165006133433 7.4352930382488625 2.793390147621289 0.8351177038244263 -0.21540522308031934 0.33662733781831056
Ni 7.871192911578165 5.734769577880054 7.745636443695875 1.8747581794887132 -0.0985861225060302 -0.49755499867603986
Ni 1.495182044936264 5.3506441381438785 3.9429674490665607 0.7344299615943609 0.6712864961666568 1.405894892320411
Ni 8.442930189237224 8.856302961215615 12.231517203481648 -0.5299645253549969 0.5229562123579639 0.9496007000663711
Ni 7.779771888861505 2.2021281496202554 12.409264075232315 -0.3162361757564683 -0.9154232828537138 -0.8018789963759545
Ni 0.6058191088781012 3.1866928160079304 10.98401587734993 -2.657929315042519 -1.0718258021475797 -0.7506366532612104
Ni 6.557466344491043 4.756860435896423 4.172462871815449 2.3911542221306563 2.6888239477388467 -0.3064523568968271
Ni 1.6005242061980485 4.636700489051746 7.852855093088244 -0.1377018575605693 -0.36592428701021495 0.3888248457574723
Ni 0.9043249246698094 1.8368692728127651 6.701181301455699 -0.21043836599334723 1.3156779677146824 0.997039867384941
Ni 3.8818993151459 2.7522349729661717 9.23472868380244 -1.2861485907969978 0.5940063342272544 0.1582575702247339
Ni 5.1876207653803785 0.4390843568809583 9.359630691784997 -1.096945222923027 -0.5153909984161963 0.8891059851154236
Ni 7.282040345061856 8.195113586809425 9.826428837160073 0.6633500149283995 1.208573780435312 0.6920448117599307
Ni 7.626768777839649 2.637759953216616 6.8573485597046435 -0.5831377669438667 -1.1901268865840342 0.4461054246464962
Ni 2.948175460178005 2.3961736611337145 0.5057385094090691 0.010576232853949527 0.0991877606457711 -0.973314241633227
Ni 1.4991383844431123 6.8006425674037985 12.784537667511113 0.783458841997554 3.3629877654532985 -0.04674059858964854
Ni 3.7870580923882735 0.32521665373327124 1.3333104476460205 1.1287461694837078 -0.6642146769215399 1.57541569416379
Ni 1.3561093162434288 4.716187786760599 12.783089166574845 -0.7407417627450017 -3.6308828309022174 1.6771187650322472
Ni 5.327035514077311 7.543334384407843 6.900101060216731 0.9684849385653836 0.3225472055761606 -0.000536075009128109
Ni 0.6937543006881426 2.0048750450954027 13.468154310402152 -0.5186956373093969 0.3253221972181365 -0.31675708125694485
Ni 2.558965939299851 0.30879137413112445 3.662127428675642 -0.719358154862903 -0.9107886122951797 0.021835864928168847
Ni 4.851341151082163 1.3141332935784795 3.5754050213125597 0.12771903531624457 -0.10694092222862873 0.014867146919819559
Ni 0.5434938203477874 6.145008707118208 1.636736729604774 -0.17805172213252562 -1.1584676078075404 0.2724909123497178
Ni 6.523014761916221 7.186875589867922 3.3983893328679478 -1.4119876354817102 -0.1324274965355074 0.17000519767896527
P 7.277778960686489 6.299721918160547 5.783846675332762 -0.13317491622449323 -0.1060384650190174 -1.2354366662644272
P 4.354136502964502 7.569364879854771 8.83886456289863 -0.5469937129231418 -0.3979684599299533 0.9657564838906271
P 5.68962293733929 4.060017787009126 8.733051893036615 -0.8688991711502455 -0.7016990470202431 -1.6165844550926158
P 9.204876808093521 2.6954688960700137 8.621192864129204 0.25493182042003193 0.8912762532938651 -0.6708355246721672
P 2.9436182747180135 5.1159259774945935 5.802665170585197 -0.7524827053310137 -0.5906081071789827 -0.05047666859331306
P 4.723850883609144 8.137580275850024 4.853835123976901 0.17557626400883958 2.699717454722899 -0.7544799382667006
P 6.305443820391244 9.000478258618216 1.9239891628833112 -0.737329137519027 1.1242837628369797 0.001980006544506267
P 6.424864264524361 5.381638545542154 1.9315117542166598 -0.4484453856335825 0.39370299978538004 0.7582322062202813
