# total energy = -340890.29803174234 ev
CRYSTAL
PRIMVEC
9.07310005470395 0.00000000000000 0.00000000000000

0.00000000000000 9.07310005470395 0.00000000000000

0.00000000000000 0.00000000000000 13.27939905306876

PRIMCOORD
 96 1
Ni 6.235524200502625 1.9539465026372245 11.618278628874128 0.026443796013825425 0.6584695469076467 -1.5750613961481648
Ni 4.966415278518169 0.41845681137061597 5.9870437500184295 -1.715304789183665 -0.9733294111418785 0.24725604904232903
Ni 2.872761183579787 1.6585989546058395 4.823091148595811 0.01885184259918044 -1.0102216561825377 1.4577021067996894
Ni 3.2140912019178525 4.233989288875948 5.129831788174966 1.3579571880988677 0.20883039807627904 -0.8767554339698708
Ni 5.062789745684222 4.613027110409469 2.568594582443017 -0.006023066265628337 -0.18731309282979353 -0.09546634593012591
Ni 7.386256388057077 6.172702056776607 2.5976629799111586 -0.42929143841295103 -0.4149930195124079 -0.4856559332456088
Ni 5.209801183407021 4.57339581003465 11.307181994031707 0.36764332658385074 0.812727509054684 0.6408184094847867
Ni 5.618698576720194 7.673392780676554 12.225983972634406 0.26846225080629893 1.1726600972578385 1.275227830119436
Ni 1.746943728358039 6.752500359856283 0.5658738166590632 -0.10480819215634207 -0.8942175953103761 -1.4629854666858157
Ni 2.466086699742765 1.6625638992633018 0.5597993762742324 1.4888098839480877 0.6008626950274555 -0.9949197357181446
Ni 0.8576057343792381 9.43312050679744 4.785138371702986 -0.45237197438149834 -0.9933595903198763 -0.014276821633988317
Ni 9.003291472008831 2.2454833487094925 1.2325806217763469 -1.1037661024996024 -0.503729760028184 0.3230768528273855
Ni 6.8077827575631895 0.8382255929871567 4.364872384211779 0.25678815690248036 -0.2126430869541499 1.1742135577878874
Ni 0.8642717408777223 7.4438433531392585 2.7113879360210684 -0.17691478031460497 0.9297456130136569 0.6101978563854524
Ni 7.755658577493971 4.066182306176254 3.864000069875351 -0.5949177902979302 -1.3126335244614038 -0.5789512396663449
Ni 7.692564240770874 3.7697459861565497 12.546256233408386 -0.43526899615262454 0.02712462413093393 -0.30720851833656126
Ni 7.904085418801585 8.826846898201804 7.011708843665383 1.6852035989229106 0.4986531168362251 -0.9142626868867093
Ni 6.796305286186325 1.074563513871622 0.35886922775989716 -0.03600804266349282 -1.459462541134222 1.1176541733356042
Ni 1.7165669898839337 6.44399681696604 9.082816285345654 1.5561033669884232 1.157565150597929 1.0372892018232909
Ni -0.05171757675515167 4.680957409380683 1.2689755474158866 0.024745068155163835 0.7127553048344047 0.845808093658737
Ni 6.589483973905192 1.6978401116848436 6.929177205020817 -0.12330779362242633 1.7510451800080682 0.6342471840251722
Ni 3.3096672362924715 4.328694305659912 0.5560367617445994 -1.489406636991822 0.9742812335321867 0.18804251479665035
Ni 5.853483182901324 5.347213281432804 4.836158227075622 0.8711401446656224 0.9383325833517195 -0.5384190838802534
Ni 5.311937069011263 3.0193824780067713 9.187591535711581 0.3236692349957458 0.6950131503596353 0.2732768985861229
P 0.29174008351008734 5.472095428493015 12.572854933083025 0.02636203493329653 0.6264390008346631 -0.7313294682921663
P 4.172246844038348 6.186402437629623 12.531131375870652 -1.3012826182249588 -1.6707110617336902 0.9792619745762297
P 2.6005500403001847 8.483956306680481 1.6140182782341204 -0.8684636262747237 -0.030004773892206387 -0.8304349536367762
P 6.280290875422349 7.713223689249231 5.777135769150412 0.8750831884737703 0.2479942127599342 0.436315692249584
P 4.52301288627518 1.110710743883819 12.832095172741784 0.5065083512145857 0.8975841977897638 -0.781915408769834
P 3.905025905705209 5.925532669228346 8.12132174246098 -0.42864043509251337 1.6114754160008247 0.6017137301738411
P 4.677010610923026 0.7574995012232206 3.843177305598747 0.48204456174526655 1.3122573720689077 -0.32435623376044137
P 0.009132075052027186 5.740069434118075 3.8082259101537206 0.9468164524530145 -0.006077573652647598 0.33568091474464123
Ni 1.61081093741853 1.120772811675869 2.615523377069544 -0.6131224862314151 -0.7406450892661374 1.2770445716132006
Ni 1.8111631294690658 6.141644835809803 4.938647963576068 -0.09521823447506181 1.1291441762530747 0.1969002222975964
Ni 5.913846516553721 5.84081713543721 9.142613457564124 0.4579201578932372 -0.5314452236655816 -0.27283441173206563
Ni 8.608738649641763 2.278817917751865 10.296341582706434 0.3196295177087334 1.1663842915514557 1.080774012479803
Ni 2.120991344945096 4.928780060121936 7.104425036950684 -0.009164182997771313 0.876130141681046 0.3491918047468825
Ni 0.4553044846952984 0.18026888541599814 9.392771524220322 0.6888437883241298 -0.7738323746513834 0.11299689861472154
Ni 1.5989433227458507 0.9223259706048917 11.427122023574938 -0.7134191636706487 1.6354890053066025 0.5769005277849032
Ni 4.161422635854475 6.74935199419006 1.487916706546992 0.5175173007305797 0.5305772192383313 -0.22899118929487014
Ni 5.994696909786323 8.187601644559901 8.067726034025977 -1.9457144560926167 0.18474044700661085 -0.24531975125156463
Ni 5.164254221895668 2.8731513268756013 4.9628831207260635 0.6758584318080554 -0.6380105077223464 -0.18132190824336514
Ni 0.9218904618095641 7.542268340883313 6.943903753472824 -0.26262070442385743 -0.3346954109029204 -0.17831268910339615
Ni 5.113254327342816 4.653656451773579 6.891396817026142 0.08359916217889474 -0.606552032102749 0.7952923442973723
Ni 8.188354711851822 7.40223411698566 8.890398519159996 -0.07197006258039863 -1.1429697692822574 0.8680147116627632
Ni 4.538654910507366 0.3919071064354526 10.578966830054311 0.3115426269355409 -0.7041328532727165 -0.018429410349781166
Ni 8.287315012490133 7.635657758181391 4.9151168789785205 0.1227858596806853 -0.8490821364243183 -0.8435547788481859
Ni 7.1865030206001155 6.155590190360191 6.8967490386587205 -0.30661150818251065 0.17878140120969854 0.880779210417283
Ni 2.236319517807806 5.605034488266788 2.57389236547618 0.6775882700149686 -2.1935775425913255 0.6351750951560803
Ni 2.3389272046069864 5.269919543362045 11.485498348348651 0.29456229032746045 0.1409789856499443 1.0557720911188269
Ni 1.2087818807316701 3.527076856160008 4.056497679340155 -0.7463603944833598 0.15374914083141908 0.14112553853013757
Ni 3.6266541275917 2.4665131354381904 2.8173971279737566 0.04749958824286014 1.4940706181263947 -1.1597480171818606
Ni 1.169595162252082 3.035541668933408 8.444847616860056 -0.8205683452553416 0.5002292030740934 -0.6489837189043984
Ni 3.570963440389174 2.924196586927966 7.2096112987422005 -0.21060085971314052 -0.7498938615579149 0.13127744209146425
Ni 4.214382319986301 6.9720330851010415 6.26528669011332 -0.18279129370004002 -0.2837837116547177 -1.5300128405489586
Ni 0.6043646283761174 7.240469818821137 11.25496811871188 0.9532007587128036 0.6546028648633888 0.13790780292378832
P 0.19256202847411205 5.5757555948809046 7.979245163775238 -1.0976463627551094 0.4364270210164677 0.7773591568577193
P 8.557130857395434 1.6000774602336834 8.124641589715363 -0.4177916653034676 0.040764326401555605 -0.7786861031992589
P 1.8429099060284728 3.222628988926255 10.454299715461792 0.08966465164668427 -0.5477766138357534 1.012703799174443
P 4.052500071523043 6.068551942993974 4.006447738347112 -0.989975761449308 -0.7027773676860865 -0.9589530878155486
P 7.034274550433288 4.15714013270042 10.218842792577876 0.5205797417059873 -0.34007518715759494 0.6912228300792678
P 6.224309849022937 7.828243376715251 10.15155577638976 0.32554382631063933 0.031892220722906366 -0.27066722887741773
P 2.6059485347422675 8.531481203970614 5.91589250058177 -0.37821981654811637 -0.10574253104515338 -0.20083966656131863
P 6.9601745435282645 3.8320963286876286 1.5348863301230817 -0.047681365236363044 0.9570201324588936 -0.04885738782233521
Ni 5.160343715837621 3.1743963898437153 0.2964998317190227 1.2008915812997059 -0.709742743260326 -0.22168514255176014
Ni 1.4481393292637408 0.9366433222512891 7.11065372003386 -0.0416564991985218 0.3749426884587414 0.4276104511661023
Ni 6.803137330413027 1.1469124124954322 9.330185281091774 -0.6916136377597831 -1.7810615238645002 0.07255653121148793
Ni 2.8935748747564887 1.5698821837576313 9.327795426577413 -0.8820881590366938 -0.45121729195176485 -0.07898094668059301
Ni 5.976060762586259 2.136143421782538 2.4135044565668897 1.2159230217115318 0.41887872772005924 0.8089420738703229
Ni 4.12026705469601 6.8647890442516015 10.424009171436763 -1.0084126279982568 0.2721420136507313 -0.8454689651517633
Ni 8.096126651341283 7.3368261397873855 0.09917986965595586 0.7178054656638024 0.0687348434725526 0.4566348634229104
Ni 7.741159763849521 3.860123134286945 8.112066273250276 0.035130525154545955 -0.1932456562641446 0.5689856438132007
Ni 3.083719829416532 8.50984186070277 12.537106919466545 0.8168345892445223 -0.9898870583902434 0.5077735910802545
Ni 0.27832641261399493 4.7937269680708425 10.303326055011503 -1.2116153954751132 -0.2625304587028963 -0.49132675837814094
Ni 8.612494913001465 2.172154555296195 5.64580264805941 0.2291673098614182 0.2663925127614638 -0.2400104232235092
Ni 3.8090052894353588 2.7875647754938107 11.371109241325868 -1.0220441027387623 -0.9612598815718543 0.9458227210811774
Ni 0.9631095546673479 3.2100536724611684 12.461108820061884 0.7207686620571845 0.4078546086954137 -0.09053471295646343
Ni 3.3185044355976627 8.365525133651062 8.032402641484943 -0.03324950608174919 0.04398746132454359 1.1861072239016799
Ni 5.874659798074132 7.70394190804881 3.680226245966956 -1.2786126874312689 0.1612333650236062 -0.6322023856810016
Ni 3.172917474559582 8.058981380339794 3.7429712683438003 0.16498743274939973 0.4932458297777247 0.3199681319950748
Ni 3.379466593843634 4.400852669185767 9.431559933614185 -0.05921944778294962 -0.45078200418655917 -0.08199068004119428
Ni 7.462352476940685 6.181385013383452 11.34864061672692 -0.3005143941458373 -0.9849729089180779 -0.9324272736108782
Ni 0.7311956772954195 9.009815030838844 0.3688441937928814 -0.4388685405784249 0.004755769517430519 0.15470327721457228
Ni 4.63240725180155 0.32655991900652526 1.682938452404715 -0.3736872187850855 -1.1616886858479993 -0.8858224292681454
Ni 6.406978569363188 5.703958496505488 0.2623795322250799 -1.445746734210026 -0.8781415156841199 0.6024799189159044
Ni 7.718050578397445 8.69523251101382 11.422235251967367 0.5898277773695325 1.311790202624502 -0.15287985085258832
Ni -0.20829115446536325 4.835308984924732 6.047371698581205 1.290139971344578 -0.9218386994617543 -1.829066333878553
Ni 8.005168824817119 8.56278339863479 2.341356980760919 -0.8357782202265606 0.9976610459087075 -0.42030389020236003
P 8.53242480636049 1.3405777299177075 3.2653905087674913 0.5702822511374372 0.7661712585616999 0.5541069269291554
P 1.6652767561341975 3.365357923494998 1.9823090129329395 1.7114681890463945 0.42124619951097125 -1.535305970627098
P 4.594245793610963 1.2735910333363696 8.1204715930001 1.7418468013382518 -1.3477347390399113 -0.07162810585994761
P 8.595882067079694 1.4322795506338912 12.424710265182384 -0.16063918308303302 0.1649933462866707 -0.1912545939760448
P 6.274937746479779 7.784157184288226 1.2631333783885637 0.06606269595702817 -0.15342466761246482 0.10725074015956368
P 1.603879089092898 2.926655397001587 6.216976062371617 0.14799758305962252 0.6272476127788874 -0.8840313988059936
P 6.961735116711522 3.7291983026915627 6.040997845899586 -0.6725293674348225 -0.008201561974185876 -0.9200582105225639
P 2.4016676904338796 8.391329029774226 10.32374960289239 0.24342741932485817 -0.5766570443155294 -1.0286744635710865
