# total energy = -340865.6142085602 ev
CRYSTAL
PRIMVEC
9.26459894703060 0.00000000000000 0.00000000000000

0.00000000000000 9.26459894703060 0.00000000000000

0.00000000000000 0.00000000000000 13.55967703899092

PRIMCOORD
 96 1
Ni 8.786897822233326 2.231063692048337 6.495451179221207 -0.06007819623881911 -1.756675638820968 1.6647358179868619
Ni 7.456594040336689 0.9634905105223529 2.4841197306990743 0.1899610719756019 0.3383173239262238 0.9371383059333023
Ni 7.070417756885212 0.05694207886547194 5.019996144158547 2.3229909348908575 0.0019974900460030115 -1.602624393368098
Ni 6.349279893696477 1.7205286951460728 6.490162946066345 -0.9851842535979356 -0.2119943976265575 0.6262567096205278
Ni 3.389777834384368 0.7572095797067 4.793305301569663 0.8919503965427543 -0.3690327507322096 -0.6275458607455966
Ni 4.80405594234209 6.513328149605968 10.583545389880555 -1.0605967662009799 -1.0032969040382462 -0.24172457770113853
Ni 7.69218353034191 4.973950160271059 5.547928205213228 0.6355062532432539 0.7139855776970799 -0.47173186696534886
Ni 4.679196940540983 3.0793211192136987 9.292785696237065 0.19723369437761515 1.5888167980610444 -0.9727570835781765
Ni 2.090019435654477 4.7169965047873665 3.1457501475370866 -0.7306625241321287 0.7079938788900194 1.7074454410402466
Ni 5.599208687580913 1.1376371794290392 10.073904426789511 0.5662062812958507 -2.5380950817909897 -0.9724981734898349
Ni 3.4705466091637738 2.976576715416542 13.137808326674188 0.17029084724018415 0.6137812028613365 -0.32669130965152127
Ni 5.034105202097473 7.9105130722610975 3.9738941300997768 -0.7105608682862472 1.367575170804606 0.004603045989650137
Ni 7.291535943127478 2.5443924329338046 9.816162353924112 1.252620120022249 -0.916053460238545 -0.583726292457485
Ni 1.8239216208788291 0.8724176486461753 6.44858898415477 -1.6323054653722986 0.1255477386965386 0.5381730293077184
Ni 3.267614830915539 7.379975805945121 5.9312333894098135 1.3035115075554777 1.0421542432250763 0.5489418377884481
Ni 7.971418546612991 7.162313315159693 6.7259117871757415 -1.0959440353520222 -1.846140772862337 -0.05680312503197314
Ni 5.657909187351769 3.9767365090975195 5.582817758888585 -2.2521223329047535 -0.5682994163794536 2.694273143778876
Ni 0.32959737686994073 8.37760636407726 12.653998918737988 -0.47829743599800856 0.6273054626000164 -3.4863289834168216
Ni 1.694069000173604 8.106348167614055 4.644501016986397 -2.135683755598335 -0.31335988264993775 0.14160324949750452
Ni 9.028889150202826 3.049711460554031 3.199040121445224 -0.5075789585709453 0.7343330310051805 -0.776174906741631
Ni 5.640556593274936 4.368378906006194 0.3672042374554608 1.0776701767434989 -0.1252849719534552 0.5127265642101556
Ni 0.6541946496164076 1.194910930941575 1.3385705836557185 0.16473032243327115 -0.30528944693697746 -0.33723283261279335
Ni 2.5100115057479395 9.182598113539038 11.487243104400521 -1.8836392840284268 -0.10359103191978933 -0.9660737580207299
Ni 0.4162232311877201 6.068877537941315 11.692726353235386 0.0671196764666328 -0.4697636874953845 -0.10769117013109196
P 7.665232811618201 2.874749506928305 4.976822185985856 -1.353463156883256 -0.05036662537801003 -2.152964911276286
P 6.918172600203636 7.105336030817718 4.59049303664956 -1.7344782767883222 -0.4460401186261996 0.08873545496419556
P 6.544577642302794 5.936504946286331 8.174316045844629 0.39130801719064223 -0.4125221893744121 -0.27392944456845725
P 4.065269017905962 4.35299040693432 10.927594614855382 -0.01247139299413336 -0.27806300712085663 0.16517769438333488
P 1.554822076001263 1.523683758493396 12.613646030985157 1.9667005714259806 -0.9154464227821653 1.8581912762689676
P 0.7403378183221192 5.528269652425384 5.612133729757417 -1.3722535501168818 -0.2197665853728086 -0.6000206587421344
P 4.190767277043589 8.757908891712018 10.138122921772412 -0.25097129311038713 -0.9560256297561084 -0.21009332394910266
P 9.270528423407281 8.6151784782856 6.011655668183628 0.8129537661328774 2.572263500142583 -1.8088654334506458
Ni 7.975985993959429 9.491859695428388 0.34089740836781196 -0.15114744154251386 0.03386322840634813 -0.015403736149579923
Ni 8.762735747832696 8.864868688090574 8.159426908663168 -0.0010652080397207462 1.4625293529850036 -0.49315404139486674
Ni 1.9281483605287852 8.984076284452884 8.511314910919578 1.248264671267031 0.4447465966257566 2.1395764057845215
Ni 3.470389110979413 7.722821559499456 13.095447800300722 -0.8003993265066345 -0.2517174272477923 -0.27523170831964855
Ni 5.67960687839712 8.088847339951942 12.01251807843906 -1.4120480564060005 -0.1305660178467364 0.6591128369186003
Ni 1.0109808454064126 7.388239828324478 7.450147732296828 1.783214565651761 -4.2017145267852225 -1.3335180812198968
Ni 5.694078182160074 3.0732250130190613 11.626541910327711 0.828364958481625 -0.11552429302226556 1.4100248553283845
Ni 3.763919403630929 2.3850505933569526 6.870390430448557 0.3150393272348897 1.2108276094664954 -1.2533585408501706
Ni 4.304101117589181 2.680961887972027 1.9426270759710031 -1.0318150660825973 0.8858779650964292 1.776122177581354
Ni 0.6501525050378053 3.363540489789819 12.688847708177393 0.2881083071720006 2.2575113651308087 0.220439185959801
Ni 5.306289858468677 5.814981200154023 2.938233319204162 0.3821808580783934 0.612720622807306 -0.6107606708674579
Ni 5.640723356058377 1.7241511533863514 4.218171961122217 -0.973092612540724 -1.1826357204133116 -0.44438818484507336
Ni 2.993178876967895 5.224298156610713 9.071938962747844 -0.05011697126104918 -0.9909165280960225 1.046356968452514
Ni 6.098477932001902 3.7661799658064488 3.4989666933015697 0.7021070810919392 -0.22757528278395 -2.046603772810527
Ni 2.474796764644874 5.178410597367492 6.636621434162556 -1.2668907710086503 -0.8394790661169155 2.0865144929625354
Ni 6.406284971835692 4.61436327617917 10.029062840782423 -0.2764434692395626 1.1888161381924107 -0.7124855961127858
Ni 7.33666380524614 7.6670116146415594 2.2020506735694214 0.25917208375362455 -0.06758633169040618 0.788953546563538
Ni 2.4689878610217164 2.6117553328444565 10.82919252864702 -0.49506077149927646 0.951026119658988 1.0689153133690041
Ni 9.164847141701767 3.877243979577442 10.126407836235757 1.0267268529264124 1.401292103441077 -0.07074390348278138
Ni 3.7449825631114173 5.296886290402481 4.8893754881895894 1.083063065624296 -0.5362596143350893 -1.6276815934470419
Ni 2.2535859324118075 1.9695147954209677 2.9011202617496057 -0.7673354540731301 -1.146124255750839 0.8614200891643808
Ni 2.016365872968508 3.4323023441615494 1.329309690415354 -2.3152287744469353 -0.010171798326679256 -2.4676594535772467
Ni 8.909950227213836 4.867546239837303 7.681543138298534 0.8586705514437019 -0.09219127472327993 -0.29932345916152964
Ni 8.406863967971887 6.962438854607858 9.334942401430771 -0.23622833047325767 -0.7222539883534593 1.1379869713556854
P 7.887722158524307 3.9321181999282584 11.872934849320115 -0.5034294551789459 0.5448522411001068 0.3207852285797314
P 7.456130810382689 7.395957239358115 13.482197562435251 0.24893060853127452 -0.5418731038671248 -0.9620566664415366
P 3.1962774179995694 6.7282575836627965 3.2413459866841183 0.4073326747536727 -0.23715598449384964 0.13088123509431007
P 4.321333271877974 4.511776370566373 7.5569435452716665 2.004389344226006 -0.7032990445175114 -1.1246763702897085
P 6.6271066909074 1.1693128436835458 12.524897657018151 -0.22465785202683888 -0.844162587635514 -2.1028646521857848
P 0.14395241404507117 8.415100196554004 2.6773987231658603 -0.1245126125638049 0.5466705252557681 0.14991536890762566
P 7.163925355399613 0.8296170538164094 8.286305593063714 -1.8884793857295477 1.7624729622290356 0.7795042282251802
P 1.360830635865225 5.590898342206158 0.3385923761167089 0.021366381490918043 -0.8216273826474754 -0.1474872190821073
Ni 2.409175609361262 8.87449460653469 2.676151708129693 0.16970823526383674 -1.195083459258361 -0.07427762766765272
Ni 2.7669466320334704 5.530900798564103 12.127382430752668 0.200508508474145 -0.177076759813766 0.7379282045556065
Ni 6.232054921537286 7.825047145748133 9.132280223015764 -0.35819169425264763 2.1624481681763723 0.4908215366069482
Ni 2.989028336580057 1.6565195801023798 8.937427175165288 0.11041936769553241 -1.317218315618609 -0.7678674153172002
Ni 3.085241198025816 0.3776695285762244 0.6382298924817582 0.06528442303010691 1.9500570493320286 -0.5132929782365869
Ni 2.3168075565337007 7.087501677588725 10.243847747093604 -0.35689148738398535 1.2838873055666469 0.4269992999446646
Ni 9.083578078572042 5.809200090328106 2.219733087373502 1.3596821412097744 -0.2073854380996364 0.0041168503818509745
Ni 7.2431284129344995 6.155890652500638 11.386156137378777 0.41132148419809156 1.0570273036821665 1.8286523862695858
Ni 0.22819726639929155 0.9375959560937638 4.25781981288506 -0.2847427331338773 -0.8378320174317958 -0.09436514244614716
Ni 8.393096773739012 5.186934028521088 0.22541510729556874 -1.161138212661168 0.038747038861210684 -2.8754706106292347
Ni 6.805366841805604 3.718161548774829 7.739633100990018 -0.5580029195494519 0.38743979248448757 0.016786732540035605
Ni 8.050204697189278 2.718520572642331 0.6745693559131349 -0.16334964003566063 0.5458649986353373 -0.012505588666178463
Ni 4.322537669758374 1.1676359512500667 11.942576840604445 0.43223020932630074 -0.6858060299390706 1.1920246178273795
Ni 7.587697381917714 8.822056975741912 11.253406476541237 1.0077881070403802 0.11143623899582099 -0.9948181771432738
Ni 0.5306521473445678 1.7482669047915813 9.229543689997195 -0.057572141987513745 0.6962297963755558 -1.288888358325664
Ni 5.925165077012417 8.142072461666519 6.441524727356273 -2.7361286463620815 0.11779843376842292 1.2612531131068987
Ni 1.497724351871247 2.9660613954607467 4.941905764973167 0.5414007922163966 0.7879029938118366 1.2925663213978835
Ni 5.666960700652925 8.847275214437662 0.6996291699646163 -0.9161491052761449 -0.5180163518541853 1.1086254874744326
Ni 8.990756060389561 1.4624077001783018 11.528465011547055 -0.724092841334411 0.3844020340994283 0.07157822645861865
Ni 4.458968155810396 6.79131244500125 7.863378497981709 -0.12437274455183096 -0.639013495065564 0.40935253339717886
Ni 3.5687976824071317 5.076351773902255 1.3460749089105153 0.1237811337144191 1.4589213239187715 -0.7137881169742932
Ni 8.899583140843319 6.668361950610621 4.212679906787596 0.9961631212069426 1.3077733681556252 0.7466162192479077
Ni 5.780201895207717 1.9647249976966097 0.6448170224276355 0.768061019385245 -0.610807207834677 -0.5418057409642991
Ni 1.209020915340409 7.71514120686214 0.8181539653747303 1.647218120818073 -0.6049134680580615 2.8911697665320464
P 0.868589516306321 5.845489524924449 9.165582750868719 1.3042033914161795 -0.9923743435884717 1.0795013164149667
P 4.863858929403464 6.306523768942295 13.515811380817292 0.33756219092775414 0.06842322576940474 -0.31631279463067463
P 0.2609392860079057 9.056970150014292 10.163750655747496 1.168896516450348 -0.9577814361049503 1.2109309678135791
P 3.973660662202961 0.23993921927327863 6.911638278472515 0.07848343821888419 -1.1979057591985047 0.13418793087003986
P 4.4225953398223306 0.4995166092164249 2.681480705520507 0.6834393294791069 0.1083624851665037 -1.159222483695694
P 3.6371055714239433 3.0303299192786795 4.098466855789312 1.062528178895738 1.1293534640504035 1.245743447507074
P 7.390342892315637 4.423873854495371 2.041775888865213 0.598408577060008 0.2773544110896062 -0.9477297082959034
P 1.189611580267817 3.1198259463914417 7.329236376163707 1.6801033015818676 -0.20155083369573032 0.6498558370967066
