# total energy = -381175.83926401334 ev
CRYSTAL
PRIMVEC
9.19472799963175 0.00000000000000 0.00000000000000

0.00000000000000 9.19472799963175 0.00000000000000

0.00000000000000 0.00000000000000 13.45741384481582

PRIMCOORD
 96 1
Ni 7.4325768563152055 4.447903749057588 1.9487407896089657 -0.7057503342714813 -0.5106681390192301 1.9235320064583068
Ni 7.581228025652385 1.8928543126900375 10.441378769076294 -0.012920307606093877 0.09767286666314147 -0.4208098833045011
Ni 4.511476099202777 2.5230793667327776 1.3247047070563513 -0.9626845298335226 -0.3260444200961417 2.00798863154149
Ni 3.416963249299277 3.174875252919083 3.479468091511018 0.7833503414441477 1.3077975365253411 0.7491862939679291
Ni 1.3305047415474685 8.602229024324936 5.535599627541122 0.17494248707958257 1.194656913243904 0.44828906256137635
Ni 7.2579873589827155 0.5000479324220357 12.301798678362058 0.06169696278916471 -0.07126249499041275 1.3227922101619607
Ni 8.531153776042855 0.4662223666548793 6.230204328857014 -0.1514174073744489 -0.3581186749228671 0.6721503868288489
Ni 2.2842095251907106 4.26974669721883 1.31582443864874 -0.2579505526416977 -0.5127844140312845 0.6731096654183246
Ni 5.3194076634069365 2.76881767017222 5.219377296837003 0.4945416657710128 -0.7883531939753777 -0.523894150791201
Ni 3.01690982400755 4.11954161883124 10.642998008630626 0.18263059975245965 -1.292537010821845 -0.8019450737271995
Ni 4.538848804783081 6.553928638225214 7.363197115896413 -0.03604043856332503 2.552536711137617 -2.1504827682843803
Ni 1.4924330982739529 6.3599842382234115 0.1065898856028488 0.9483256900086895 -0.23935582035864586 1.005096162030514
Ni 5.717226769768191 3.383448465342203 9.90970281090514 -0.2842678503799878 -0.5759191377082404 1.0754142908297868
Ni 8.883514146633528 7.123679965495477 1.4317341006628073 -1.998477092506629 1.1755919261926528 -1.6602042486650956
Ni 2.211065463084119 1.4279688595021975 2.5818851698262932 -1.070870637323162 0.1875897435299479 -0.0371418991576199
Ni 4.963121143913748 0.6093088865405306 3.7790709511582334 -0.22452209777992302 0.6056711721596924 -0.503265933017888
Ni 4.774436128390257 0.5572299465315131 12.83082379641941 -0.5462717471554528 0.5178746840699984 1.1413769708738408
Ni 8.455223711319256 2.216481157940283 2.4770119399613826 -0.0604620619407991 1.3805178470082031 1.0999076479854606
Ni 6.17114291232207 8.466137853584563 0.6988453099197345 -0.038257500819301855 0.5182508364624946 -0.19452092343214242
Ni 0.03427334902606158 6.37928397252407 11.73405731865641 -0.27143804560517126 0.22203764079517246 -0.6272494125511004
Ni 5.248258857299984 8.743837031930669 8.822748027507187 -0.4541938580815855 -0.06348439370689066 0.14606437059265168
Ni 0.26612669354819873 8.490467104160809 3.2040887430667966 0.6150364154246762 0.6802208225418092 0.786626183981942
Ni 1.6824789335575656 0.8643292680059447 7.548667654473019 1.4114435900527822 -0.03727276830852935 -1.1329530084762036
Ni 2.587718305338602 8.047382351319259 7.794964997381484 1.421910551022377 -1.2747105241633852 -0.6848588355344527
P 1.252386331533942 3.4895556277193327 3.199782851893381 0.7341425122609292 -0.5272404415556146 -0.3446275824149677
Ni 0.2878584334336706 6.734798134856108 4.873090963635093 -0.7780718666540277 -0.516772195034439 0.48520933262649335
P 4.166526679467907 5.802746935909411 3.790052214938737 -0.6813834753913427 -0.15518818727079078 1.8314266065806135
Ni 1.8145428133862236 3.716463127991673 12.521034097500303 1.2697765771968776 1.0377226898162837 -0.9817312620523286
P 3.684005737767126 2.830220064483699 6.691901050336675 -0.37845712936990306 0.3673877589296189 0.38800980605534463
P -0.07998218140120775 8.235267425497272 12.986579732166364 -0.12706828910612308 0.4874441354942831 -0.981470037971142
P 3.803454450630323 4.982613967504693 13.316878272132453 -0.005147091418578232 -0.19070334945826511 -0.9191164154345849
Ni 2.700730708525543 6.506686125201497 2.394235480687869 -0.00013164048185783782 -0.6319123652444084 -1.0131689117363196
Ni 0.4736480290756567 2.7271655518387368 0.39282728847091386 -2.3032497477081884 -0.8289411427000691 1.3874821941411781
Ni 4.706229635278165 5.035639964508931 1.9218397735806496 1.0566647781364253 -0.3064613557578916 -0.9359450569561494
Ni 4.988985914084186 5.22883959153391 11.253156488048424 0.2798064721745246 0.24684467253652326 0.4413604537623432
Ni 1.7835289954747802 2.778941065820159 9.16900677652477 -0.49202172756263657 -1.6689326296770288 -0.32636606510161853
Ni 7.504948561260647 0.2823544691876611 8.581833278433692 1.0927820926842728 0.4065741993210933 -0.3625836526727562
Ni 0.7962680515979733 1.1701578780557211 11.88367669286346 -2.765179540981451 1.0931587592974013 0.618372935997077
Ni 3.9134785671818597 7.325099679449845 -0.0461106419935067 -0.034430156653411675 -0.16512113011378662 1.1144603489886549
Ni 7.297947647344155 1.3578406682153372 4.404705996928993 -0.4656370669215206 0.1007327365353878 0.348700981153393
Ni 8.742338291248913 0.6184227010421086 1.0987975932022633 -0.300917800231843 -1.9313540736058865 -1.7140297791259838
Ni 0.5373114070291235 1.464665019384964 4.421635330323166 0.6527465283809403 0.4193471827160455 0.04677042338631945
Ni 1.9481697969934009 8.486789212917236 12.202402748031643 1.1034408579496997 -0.9807796967723366 -0.7443186814629826
Ni 2.4922402486554036 1.5730892532455456 0.23952726460185572 0.5801869118456588 -0.3668884506956972 -1.0544353745852744
Ni 8.568190140865651 6.087250213056131 9.232835659584197 -1.6861515646584768 1.2126919163687437 1.0202898390518171
Ni 0.5784008080023398 5.65152124270173 2.7165805808397283 0.3522516746191288 -2.2072542687474694 1.0611063588475467
Ni 5.619367278504778 7.0779361931535165 4.872485950525526 -1.3302576653010703 0.26640074029157995 1.7817462086363507
Ni 5.865528539437232 3.214320636506421 7.658022394818225 -0.2931762086132112 -0.24853440153412035 -1.386844046336547
Ni 8.782510058356857 3.7620873688682166 4.414152660588114 -0.15397205547550258 1.266504077093193 -0.6379027784998885
Ni 7.537810519521987 6.529626971833294 3.3636669272886364 0.552786408345519 -0.1235502486505356 -1.4347722374763936
Ni 1.7618570213220164 4.8624020922084545 5.060593537123775 0.1968961085325383 -0.6233482777244813 -0.5502415304364782
Ni 2.7304664592298447 6.101676741459054 11.638738330769495 0.03569925317382239 0.6073053653290057 0.07172555066976036
Ni 1.6034778296455814 8.640727350917054 1.0997602812352691 1.1831730809740204 -0.3221034331705227 0.512639146702672
Ni 2.691296917485775 8.437670975359296 3.3920087572116233 0.4925400619599517 1.506752327359121 0.7281063333691783
Ni 2.8587972794462746 6.973594418573303 5.309299898796782 1.5403607594421858 -0.31538462638945036 -0.208242386783293
Ni 7.964997587463187 8.414077303031764 10.559669865670578 0.9085640938400352 -1.260765631947519 0.12416654207829582
P 9.089310551167749 1.8504758108359483 7.939766334059453 -1.2920276752855944 0.5600819135656676 0.6625581151547234
Ni 2.8670081716475546 1.4979039614987701 11.138984629646945 0.563197576376514 1.912364162766945 0.4091692137417791
P 6.329678414376357 7.0393735034646365 10.30913283363108 -0.06099453740550141 -1.1252062746512492 -0.8069242721093457
Ni 6.110807106471228 5.566129802754035 8.461645309430537 1.6183276630359675 -0.7291771978358539 2.0655839134574556
P 4.026454191456365 9.113042144416914 6.563584941685219 -0.22286527890279037 -0.7184916930975497 -0.1796234374950197
P 7.470164904824539 8.117280674403396 4.776319208706967 1.5064995879183667 1.6329127599389943 0.8319789010851284
P 7.173340692011845 5.297386289586033 6.59269269245968 -0.7841239863853787 -3.6374658834363744 -0.6430316150860216
Ni 7.120259526638953 7.262143376087955 6.788337197688825 0.36810072583624354 3.0037043807983688 1.037871299579006
Ni 4.43396454124444 2.8312958476724446 12.530790623496694 -0.05129659339144714 1.8588751897098694 -1.49597297735543
Ni 6.540614671923474 4.927224925376458 4.519901228568995 -0.6139444679120781 -2.3255620380521433 0.4935697887760468
Ni 2.3410605290882662 5.758078946756197 7.280434448715063 0.11520624756121449 -0.16171287576318602 -0.2716398772033322
Ni 2.9080902168382843 8.880746533472738 9.879088044193624 0.8239074369309036 0.3511851810278274 -0.610011194295943
Ni 6.091222335599192 0.5969199098865493 6.754397617293117 -0.7765302331985207 0.4645975699134128 -0.9839367543440796
Ni 1.3905647055550432 2.930690858530051 6.550853921145586 -0.1341377943583948 1.3181035464370396 -0.546179958772595
Ni 0.30017017437153687 7.914693229979194 7.874928789326474 -0.955806828877083 -0.3808019754529958 -0.5711160598926422
Ni 1.2396608278311738 4.893526246857205 9.015390454008763 0.7621348837087971 0.16186919883539222 0.9167623133801115
Ni 3.9578247408512617 4.426332916914022 8.564715453113283 -0.7614843946089918 -0.1791632100291495 -0.9094105010007306
Ni 6.619790475669528 2.0820634277157373 0.7319233442916344 0.8670531190804424 -0.6447457695636509 0.7416051391865616
Ni 4.294066753066968 4.836969474259136 5.899125156474476 -0.4558249659271053 -0.2748085047393009 -0.854676085572328
Ni 8.84631227670477 4.9106376358679364 0.22857726289692298 0.07766582741359529 -0.14019402785480373 -1.1114598715994344
Ni 6.288191801148835 4.517728514316853 13.31742995581899 -0.8334446869973776 -0.8636253243458157 0.11271227749476719
Ni 0.02079019972711679 5.453457604507125 7.039815769886677 0.271665588234945 -0.14127594806507282 -0.8729751409918319
Ni 7.2012374970943585 8.794021857949247 2.724911004506425 -0.06712559000390375 1.1477378800948623 0.2502860941179044
Ni 2.9369524683722363 1.3023320946216863 5.135321850883535 0.4373369344252468 0.11677256360706986 0.4963476086315
Ni 4.640266655824652 8.114926824007508 11.245163510903323 0.36706817080667103 -1.049451805327754 0.034658984834766114
Ni 4.037524644099524 6.610981926141166 9.512628477520707 -0.9521098396414698 -0.18749975491930287 0.6895012194024706
Ni 1.5113650434502535 7.156560313213035 9.922043974972954 -0.9331906341394639 -0.6482535256065933 -0.2566356904850161
Ni 6.446947976677736 6.6781678044331665 12.571619813664428 0.6453160402448241 1.3540303422406357 -1.5391004046725236
Ni 4.000607810742144 1.9740437618919486 8.790678654808838 0.018872154314154597 -0.8435884602995987 -0.10352444034791203
Ni 7.413084032724259 4.758943011526698 11.054095221853999 -0.3646528764969591 0.13593165303402394 -0.08593398095965846
Ni 0.1516091133698247 3.4600313557615365 10.789750466613311 0.4327331171046483 0.05496427205102147 0.4769216386964044
Ni 5.05640166057891 7.657571853140887 2.7426880918322434 -0.6601975853423468 -0.5452379065742997 -1.8551910559900628
P 6.637904090044134 6.41473884411213 1.2104409013737838 -0.08832973488534465 -0.4335139611347308 1.4405590193614997
Ni 0.6625684296387356 0.38663004172549054 9.574263498453345 -0.41364267613210054 0.5053068747073168 0.777006915724623
P 4.929541996859911 1.020541262267103 10.670531621952836 1.0603926206099739 0.7634386901218851 -0.8133918821115605
Ni 7.849668112792792 3.0080001324699905 6.249650259334604 -0.462322657836307 -0.71270979630845 0.7357142276234233
P 6.2192589245161365 2.7266506470646363 3.0340276493279577 -0.39189217182888636 0.35004258278295197 -0.1945386640439553
P 7.451876590615864 2.836205832482617 12.465144862162942 1.718574203963556 0.562979803938753 -1.4994028289725854
P 3.926774144027382 0.3076831867093491 1.6008674463354542 0.1571111153251165 -0.6560647941208959 0.13806952531263317
Ni 8.09518574275762 3.7210421025899234 8.51667207927128 0.20986346732648373 0.10611354123132694 1.2138154884502257
