# total energy = -381164.41709855746 ev
CRYSTAL
PRIMVEC
9.37140561372894 0.00000000000000 0.00000000000000

0.00000000000000 9.37140561372894 0.00000000000000

0.00000000000000 0.00000000000000 13.71599939189887

PRIMCOORD
 96 1
Ni 5.613893644794912 5.492758856502514 5.1201555199258175 1.6516740997068975 0.2342796913873191 -1.1363486644213139
Ni 1.8283049966824167 7.872205585682545 12.2966954308171 -1.1217697381658744 0.2775690982035736 -1.9858056676865476
Ni 9.335531821353381 0.10823317425540631 6.247075473002578 -0.5092928559382583 -0.3669352447732325 4.292497094086433
Ni 6.685157757380437 0.9143999034480412 8.652958000132015 0.32657072491325695 0.24120290086971366 1.333577987923555
Ni 4.653886859039599 3.1031816379101294 4.4957209616695755 2.824852274251735 1.0067979752129692 0.27113362699087495
Ni 3.9879828940316417 5.584682973658643 3.3736282195977205 -0.09418953610023133 0.09847607929072717 -0.7592645041395375
Ni 8.117614583130557 7.469132061062068 8.428947670143918 0.7447277439759432 0.9432199933510079 -1.3575021028393202
Ni 6.446468057720267 6.321097394113917 7.315729649139129 0.01736523075132493 -0.6636829727877861 -0.044954967444135484
Ni 4.030969531343821 3.460860073989034 2.3862681752884978 -1.342273973035656 -0.5021328478547094 -1.6904180532443143
Ni 7.940626217689569 3.759358083944893 6.074514159549005 -0.43531938977458573 2.0283826218168097 0.39846159751628796
Ni 5.940533985652988 8.664586040153152 7.040957226644192 -0.4070179717267313 -0.011612901648579999 1.7536404515390702
Ni 8.943853925896107 0.10132457407521482 4.210729958550003 -2.767029706816312 -0.64342422253875 -3.1281185201110966
Ni 4.586543938672188 -0.04160435499180697 9.000808643198214 -2.077575024381061 0.539617989284361 0.31992982255797153
Ni 0.4734602775143763 3.8162331442997246 8.787113419312039 0.02459105907580281 -0.8521294078910744 0.12792035269377325
Ni 6.0309867921359075 2.6102082197348815 10.56207356411477 -0.1392954272999343 0.19881749392496728 -0.03998888168811177
Ni 8.3913345967809 6.6883627780825865 0.6588585423065633 -1.0467459763608167 -1.5789157368972486 1.2174430579004838
Ni 2.7610316208472008 2.081061176090915 1.053284133874571 0.35181355864044567 0.1569373087514136 0.5928205414492693
Ni 0.4643925054927359 3.6178967169888554 1.315931831853595 -0.2653841261016075 -0.9140366869188322 -0.05833318852325438
Ni 0.8513725153418584 5.413561108099369 4.759040589427384 0.3214046073312852 -0.3017480094426223 -0.4638200683174399
Ni 4.966235806415865 0.7838721553610076 0.8942654385984191 -0.1093839844524826 -1.0172096574645966 -0.05425747579198397
Ni 2.7852660756301293 6.15438946057427 11.655965872569924 0.8910705650409622 -2.3345341596437663 -1.0007697667410183
Ni 5.529607223171685 9.182927853184312 11.443573274056845 0.8557700899674553 1.1577906363451738 -1.3997579261847375
Ni 8.951322936128896 0.12222561989979576 8.866351464759099 1.2008010784684287 0.4444455204455701 0.46299860085740907
Ni 2.016660877069922 9.279584530149172 2.0335612698601517 0.9378595003700427 0.11000696274846214 1.2863100560755265
P 1.2184888939620964 5.531762646450909 2.3166048949039735 -1.1976882438710599 -1.7100746511329774 -1.0112092169067877
Ni 4.770382801578884 7.905192933260237 13.058331115060964 -0.6440400017458779 -1.5042082207810288 1.28442569456862
P 7.496758964658385 1.2216189434197522 11.366956410745432 0.12173967780435808 -0.08346649325577238 -0.42174550774489306
Ni 4.90416898737977 2.139960460047105 7.389645673367618 -0.15914280104316464 -1.154183635720206 -0.5569040300583183
P 0.7483582768438432 1.4444803390859673 2.538941491858725 -0.5892796181755465 0.35565144432929713 1.634697876863875
P 9.048719954133142 7.035020441220762 6.224676876569214 -0.21437575337454048 1.8664414320929017 -2.1993229297155352
P 3.610587020650617 8.504784832512586 5.989187511908415 0.7732207092093135 -0.47370056065594546 1.6387121402295908
Ni 6.571089008881669 8.630877094347198 2.9101513004283763 -0.3847267644286987 0.7210044322170743 -1.0207305261336614
Ni 9.129426498831744 5.613218903594459 7.625821024915545 -0.4853959947160028 -1.8155060786956154 0.6159666405484294
Ni 2.0094167805706165 5.243067126712739 6.836767419419394 -0.09871519188472677 -0.36264098827325286 1.0634236941268136
Ni 2.471333360713913 3.0757234196139263 7.777794297490303 1.0509376458446609 -0.3963028993020723 0.030866864782185546
Ni 6.145486625290519 1.8680678704813214 2.699391200764171 0.09735764941556782 -0.607933742941624 0.44808980206637666
Ni 2.119090339860878 5.699126578379884 9.158103936991543 0.14242600250911602 0.48103951751951995 0.470406463285706
Ni 1.78832658055559 3.2136142810509005 3.398001371182964 0.9631699541103733 1.0601115990344452 -0.20227794166974195
Ni 8.9373220562195 8.63240463345378 2.062392399071165 0.24481504370100418 0.23268277921384442 -0.7914439170855596
Ni 5.824131757169322 2.499475691616131 13.188866360272446 0.45044390412085006 -0.08733034708655282 -0.543674932962554
Ni 1.2904987742993064 7.541835425410855 7.672592772934154 0.26714738864961735 0.4191229825203814 0.057244840555082055
Ni 6.095143434612293 5.513882004638911 0.5946765970351614 0.012039190552721202 0.950954128770472 0.8955370854527479
Ni 1.6602944377696753 1.416890921111898 9.523251383303238 0.0384989274061466 1.3807227639301576 -0.7879505592203204
Ni 2.058204317925577 8.578537794284298 9.851200909518303 0.599659932968606 -1.2651053969734536 -0.14468574507757018
Ni 4.873196491997875 5.245653634647809 12.172332193308648 -0.1563608674226533 -0.47377975063331307 0.34149880697799895
Ni 6.258055948899391 7.885297439252442 9.394760041644792 -1.1465544013097222 -0.6444686046428643 0.8123210176448848
Ni 7.123289710207773 4.627712523305369 12.527425995733596 1.7122096951981094 -1.1477065126362944 -0.8428839780334065
Ni 1.750250559757817 2.644685620796906 12.781665668642534 1.8790413802450991 0.9448212763998568 -1.19783633941315
Ni 6.803312438704167 6.698549495928312 11.457852484711427 -0.41270036682348926 0.5956358994108775 0.701825031075146
Ni 2.594773514774524 3.699212403048977 10.374398047771054 0.8828268369749311 -0.47649869222637287 -0.38025253070742904
Ni 3.84898620673837 1.73491894025864 10.920555129650324 -0.5495164793449955 -0.2758953100455765 0.16482493902960646
Ni 3.204458417816979 1.913556673078513 5.567653255471661 0.057544631183687994 0.13109952175270323 0.39159443808280947
Ni 3.7501647350887235 5.437645620393309 0.7233047612148091 -0.6827654433405337 0.21114927601744282 0.07544850804730233
Ni 2.5385731956201445 0.19929887066207036 13.427771602260538 1.539409194162194 1.1928887655998877 -0.3331054407079812
Ni -0.04940323870037365 6.543921304157883 10.084277137246929 1.3598752310571869 -0.14845729630486046 0.8555561741844362
Ni 0.9568861077032177 0.5217623760612333 11.567868100304697 -0.6002091206038567 0.5795575057917761 0.20169044459738814
P 6.677220176869555 6.565400565705631 3.226743620243044 -0.2712452128680748 -1.6815235789681622 0.614456117441174
Ni 6.758282834979506 3.5276875670505445 8.339066519400271 0.12877113072984273 0.008252726927095463 -0.35101086023349226
P 4.471369364317124 3.418951148316467 9.001508687193684 -0.48041936743701785 0.1446582342737444 1.1561867821931637
Ni 8.874364953655032 2.709535747284867 3.7397765320234195 -0.5690013275424846 0.3828102641322762 -0.49373511070931747
P 3.907876119288998 3.5105285234668075 13.372742708801391 -0.6665785491680262 -0.10708798932945428 0.11695202660772762
P 6.979944690733805 2.664328086854531 4.551050677247259 -2.193920527753041 -0.4224294211857951 0.29663408525482465
P 2.806689108744505 4.0420465327179205 5.204754946494808 -0.0599558117283419 0.719580041065722 0.42696947514799377
Ni 5.237125655586531 0.38501576324336 5.258138221137298 0.702398644190429 2.3181786011038787 -0.7736264292881644
Ni 1.3397548819323593 5.137591957114184 13.452692981071152 0.2597716650108365 1.1054380908853862 1.2494982865638158
Ni 1.2731804168210186 1.238599930297814 4.776596980606942 1.8058610994066837 -0.6207612337235954 -1.1804477116230574
Ni 4.995558934418875 5.624670761191032 9.576703069206328 -0.8019365890867672 -0.40588951454924294 0.05754617384558477
Ni 0.5127405239268459 1.1526453984845795 0.5436455451886955 1.1632843124698933 -0.9692375004606921 -0.4197163931300062
Ni 1.649854691973781 8.1972059305673 5.146914631367107 -0.4998237401055586 -0.32026483729988714 0.2749213761680813
Ni 0.7192094569842832 3.119965825271392 5.761556070811221 0.7961508356429257 0.5939502841783384 2.1735131677412824
Ni 2.6165714041113732 0.5100659247794956 7.160876543635218 -1.2076145018458364 -0.5882046399438128 2.022816697693258
Ni 8.742003221499546 7.019670078910463 3.9294284778001276 0.9580663143352209 0.3632385126479357 -0.740982160890582
Ni 4.7822470010201785 4.665357459447297 7.109249470395018 -1.1962854499862625 -0.4925210357965582 0.3955948174914542
Ni 3.7567903188209475 1.0966793644692465 3.1630330566714027 0.37152903479150207 -0.021071990178950808 0.24451216774860465
Ni 8.262730798255713 3.5808702936140095 10.471507363624553 -0.3703823227815686 -1.4494079851116972 0.683483552453481
Ni 3.480689968157896 6.340608660493676 5.513735810712147 -0.29161786298715586 0.3118665859338629 -0.28870428888478666
Ni 4.309215933880535 8.087035686782261 4.0848851018222225 0.15690285596905235 -0.8359337719678184 -0.5048916415467691
Ni 7.3310350287027335 5.452958497081362 9.580475059944972 0.18556114313569333 0.11441177668437714 -0.5942372192911379
Ni 6.0622872867124675 4.171465643526988 2.5403265856007655 1.7107598501254602 1.375817099098424 0.5581294178249872
Ni 2.195514152217717 7.538977146714492 0.7169856224444576 -0.48184967212564106 -2.661035721881985 0.31595361151904294
Ni 7.638426502536782 1.0211739498574683 0.7838506011282155 -1.3617935311258222 0.21525301377317121 0.09679766314703973
Ni 9.268376329097206 8.355648284401399 13.32501132885325 -0.47588008480576754 1.608786813425068 -0.7744669229115888
Ni 8.933151780744481 2.2712913375907884 12.672006166460614 -2.7675624393913303 1.457293301397045 -1.4039441963519435
Ni 7.192956739154522 1.6500889771128273 6.5378270791210165 0.0902554911531478 -0.9631437288581284 -0.45318598564236146
Ni 3.92882121071972 6.935955313026509 7.768467874675156 -0.03817265441497942 1.0812504378955896 0.23585243519107765
Ni 4.157745905784448 7.870368790192424 1.9522118467400074 0.7230253193018451 -0.14033158187393252 -1.7995295007617007
Ni 8.27114632045025 8.544032279005588 10.985925369146969 -0.19901932552312823 0.7032699910517889 0.040451680257143234
Ni 2.1033932355447895 7.136634591727839 3.1616339058210197 0.38658387224209556 0.35716428142939777 0.08367346706025588
P 8.87637980585083 6.199793920521405 12.314415821593991 -0.24721542561238066 0.2791701241421063 -0.4598155751437371
Ni 8.324272818580344 4.976947322973053 2.6784189322573195 0.32312698933903056 0.42370237436094776 -0.4324808918845261
P 9.299283224640169 1.9021048154819395 7.753036918277024 0.18282831758556256 0.710312499720867 -0.6447974487371928
Ni 7.09064910463587 7.832836310917238 5.276846358060406 -0.22805582196479432 -0.17624809326488355 0.1271958158229229
P 7.547898724809368 3.4409645799812387 0.6658214966390135 -0.12778048468179928 0.36804441867701126 0.7593706907000987
P 4.041521734006458 7.459751284094663 10.49235499243743 0.6996740461704143 1.0293840880436014 -0.47962129701575457
P 6.694116821097559 8.448228399946856 0.3714403451464726 -0.2849381369741351 -0.22741561727763412 0.6685444146451454
Ni 0.7770057265058444 4.64606173539546 11.37672235248143 -0.527617365279059 -0.3361313720184985 -0.9913600433913442
