# total energy = -381170.7529726865 ev
CRYSTAL
PRIMVEC
9.25479957307936 0.00000000000000 0.00000000000000
0.00000000000000 9.25479957307936 0.00000000000000
0.00000000000000 0.00000000000000 13.54533466467645
PRIMCOORD
 96 1
Ni 8.116274307952693 7.601735204781304 1.8647459050373612 0.35064910601869936 0.027746059765016734 -0.25674959035506106
Ni 6.10661304609574 6.580903025039342 10.511342451700207 1.3535503172804237 -0.5792821406432023 -0.6727648804843962
Ni 8.21954861865812 2.974131710960325 6.020995967883807 1.1161598481782646 0.7669783278440275 0.34704236250404746
Ni 6.413502206682882 4.69852302450793 6.642564979509906 0.7369115903656341 0.49409403671063296 -0.9004468640495396
Ni 4.800048178055605 7.69720771927518 12.017434324560798 -1.205444747888027 0.5099068353731735 1.8683569039480596
Ni 7.202955137213773 5.800223644696527 3.1455926099787144 -0.7136647040225516 -0.05792026935555186 0.8559328407975646
Ni 1.059748612801942 8.728164649972582 3.4900636614980716 -0.9386771111753318 0.4081952798642841 0.578941726584648
Ni 2.821575591445294 7.322480876326647 0.49477732920873285 0.7931087063824921 -0.5870998369154082 -1.037817049302303
Ni 2.844175812499389 6.350939760194067 11.815717634113234 -0.8109385354750615 -0.5652284907636136 -0.7037636428587557
Ni 7.411141858185055 1.5554264340289237 4.4590430490525295 0.17555029586691057 -0.9650221768277638 -1.376634709903713
Ni 8.651136951433172 0.8471492032972466 2.3777885070848996 -1.2293850607537085 -0.232222037527342 -0.6476413459438911
Ni 5.592027668925468 9.20126075974502 5.556662302539713 0.507490512622197 -1.1668252357436162 1.1047868304546329
Ni 0.13882754952664278 7.104280461997243 7.721775510761749 0.23724931553860432 -1.0210503713669252 1.2483006667112888
Ni 3.5082539704586875 0.6386070980145478 0.07044475945841812 1.1037385916957765 -0.13259796067510066 -0.6117759995058496
Ni 7.376269772627385 8.464152976749741 3.9978782271518916 0.46157729502985023 -0.13093574248132933 -0.46943227229789475
Ni 6.3388529916860215 0.13209745912920703 2.1845371819928543 -0.09466416174380471 0.4867723062382391 -1.264354634850358
Ni 0.6600458416966984 6.464098197060744 3.2567862528528497 -2.1857999555284358 0.14497756528637612 1.2353266230491242
Ni 1.5911499611660276 7.649665812823548 10.127278441257213 -0.46941607434797866 0.6424235491883774 -0.9188523631399208
Ni 7.85128162595355 5.825850185277522 12.61151935729077 -1.2553765997214639 -0.6339260532403276 -0.09866916913813974
Ni 5.863489455968351 -0.10967122831090904 10.491132745428368 -0.6758522611604683 0.7918951456903652 -0.2688967672405562
Ni 7.543106048197481 4.549511493307278 10.151131762201038 -2.5107912517697146 -0.4913324148050958 -0.7440309750192348
Ni 6.045697953967134 2.213997986121233 6.107523718393743 -1.6130093361468478 0.2011119463860988 1.2547142835471166
Ni 1.3020762901485559 4.080811413428654 4.846521155133058 0.6382259661672622 -0.02581387573931038 1.042438093014082
Ni 5.079172939313391 7.622391917882344 3.1621716582982504 0.9565858731349525 -0.24330632036596164 0.9615223912046216
P 7.395436462964417 6.171479937728891 8.160996276912442 -0.6819563171756772 0.5168110186921744 0.7787606651909361
Ni 8.730209960723176 5.909957805645916 5.581571596138032 0.020666012989783766 -2.6833410702474048 0.5524981876811388
P 4.081903479802275 2.30500968712286 7.923614364566364 -0.06284033236498854 -0.5889165784091729 -1.4900540407678338
Ni 1.823556493152285 6.909948176291309 5.374274261425266 -1.0174937643639186 -1.7427713700350502 1.0155448681676638
P 4.362296148629436 1.4016394261436242 11.496169758391861 -0.5568569788704667 -1.380355610398726 1.4664852523089582
P 4.458731162300063 5.745694364413673 4.286028269151673 0.18775455124258633 -0.6533880186196812 0.6973867927981344
P 8.898471475458846 2.2070013574902356 8.497895976734684 0.5487160949308871 -1.1054566028281476 -1.6499535174713649
Ni 4.935519937183306 1.278587608315921 3.857250619068729 0.4994015649664755 -0.8797006326411236 2.0708333347818533
Ni 6.7572069607807475 3.060571540872385 8.358893511492267 -0.5045059760725763 0.7911736941433084 -1.786557771092381
Ni 6.054554797353198 3.793884855959319 4.329129722670565 0.02679835113976675 0.02088018588311888 0.6111463363416506
Ni 3.244445902830929 9.29218916754866 2.6200874945522066 0.7460099531224764 -1.2394018215597622 -1.6546136419511956
Ni 7.9996268115702955 8.768645144194782 9.262801476338515 0.68534914490731 -0.5068955593506753 1.1865170577455888
Ni 1.942943410268513 2.422351293488492 12.713245339993595 0.11290382468028297 0.35193260071681326 -0.8878464016767096
Ni 4.070409018479922 7.2520425952280725 9.469909087655862 -1.7337210869073236 -0.03170375886118411 1.0093955607368164
Ni 6.495129540711186 3.3650729631172016 11.735556260369517 -1.1998739386684691 -0.45599054497069214 0.779890150809689
Ni 7.877167300928286 0.4864341272102616 7.168109890575454 1.6272473341231006 0.9639950211148303 -1.640808360636987
Ni 0.24925859689919852 3.0736022989576286 0.8651618201021548 -0.747640546747364 -1.6135202143449954 -0.7502594724274498
Ni 2.940481258973146 3.2974388863508914 9.565146530235417 0.21564510700526732 -1.375644835186618 -1.961474032919719
Ni 3.476028757637082 3.2658707643134144 4.00580218672049 -0.3329617160412653 0.4972179270515953 -1.597755495311571
Ni 8.57883845557953 4.421323261603645 7.84277646495899 1.4859652154104408 0.8829435650584536 -0.5573269765283498
Ni 4.437176733620706 4.859945242208801 10.782018506242071 0.16447886854409738 -0.5355978123813744 0.4293166352239316
Ni 1.369950991709053 4.874965782245983 -0.3397871973524947 0.7596252299130659 -0.25490970893284487 0.2324233549048707
Ni 5.89414135282796 7.840684880209513 8.321847473467107 1.14103167171928 -1.3578880254238292 -1.142797248260135
Ni 5.94941101709293 0.5625881726507728 13.177430003061287 0.02840940438062849 0.49897064807664393 0.058048824513616155
Ni 5.116988051199973 5.183733667187743 8.424805270020178 -0.3639147127793539 0.33584006603032485 0.7292206494792797
Ni 0.8829393649927411 1.1432916903839725 10.090014915437306 -1.3962265159927114 0.18350837437172268 -0.9880831724122854
Ni 4.313902800598369 2.995482534044599 13.129262472144768 0.021644060632336915 0.38647871412279894 0.10131046341572875
Ni 2.859168588137241 6.816881909739309 3.03021302116569 0.7017653814818043 -0.5413532268079129 0.056010968147980955
Ni 8.740889999665201 6.34837618065599 10.252965100581271 0.9027060923973614 1.7522877941659174 0.0477142753568275
Ni 3.78107621306871 8.942320716799676 7.350660816165965 -0.4235164836023868 0.2811773843801222 1.0619080288132356
Ni 6.044152402404467 6.251228547402576 1.2087842064820111 -0.24252136257082102 1.8120741701959309 -1.2890667928850574
Ni 0.36817166826687237 3.782816115426683 9.857305751498359 0.6310500172441131 -1.3220152227866198 -0.02775017353007479
P 8.866523906630535 4.666834590073358 3.829929524648666 -0.5311402908306531 -1.0966384903158857 -0.48606936663394346
Ni 3.0170832367228377 8.645852460760818 5.121924561400733 1.294932764747531 1.509731207481787 -0.7704426322435441
P 3.1646880383574674 4.78975684070419 1.0327505108940769 1.4190121464286594 -0.48039494195698546 -0.9111971605875082
Ni 8.71390300351707 8.012009733671189 5.768172422110719 0.8033823203943583 2.850964912178387 -0.6458780833958813
P 2.0213223095752832 4.077803603501307 11.160733242414276 -0.2008566358421831 1.8621865134712898 2.9649619699228484
P 2.3474614536974445 1.2185979961649607 3.992501188481773 -0.18539839230558394 1.6935676546168899 1.3602295290728121
P 4.582838027302281 8.321425454597302 1.1558319440810645 2.135084431451439 -0.025147702910221205 -0.7058632057002617
Ni 6.4244598896182 6.6431693179353095 5.1189852369917315 0.8608765579560852 -0.006869730536639781 -0.07595424403912726
Ni 1.808045448726952 5.4524097594979155 9.24734596071184 0.7312014273547343 0.9510662288683038 1.6023102045617887
Ni 4.943682670586137 4.564513523744907 2.449552075511462 -0.8102278825612821 0.42178330296136396 -0.7778150134482154
Ni 0.5461303622083086 1.3157548842181515 5.258177425629567 0.05773463570730702 -0.5656588934328128 0.6054747398781701
Ni 8.526706168438778 8.934398608191033 -0.039291252450926094 0.5977891983084543 1.9517719751406062 2.002115717700481
Ni 6.474167419217523 4.080422711838043 0.4388838914388299 -0.06095751351997889 0.23249406024180602 0.5307029461829182
Ni 0.877777963157414 2.4653490932498876 3.0759557945407803 -0.22780385385498833 0.44101875415220815 0.6609028389394876
Ni 8.850503848217498 3.788600365286965 12.070343089402797 0.3208153104867184 0.29964716104953554 0.22475375417475488
Ni 1.0305682291067895 0.04567428785674489 7.759255598896424 0.4059059696094751 0.5629697766364239 -0.17036412368028078
Ni -0.21324354356913636 1.5234233364019534 12.024275472555553 -0.7543657812863396 -0.9033123585227927 1.5839604984100077
Ni 2.905877562608993 0.430463874602214 9.677708032516513 2.577203874866994 0.2879707531528718 -0.1373521875306344
Ni 2.698514518817814 2.2172186564434386 1.599839292676138 0.872729086419297 2.6980788906782114 0.5498779764494723
Ni 4.069881494892664 3.967042159776732 6.133910078036385 0.22785964679358822 1.201649285401337 0.9703304764145547
Ni 7.48763277833743 1.9500325868972752 10.139225462288632 1.0432323067806033 -1.533596958355791 0.9673755075512888
Ni 3.5712884117361003 1.7015967416982032 5.725301413106261 -0.11139175891113073 -0.7365297815461831 1.6909011635283202
Ni 2.0647735945257244 9.093516380747568 11.965352938818818 -0.138351061108794 0.15172336865064193 0.10086591967914241
Ni 7.779381086490297 3.2328866579101407 2.6735913430198295 -1.0250450943486153 -0.5999797782018699 -0.33321085593759386
Ni 4.601653035247808 6.982727921733326 6.219923261678749 -2.2577929009269697 -0.8659855970478763 0.9738068649989294
Ni 5.152591265939983 2.3684883587895427 9.848583102709052 -0.21690803287809096 0.701208994757702 0.07232693169918511
Ni 8.559477414447194 5.1109631765455035 1.3949528333051375 0.21144263888814555 1.2993278084914333 -1.0561852673968457
Ni 1.2393102380646597 0.825027455391594 0.7906579054617849 -1.026020056667375 -2.042924524186727 -0.1514199784776102
Ni 7.186490848411464 8.004605893850027 12.151045868933434 -0.7541043000948368 -0.7402871917060864 -1.736496592769932
Ni 5.979748250760139 0.8061532167274982 8.130898742559443 -2.106151550467173 0.7411708798626203 0.5553204876212823
Ni 1.7196898752611667 2.713498039655889 7.055291104860573 -0.45870151614395194 -0.8192244296329375 0.7981048740455029
Ni 1.5279304238930853 4.685057290833191 2.2169919138489154 0.15915925610339685 -1.4818018280613705 0.6878929943750862
P 9.211283707902918 8.486160890618143 11.397234097821636 -0.2459571277252474 0.8712833551117058 -1.6200762702959581
Ni 0.5606631742972707 7.089139609562968 12.879920582047582 0.9382654775592099 -0.33542483286977715 0.6940207045393789
P 1.1035978541427707 7.672367836675184 1.5510081926156456 -1.7821722404301759 1.133011372517965 -0.05836507020245433
Ni 5.011159415756247 2.14105165428324 1.9945916713809577 0.9362816143599617 1.7106045554945186 -2.9761149012158747
P 7.280084638550721 2.1383307431489635 0.5926820050838612 0.6307700241098492 -1.291847698064304 0.22963730751930128
P 5.474732336558717 5.636404433853554 12.653781400469937 0.5576655908146912 -0.18472939126301732 -1.0129760789992233
P 2.8400666813986444 6.721779587236491 7.777853119047204 0.15547872192801612 0.7955921349259782 -0.872933232010303
Ni 1.6796813758275653 4.991890922621674 7.065003091745981 -0.014392007055613923 0.6935517353227604 -1.3127556518615648
