# total energy = -340861.448988427 ev
CRYSTAL
PRIMVEC
9.30303620553759 0.00000000000000 0.00000000000000
0.00000000000000 9.30303620553759 0.00000000000000
0.00000000000000 0.00000000000000 13.61593385211506
PRIMCOORD
 96 1
Ni 7.807898901366795 6.643809957172598 12.220968182448663 -0.2821158370339915 -1.318818056005561 1.0318832003163714
Ni 2.0325180886965883 8.342293221045109 3.8872812003732187 -0.2478070364497926 -0.8086337986012848 0.30886070922800357
Ni 0.7170873484171097 5.9127308420163525 12.6397257597284 1.593804995304255 -0.9460127256047967 1.7166188800093987
Ni 5.362381814919411 3.5978842047829986 12.780297430578377 0.26731528168604934 -1.4533014066288326 -0.9842056917347503
Ni 4.422105320333013 1.968494592221367 5.887107488871671 -0.5335522427062553 -0.9934776039549794 -1.345669114760134
Ni 7.241604469887621 1.0471590797366186 9.979267599180156 1.388419875464099 1.2655633104464787 0.5323610506116315
Ni 0.11375473813572597 6.018422638507924 8.6898937335414 2.1799470962920844 -2.4289527810356684 2.2816681648826704
Ni 0.6591080346881759 4.6905351324946 10.730676639771929 -1.594980503669595 -2.570903900790895 -0.8092714321852836
Ni 1.2106320352818951 5.618661861548211 3.3722446388270826 1.1269037169583302 1.066495648183918 -3.797420638857872
Ni 7.423041588712998 6.62164082144164 9.908192401116994 0.5434972697341092 0.06777427933149618 -0.9983452164599258
Ni 1.1849556548297573 3.3216026299034387 12.874873028880723 -3.5545130965922263 -1.849830563009098 1.0616899992651585
Ni 7.100496013837612 7.743977738291927 5.770610215606491 -0.04441632133184609 0.252584660344094 -0.0023607869226927084
Ni 2.158983565459762 6.255464005870412 10.290119257306145 -0.07751284677549877 1.4312133164805416 0.5280765643036648
Ni 2.2526744450008773 7.381466319060605 0.43667150416330025 -0.17011061290857799 -3.117302146221883 1.28445757624782
Ni 7.054911135498672 4.603654075595139 3.4592373321632923 1.2060006203914972 1.4979797233728136 1.7930022411661444
Ni 3.3244028438585453 8.650744695781007 10.239332121014728 1.683732670804339 0.18924501974518373 -1.876993496577135
Ni 5.471934371515198 1.4029257975810563 11.947696139843114 0.39034976704243096 -1.3311593511797333 -0.36739624357005113
Ni 2.7861663701488073 4.185240710662043 11.879425807253254 2.057628663166121 1.2083310682968866 -0.19420827728773005
Ni 2.086243123881768 7.731390730048543 8.310431251693469 -0.7665535816017831 0.04718642787781551 -1.395485781171945
Ni 6.037698529919818 9.057715325947388 3.5420352863886806 -1.9778681580070259 1.8676362237319513 1.5010874157638598
Ni 6.451665043455769 8.333660003269898 8.052586434342912 0.6985859553125582 0.03959396024253826 -0.5643566296816216
Ni 0.27192124172089394 2.1109798976579395 5.326403251962672 -0.9737785828641552 -0.5649706091165366 1.1008206467180333
Ni 3.9243556610173704 6.605946599042091 11.957962970809412 -0.7344358751316319 -1.964831893648358 -3.53028559150343
Ni 5.52853404494665 5.746569308952718 13.397411558976355 1.5587778284967928 0.9162552918367058 1.6953293745030027
P 7.208429842100547 9.160727847956997 13.213460759716858 -0.08415580601331313 -0.1122934447897937 0.9195090228873131
P 1.9157091637121535 0.6383873817240288 8.746454334219989 1.9352264120770992 0.6130263269731829 0.1096637204764305
P 3.387514642766988 6.579163157258865 3.598187483769498 -0.3639275682951603 0.49394362717569773 0.21886335683224886
P 7.1979918352645695 0.7807601204202133 6.167419139117849 -0.40281241828581593 -0.2224924689444039 -0.5562766808869646
P 4.461382739995667 7.6084976192613185 13.531733449975697 -0.03557763999429357 3.0493090660113613 3.344317442737305
P 1.3089186148024872 6.974393355493871 6.172538600046403 2.5141971921274697 -0.23990038000820615 0.5894457114397655
P 5.637184207012054 9.211466608459155 9.764613058600284 -4.161519956844208 -0.5074712293484873 -0.37584000346203017
P 3.1617113433705075 0.8227186751721087 4.380259332321505 1.2000731991634688 0.24013100796177353 0.8149592265986804
Ni 6.761949216361619 2.7734677254686737 5.27989179119872 1.339097117969571 -0.7937360555538459 0.758657466683158
Ni 0.1239862175637191 8.23099169360693 12.879516174345818 0.8502273057723551 -0.4542576214399854 1.67040227224402
Ni 5.184293789196486 6.096437901722282 7.132148664870349 -0.8674752942195253 0.14779909389557128 0.8830893466076984
Ni 2.7735142406506528 3.6930542671110307 3.5026443696819984 -0.8408494641018809 0.07930027769322472 0.490517117992652
Ni 4.107495235503161 0.2282565100940268 7.766882744201785 -0.0827992919854187 -0.34825798007870346 1.3344120537890762
Ni 4.374799380260868 5.129666359480924 2.311808265546518 0.4239607702286569 0.501454333730446 0.031242760064365546
Ni 9.037527736968714 9.182785347251206 5.457225340669954 0.48864201245712613 -0.7778656641804926 -0.7839692059750691
Ni 8.1825693891673 1.7330440440825439 3.4044871023673067 1.766808870600228 0.4004128077053878 1.374623335900639
Ni 2.143066070186716 1.739900381906176 11.256823817685452 0.48830288395015253 -0.7901316260320392 0.6865989581540111
Ni 8.664150371227212 3.9222996899739204 6.699379784475046 -0.4902067858410848 0.6223388626233605 0.2805806313363877
Ni 9.143163715241911 1.555839806817211 1.372227638082519 0.8489795494081831 1.0201731109682945 -1.9764537941580025
Ni 3.3515863162067863 7.402398150950935 6.01065925463571 0.3636447469474189 0.3070563090294131 -0.440316585878861
Ni 0.06295364728971578 2.086178002626998 9.94518685564814 1.266060304687555 1.2555388363309408 -0.5746736953369135
Ni 4.059547385919712 3.3739136035564714 7.5071587134992965 1.0910280861076436 0.9736695680901166 0.6660237051058208
Ni 1.035939617843402 4.741534378015839 5.282260344265066 1.845341673999809 -2.1832589342741366 1.945181209296966
Ni 6.313533559052384 4.926702014435893 11.00295511809042 0.3224608165099414 -0.5979866590312412 0.49015484955722677
Ni 1.6795887969528398 1.4058841631548897 2.941028435206222 0.8125416182961231 -0.8347055559876722 -0.5069163852862818
Ni 1.8653332216294267 3.0235333437851453 6.5664207883076715 1.7793563682479354 -0.5166336125740457 0.33196849889006047
Ni 3.3538469540509426 2.4006206328017274 0.22763692787007306 -0.06635194506267282 -1.3301085413177156 -0.6032345376937418
Ni 7.886351407291751 1.9448276676307008 7.8167581829264225 -0.23097093872906027 -0.12005226279960615 -0.19342151972037655
Ni 5.606419065651466 7.449424999931209 2.025846881297231 -1.7522682537818919 -0.5803769163692779 -2.140065429605798
Ni 0.9439046787807215 8.826479053295818 1.5505966155045934 0.032364275263318455 -0.03431497123178606 0.3528923935269213
Ni 5.012578343404618 3.6175415206871167 4.126594369223537 1.2403047929900057 -0.05302154650235385 -1.4609887479707613
Ni 5.671996169204771 0.6010515057571577 0.8823641627195129 -0.5131777928149612 0.04937726488154722 0.25021667433254974
P 7.171133969190178 5.541837386992503 5.642375301320855 -0.3958452429393634 -1.8962292048782956 -3.610578315016911
P 0.17605531227046348 7.153290745383222 10.958199140294335 -0.8714977851153571 -2.3876325821306428 -0.9429981071481889
P 8.888623336419109 0.13144725275307212 8.824609142980282 -2.4521328186965574 -0.004051544361554312 -2.4528684113110013
P 3.889869305098503 6.767800826254515 9.017833208919013 0.7812744327517255 0.0011629099598496101 -0.3379725389922954
P 0.5391435197583188 6.016338758355286 1.243775032745223 0.41362570685123606 0.7391206822018109 -0.6630013733397292
P 7.952840208411834 3.113186705530526 11.2843412690403 -0.09527557007555851 0.28149285873801194 0.8489091011815638
P 0.6694669657147901 3.0865521123296307 3.590086399676121 -0.6148250707448185 2.6782986227274903 -1.4368957115772996
P 9.155834450812858 8.201212674104287 3.322424088017179 0.32973652423574823 0.4824736788628852 0.7054826824323914
Ni 3.400817984812842 0.005450649024241832 1.129303960807028 -0.431690791883063 0.06247086484071177 0.40513875242614744
Ni 2.874470791616811 5.301037592926152 7.592571751255516 -1.6939867444321794 1.1097323473853662 -0.3786327357158189
Ni 7.4485784236192 6.06196084883981 7.516377092263798 -1.1701823251413073 -1.63941019473788 3.00409416003762
Ni 5.292543920696875 9.105132902456281 5.821520151978332 -0.7255722540934149 -0.24414887087191503 -0.2809462422059226
Ni 8.951316498689744 4.003943137382602 1.501497050015357 0.11894257467519516 -0.8619003712349091 2.4395650093338763
Ni 7.289859319672127 7.137029037763534 3.4921738022186357 0.9241730040218858 -1.3841999238454807 -0.3957855933460216
Ni 6.587759162888494 8.189146635899062 11.333753416552433 -1.6798863004750553 1.8203893749298454 0.5868036458312281
Ni 7.935145833187209 4.085363311917786 9.193438254227924 0.05238031337392914 0.18770261495872836 0.011609044993838072
Ni 5.344854894349909 2.0343879990121247 8.871788561757445 -0.24113913751131372 -0.2832872316342734 0.7704737425917956
Ni 4.002352318158937 4.815288850560964 10.058989039269486 1.4116446503199946 -0.7893440971337374 -1.437472410016376
Ni 2.018442594629891 0.5235516307591221 6.625486696687624 -0.23417916125371283 -0.39153144605535795 -1.4769642974634112
Ni 7.722962179074036 4.67139878662864 13.462564444070013 -0.5585276817046704 -0.23262698627524453 -2.3665577637382147
Ni 2.571405774954026 2.6505467055722627 9.14147986565429 -0.15763767725254788 0.3894923041381421 -0.018436609438632765
Ni 6.371854294217041 3.710367217843432 1.6047058660929152 -1.3915944165373388 -1.0374840914429164 -1.138282133998601
Ni 2.7378557021459264 8.574180706244379 12.35258009894594 -0.6884686643728982 2.4170627144663017 -0.13676443334796445
Ni 1.934333842576349 4.240305383088203 1.2315843338522954 0.6986818574604742 0.5726096137190332 0.9742881755107221
Ni 5.248866164819054 6.3290696298332065 4.7705738061250225 -0.39807644626272737 -0.31255898401519716 -0.8756460029557758
Ni 4.228592860266015 2.0167215328966863 2.4858885431901743 -0.7014756181555274 -0.6973068314898184 0.08724884311634007
Ni 9.024503486014732 7.502173216294839 7.305193514563163 -0.43708033832975046 4.909093397799062 -0.5441140773825017
Ni 8.577604223637996 0.6739873110994617 11.903430432065083 0.31031801049982044 2.8913430588851172 -0.6782667841392318
Ni 9.084433646475844 6.456325864690015 4.927823960625213 -2.513695312790387 1.774372541880099 -0.6554356451773292
Ni 0.8262835987189417 8.978286001200884 10.328816167497706 1.9377216676951274 0.32653961456500535 2.1342084566043886
Ni 7.246190866830702 2.175822061335983 13.555752029342122 0.6540919866652412 0.09544166333977756 -0.8964058612109466
Ni 7.677516846281032 9.185362288332815 2.0768107752801654 0.7589996805139251 -1.0316816258285264 -2.169716676813328
P 3.863671954608206 4.46094549728507 0.33844353377200104 -0.5966802815149918 0.3511926372269951 -0.25530643015063126
P 4.1552198122131125 2.6887635790858067 10.883584136882607 -0.2809922649525096 0.37762512038691093 -0.36486473539744907
P 3.727559229102689 4.252957512586359 5.515909824557681 -1.6834570485454492 0.8753631816080344 1.719954886361167
P 6.260692312324797 1.9233376535566293 2.979942106145804 -1.6729402081745255 0.4404389703893382 -0.44235572779607685
P 1.3383162098129058 0.926578703797366 13.176806796317791 -0.10979330407575931 0.21331440198956164 0.7300580577789104
P 7.205071445961699 6.07455716011959 1.4530105546245977 -0.26626267205181886 -1.0586969780751059 0.650334576505338
P 5.991481045105971 4.039899373051989 8.235298069154501 0.46702109175324086 0.6962038282336268 0.46118468757712183
P 1.032376554903848 3.9612235942535374 8.220184356226042 -1.2495599930396868 0.8008263867417241 1.5258962472774238
