# total energy = -340874.28313436 ev
CRYSTAL
PRIMVEC
9.22385888470060 0.00000000000000 0.00000000000000
0.00000000000000 9.22385888470060 0.00000000000000
0.00000000000000 0.00000000000000 13.50004983970392
PRIMCOORD
 96 1
Ni 7.024328195330551 4.42468505920257 7.614162603516508 -0.6539603461833834 1.8692807013139099 -1.0150177920196004
Ni 4.4702140261657215 5.891287829888973 7.998036546504548 1.5114103949564228 0.5031859717095721 -0.6891127257148003
Ni 9.093682466045536 5.257913118693929 2.670147545523493 0.3974305851486123 1.1893900084180098 -0.0755786058672634
Ni 3.6914805243766113 6.648557412285204 10.12093347269516 1.356188526234219 3.1905238218211953 0.2522463031680688
Ni 6.139714018547515 1.0911271511221778 12.284315759865244 0.40509170123829585 0.08159138772024657 0.03096482381263054
Ni 1.040783329873215 2.4783217215278333 6.660965347122893 1.3903165782661797 0.24545370572626762 -0.07178854269721184
Ni 3.8416449453977033 4.840468941657592 4.1336206609241195 -0.5766480454544649 -0.9026947795434518 1.161080362840039
Ni 6.183527347776643 1.1353832255729888 6.497479829244389 -1.4668215526024546 0.9327990551279999 -0.4728698372245339
Ni 2.6174728551595408 7.435656953992381 1.2678101661503731 -1.6563609636596055 0.4545530411932171 -1.644196046162297
Ni 7.021791634164655 4.392982656558252 0.7068667284510428 -1.267308061051727 0.8528917399783956 -0.1367636620170161
Ni 2.8714610306654857 4.851583691493612 6.641903320557647 0.8644444778130015 -0.30601192692529877 -1.217837208015109
Ni 3.5342967468200737 1.4652468634449969 7.007228083528894 -0.2527453542916744 0.8625444325768112 1.0559788078129944
Ni 3.5811908448834173 7.4277890024487085 12.410109823590279 -0.26106184457716974 0.12578093775326724 0.5549505058763733
Ni 5.26448973000769 5.754488780247462 11.716679490231462 -0.11602540102840017 -0.02939902198740743 1.0200522691197142
Ni 4.801064616927733 2.86206191856349 5.126293265760239 0.7693391147667202 0.08001273037921705 1.0416575060943156
Ni 4.631714569633676 6.852598392469945 5.544780661225167 -1.1607972843819814 0.6469201515071504 -0.10129812212055457
Ni 1.254204974442381 2.0704888053455495 0.40984371739743125 0.7286526927909516 0.03832049284675336 -0.49776840023842656
Ni 1.5193632429370576 0.7731318523489314 2.4780422386066454 -0.24957338432159598 0.15767187292459298 0.20700311505955316
Ni 7.4448254696247504 4.734551371228526 11.67686839332918 -0.06633266178896317 -1.6830418153849012 -2.3301853957567675
Ni 9.081589987178297 4.691236130373793 13.3062565910123 2.6141048616584013 0.2975712523571133 0.16649692741539068
Ni 7.899543260011592 2.1572945403719315 10.460257100137147 -0.5251563053330762 0.4194168596117164 0.2588427254386639
Ni 2.8585384045075894 5.077992529232171 0.7074201599781476 -1.0382572221635151 -0.8698849321022825 -1.3577234748215068
Ni 3.7139775159534194 0.6809670553684184 12.40200943080522 0.6309808545690746 0.5300794536663064 0.32683246321507586
Ni 5.751583264730161 5.3592925506007365 3.100934034292447 -0.9702852249989162 -0.8141328740426431 -0.9465446868488666
P 5.024992236653104 4.1903437029088435 13.428337129190462 -0.5189764017746095 -0.25009968913871117 -0.12755474182423837
P 7.994668915662116 3.267275258850811 6.041542644726158 0.017144630100086603 -1.1790405468628857 -1.027774063244004
P 5.823769183582192 7.629865300712227 12.709621431744106 -0.2918297218876458 1.5300367518083584 0.44541354078579415
P 3.4130306753726356 8.96967690853893 9.55268935076744 -0.8330507939930686 -0.23843485120627325 0.28038831281992355
P 5.533586586203596 4.775911154020822 6.042798011906808 -2.2325115006523615 0.03125458713890746 0.17708704422641114
P 1.8294693752914255 3.647860896181971 4.930353600746434 1.7203901741263727 0.22759945115366606 -0.28364178676021473
P 2.5155215440080583 5.424763500257229 11.66924026211392 0.4535603382626447 -0.9436984756493232 -0.02718607349648866
P 6.495367565582606 0.15823898700155048 2.7028987009116747 1.3157414739627664 1.1399152987266497 -0.41116978911157576
Ni 9.158978162385113 7.606279893798779 5.391137000670344 0.2221003757123078 -0.9940123934125269 0.1289472512963908
Ni 8.459228563372637 1.0857127460153364 5.956006112668604 0.579331505823899 -0.20266386425425095 -0.8639927349875636
Ni 0.644994006106609 3.991449635926177 10.99140286203128 0.14920317333194952 0.5167536830916778 0.24014720591168964
Ni 6.931978921174337 1.9043025416147745 4.157907081105233 -0.49371839853876903 -1.361866550455603 0.6520042508982771
Ni 8.895397173742685 5.096283441202983 5.235656869831411 -0.7505775178885009 0.42985579555685327 0.41894660484351715
Ni 7.545273291794264 7.347486087865807 10.537760573578776 -2.012717404475727 -2.094798587348199 0.3623735935444792
Ni 8.427858219644582 9.136997706900269 11.673951809181338 0.6730487302734023 1.2297825533024433 0.3677441138277731
Ni 6.920735037315326 8.50140004573802 4.822083023941293 -0.10041931906002705 0.17124421229238895 -1.011624192957019
Ni 1.8578696364906848 -0.02737456810235853 11.196738871989444 -0.9128056427252085 -0.24128697594308768 -0.5474050894289476
Ni 4.930835086175015 8.862984533971916 7.951933855524964 0.6928817058389294 -0.4122036296927288 0.19778545311602713
Ni 5.112010120431544 7.888502301045852 3.321322459401984 -0.6534512677574488 -0.681609989579852 -0.09323385705518136
Ni 3.6563929655581693 2.060379456117102 9.96889568595482 0.6532494361592879 -1.9677374973309274 -0.3807716364356927
Ni 7.429882818392921 8.522688711813984 7.102875809586652 1.4264310646005498 0.19386992011170484 0.44646409353749555
Ni 4.787736140983293 6.219159114263404 0.9510822255741965 0.9435092424566526 0.4877927770829534 -0.5778004138913534
Ni 4.868859978998066 3.3071776719550643 8.078767448135077 0.28784348354638817 0.12525103339172622 -1.0348587380049277
Ni 4.018632347765806 1.1326990826665306 2.6992137693270353 1.1499459434897743 -0.1882363759750113 -0.3537002341401973
Ni 1.100553934800529 6.879891790614994 12.482767081626227 0.07553541133415378 -0.4328084504272739 -0.18346800805209046
Ni 2.9011895275297968 1.5799455474374586 4.588248057494868 -1.7313739268313861 0.4494673991401937 1.2484737019540433
Ni 7.1249604946757685 9.268317784423445 9.240473721908923 0.36255125677292405 1.9448258828400762 0.8248356051721278
Ni 6.8376741889556865 6.543414645994083 6.262848843784811 0.4393796758868885 -1.334847598664598 -0.45665980312357485
Ni 1.7582980809057531 5.716504929770504 4.259684061325677 -1.2091106267753886 1.307089454714723 0.4502436151845859
Ni 9.002504621955028 8.148864162972288 2.4226649576186645 -0.17393590019193914 -0.1432109603042566 1.1232933738992523
Ni 6.146631912636325 2.1943652288291653 1.118259131738489 -0.48794395794883705 0.09134512467290075 0.31634544764082295
Ni 6.78472923952933 7.0230829743945655 1.8491152721177662 1.650555926942054 0.7052667097668435 -0.2527795499637195
P 3.0008625455613642 0.23154837185360422 0.8901780084021961 -0.45125431583728737 1.8815044970736112 -0.14109931327789246
P 0.07979467996384304 0.805732658838916 8.016410473204425 -0.701076840055212 -0.3035233561754902 -0.5581119343234904
P 4.157525213351532 9.206757750891825 5.667955149055239 0.42077465919119145 -1.02574212041564 -0.5021565020037932
P -0.016628772617741074 3.406703108246071 1.51309932043611 -0.0017560634591582663 -0.5050212251460979 0.9454519680053202
P 4.740795923626024 3.2655319495404314 2.990233893083317 0.587117577527221 -1.2880859170290269 -1.137144677960048
P 2.6497655847661035 3.217125138636335 8.301113176078807 -0.7071055627477951 0.05621074286361287 -0.23810395022941575
P 0.5068316701366623 1.880182150891792 11.75281949133728 1.2093237712274592 -0.9967493327277155 0.24595301396018932
P 3.249547002265889 6.523260514548685 2.9109216209339337 1.5930732593445531 -1.3184997534341938 1.437340512424202
Ni 0.8214418127357846 4.597392591094396 7.61898299211759 -0.8435529790759732 -0.6685552132784228 1.0989648244562171
Ni 8.10553969825877 2.478045005764281 12.93163048884218 -0.7671079114433563 0.0996940108582283 0.37161131009266324
Ni 1.6196358117896552 0.08814319455021838 6.381324697949762 -0.4864863995667041 -0.416644696183218 -0.5481584226552043
Ni 2.8849278644917016 8.414732668593414 3.9426757154424346 -0.8859813234435129 -0.03927977143622913 0.7098119059353647
Ni 3.739804320551642 2.561456360757753 0.8008191092641043 0.18135533258446188 0.30769548527530877 -0.837174843463771
Ni 0.04134410223236122 3.020038947975544 4.025229251568895 0.27819310494081767 -1.18417195455218 -0.15021258843307034
Ni 8.449838675129428 2.9202275720622004 8.213267912167346 0.6893706073618773 -2.724951803809655 0.9823915213441469
Ni 2.60114662510995 2.7912411308116507 11.951188720755075 -0.09200821217819638 0.937881868967546 0.2427154808594981
Ni 2.2053508446421946 3.4749043201029477 2.395746048140289 -0.86089018480284 -0.2718818180108092 1.308531072257256
Ni 5.2160091282333125 3.36713275405808 11.328472178386189 0.9357612230801176 -1.2017557290722143 0.6497270248283261
Ni 7.538502979446015 8.86161017901294 0.382910972130878 -0.7483547992055692 -0.2752291372164873 -0.22384024122154997
Ni 1.6888332003953206 5.886620557343723 9.596023961725622 -2.067338434254717 -0.2833939324154668 -0.5021264200968062
Ni 1.0336532870323485 8.25563032840958 8.760803548736686 -0.9242676206182211 1.3283702184703703 0.3072609688410515
Ni 2.8439185883332385 7.673623286788644 7.769629820953142 2.3288306815010857 -0.9397626309300267 -1.1822989058991833
Ni 5.2311547043584135 8.692739772375706 10.804319023837028 -0.0025453921296730354 -0.4299930924656659 -0.37514606271879913
Ni 0.690788620202771 8.85073524950533 0.3011267058270934 0.7732883292224553 0.3741083654829041 -0.36220647183899557
Ni 5.964857327558765 5.0120327150600685 9.596928822272439 1.2885605426726001 0.9166846660646407 0.6993925103742535
Ni 1.0900479596443238 1.9151497995460278 9.652184348324457 0.6306990616625977 0.1058281487804242 -0.682228082779825
Ni 7.576994142156152 6.48429893504051 13.01426427254007 0.24554600832975776 1.3632078949748458 0.3204247599165191
Ni 7.376642705485443 3.6249765025361893 2.8542345519984718 -0.9542903922325565 0.4416209065125813 -0.6142517147398519
Ni 8.654940399074452 6.4426808842022325 8.260558636158448 -0.6759612759345067 0.8313680069740069 -0.26894896063473034
Ni 3.6680519230625097 4.463388370664763 9.916866665705824 -1.3401867514893242 -1.0887925119089055 -0.012260819645224045
Ni 5.2133987761971365 9.124840661021533 0.9536418463870561 -0.5757137065656536 -0.9162470643065899 -1.0298283746698715
Ni 8.334319067705092 1.4410157864165933 1.5857289068957037 0.15862420953553324 -0.47917623905853607 1.9212588941534139
P 0.3577243033323403 7.4775701683117815 10.54383540697463 0.6349966605966871 0.4368152575938219 0.9126099817746347
P 6.501141701182065 7.255902393988754 8.618944290165679 -1.106014789324463 -1.0518694136303113 -0.5384471089047114
P 0.08043112622001351 6.633965267687208 0.8902388858701775 -0.09801148094948281 0.7203439158149401 0.5441816973956435
P 6.010284832075282 1.9670893483648098 9.346232641966887 -0.2912170280043114 -0.16971363458047545 0.49150930670259224
P 7.374327516930388 6.30702559305007 3.8540482683059993 2.141206999409409 1.170445606105023 1.755831288542802
P 1.2628200585476452 6.514064327339962 6.89061452645265 -0.2694850356438585 1.0910669097653791 -1.011809826605264
P 0.5586752908240793 0.1439124895365652 4.347906581061448 0.6506821896527438 0.5316997628785488 -0.2866389217153257
P 8.451664999168871 4.7222467436092295 9.510474516265768 -0.7134045083826295 -0.8031221247544361 0.6909317812014101
