# total energy = -340864.15576641384 ev
CRYSTAL
PRIMVEC
9.33180744999064 0.00000000000000 0.00000000000000
0.00000000000000 9.33180744999064 0.00000000000000
0.00000000000000 0.00000000000000 13.65804347661707
PRIMCOORD
 96 1
Ni 1.716837899000796 7.098108525219834 9.152937949874811 0.5902417249784996 0.788081685481546 -0.1866587470752463
Ni 5.027688450223451 1.3491646940858808 0.16273458676522165 -0.20095665175515715 -0.2595919448998626 1.8433105025023933
Ni 6.428346056611883 3.48570995512356 6.779756721064737 0.018887838043438437 -1.4134935306032754 -0.6671318505683349
Ni 1.952512690628364 0.26056925377862195 8.566557045240357 1.0585686800273577 -0.09083810312949517 0.12217830800367346
Ni 1.229885534054854 4.895484737177014 9.521431420645362 0.5783385457830104 -0.27457530568257227 1.784631500603946
Ni 9.17952146913474 2.8856280911120473 12.854718435994336 -0.06006354095079977 1.1488084874512214 -0.9863487062196818
Ni 9.111735221406263 6.777383642485805 10.595773458587468 -0.5213335891528764 0.16421815868354298 -0.051785360102407585
Ni 1.4019640594008196 8.644416978875068 11.153677420274757 0.44116479281176924 -0.013922523618363119 0.3419451504867982
Ni 0.8747860062034505 5.664416321232448 1.2516258453617142 1.178835629940931 0.07205516609503719 1.1269615667794592
Ni 2.1757855104454773 4.816407002698614 7.396363349321512 0.6426050690715642 0.2800867224191047 -0.3292377302224588
Ni 6.54214744579811 3.9054453125821387 13.16778750407577 0.8631162459198813 0.049320443501682805 0.3683902320522042
Ni 0.9510977930184812 2.5354053657197437 7.863986741949173 0.929149888411187 0.6369751244792966 1.616002614447217
Ni 7.383512517583229 6.665084674263824 1.030877279400679 -0.09139834650833936 0.6157126155560944 0.5687935824070527
Ni 0.041826093191602576 0.5512354522397713 12.911944810659824 0.5612648781301753 0.05419859752959053 -1.1600015279535634
Ni 3.1964519263736206 5.161609215800454 5.026283080054411 -1.6040138175164569 0.1239711382380381 -0.4179927255706801
Ni 4.295701490996904 1.946335034241215 9.784677036737934 -1.1574823610761356 0.40857168936709637 -0.20906848222901414
Ni 2.031646415950153 8.68933096707952 0.43699453493294693 -0.2345152044368929 1.5456628883813897 -0.6158586542156556
Ni 4.421279620909087 0.762094168897029 11.782807333835995 1.647446177668479 0.6361431154963045 -0.937763855332443
Ni 8.187522365021282 9.13298374647203 11.039809775257186 -0.09873293249653964 -1.025638247847924 0.47644727016314725
Ni 0.9038657838977616 5.2322603283489535 12.267858809648912 0.4168277587283015 -0.19943687267652105 -1.1138119167713785
Ni 5.285479624989302 7.856700466862939 11.749071917513966 0.7037379318271428 -0.38740559681244247 -1.1015858070188318
Ni 7.299451598043292 6.470096562164911 12.18664875721815 -0.6176414571476911 -0.11694174219508248 -0.39334793043880645
Ni 0.5392002204535082 3.133788840815152 1.5291677901327025 0.11554846139198165 2.0391630002617656 0.25509251436761227
Ni 4.630442748192409 6.163052108832031 3.091716387912642 0.5108884825601524 0.5343138034626281 -0.7984391174564701
P -0.02627370325984629 8.685112990210953 9.255960168528116 0.4848599197068747 -0.6896827392856574 0.23381355038417798
P 1.9437781190598271 1.800609532516562 13.834095337646678 -0.6895310441991416 0.4857397512086667 0.09226352272211207
P 6.828027360330304 6.200407333179097 9.982431096500216 0.5583315065334643 -0.32733691365532014 2.2022642717320458
P 4.362339926435924 5.427155122375551 7.270012545770573 -0.4554768385590671 -0.44729301719669423 -0.05608810124281953
P 8.596955407296457 5.341741090787069 -0.0710579793437846 -1.5465964559392527 -2.4697461609029467 -0.35889231986409803
P 7.397930159755655 9.189711802631367 13.456709587765383 -0.4055164474805404 0.03698789007825888 -0.7285526768779775
P 7.604723008002216 2.45318281220438 3.032167326427273 0.06838183100850805 1.0084802480113986 -0.8484876973734292
P 0.3561241602854051 7.860479848791633 1.9617595784139017 0.9440538021062129 0.09113712242715272 0.14829968768107363
Ni 6.8059016453847905 1.604081672224478 12.034033582214596 0.8354935991066064 0.05186429296945906 2.1232964376775754
Ni 5.287663267881436 7.448275259768749 0.4597361491557298 0.052625339505199695 1.444443184907254 -0.9966570301242255
Ni 2.974317587038731 7.120056935827953 7.011424434667166 1.070934400681562 0.8515807344764559 -0.2689690152393884
Ni 7.9128219555522366 2.225673351904237 8.86245838755829 0.2898276038559524 3.2510149372277173 0.2309477988006087
Ni 3.1024059730961455 3.9292880800582197 1.6462035837053144 -0.7159427014234508 1.175152781772705 0.7950414046288307
Ni 6.482190584336731 5.338129681388539 8.002875761696144 -1.9073289143358827 0.7113725655542652 0.6214634019969426
Ni 4.060418635273052 2.6481056016526736 7.4247031147023765 -0.5313439222010268 -0.5839497213222008 -0.3671730718156515
Ni 3.1149199265933767 6.529670819529804 13.574360347434538 -0.6308638693752361 -0.5194458852118602 -0.689018109118465
Ni 4.2137775553129435 7.971966949784489 4.913726553952844 -1.3942254264022829 -0.9248139800399944 -0.3879552986683254
Ni 6.968499054583711 0.6738535328981724 8.044505886935887 -2.316829800385468 -3.8153576829522673 -3.3663168298265314
Ni 6.374398879007488 8.259181312750764 4.062106759201202 -0.7655500800379331 -0.6304663768265013 -3.7592441277881514
Ni 1.4782515835170487 0.3698932418552517 3.3927128969788884 -0.3922827223990857 -2.0617719959105334 1.7129478589157145
Ni 6.046227214102848 7.840061854569456 9.036816673410872 0.23789054866702905 1.9377815743987856 1.1092942314066832
Ni 2.392292770019867 1.7834763344398166 11.440086448276968 -0.5999831206359796 0.21006607025559307 0.7561107890019043
Ni 7.270634977312904 1.5579358854654868 5.535577657873634 0.22746215424485342 1.4876487737604507 1.9368042980871802
Ni 9.0907853141719 3.369640936780116 6.056550059262159 -1.7324571325932359 -0.2778197807617989 -0.48424079806563697
Ni 9.004727387884452 7.430180885547175 4.160226046335159 0.011321595660406308 0.5351224154068526 -0.7542904479637138
Ni 0.4504556668641592 1.461500989536788 10.069501523872264 0.6714515609896113 -0.4136766146938295 0.5286725460164509
Ni 6.2406180905389546 0.6276246930548222 10.17237350042914 -0.9177617011789032 -0.3977141778273022 -1.0126174101082237
Ni 2.206048561296723 2.99257993379047 5.915721889972516 0.11438503721149977 -0.6256093058445161 -1.2541920924950594
Ni 5.278284801613936 0.5104563878195254 5.9439534063894985 -0.7317272179512173 -0.6958739556980338 1.885152892459476
Ni 9.481116147044515 7.336358895643253 13.359559875402761 -0.1810264884901334 1.3345966589960563 -0.5851110886201537
Ni 7.199638587896846 1.9959149260613402 0.8477135002446012 1.5586065930262512 -0.6784439331470444 0.9800682725276089
Ni 9.392463978346756 0.4364028983544797 7.3523433482498195 -1.567213617968972 -0.061188398583862366 -1.0591613193060339
P 2.7340515462533426 6.036494139160558 11.250498653022834 0.19224626846535278 -0.05368283423543658 -0.6110702316880766
P 5.661924728701679 3.170677474800651 8.788404898093244 1.7462138200576958 0.2993175456242587 -1.0575762342071011
P 1.4710007692982952 4.630302771083939 3.126134892524005 -0.08471013585488636 0.7571554282163347 -0.2952544312984786
P 5.0309172555254955 5.503041378780833 0.9700656243969091 -0.21920865598680958 -3.0111634081795757 0.17417886944068067
P 3.9747059858531664 1.88174959639309 5.164201591849322 -0.6876081161448158 2.0580652364829075 -1.560463443729332
P 6.998612796519255 6.084356978450115 3.7560440119890597 0.1206814117431728 -0.3935577324567674 -0.5790707959633447
P 2.0342779855893918 7.79367344082245 4.779304670327517 -0.28270461965792604 -0.03647675476979525 0.10850338161974217
P 3.303721050497909 8.538864907281345 12.340588115667831 -1.2155764370053903 -1.8992165696413936 0.5129697905692133
Ni 5.335563434399919 5.770565628488975 5.342302865582395 1.3340374440584768 -0.6390024393219704 -0.04541853734411533
Ni 2.7036111910647014 3.8312387814784987 12.963531974215412 0.2823711475779072 -0.638471763629481 -0.454198743177592
Ni 8.323757418791658 0.6488097618314171 3.9164988382476644 1.3676553892232381 -1.4602001906311948 -1.9357766281536144
Ni 4.907662745613917 5.301754296800764 12.290422186353576 -1.1181128581395776 0.43218572924161053 -0.3525689487492315
Ni 4.282935578704427 6.459234338547628 9.265889211422266 -1.175318360816292 -1.1111649660668348 0.4029371167891383
Ni 5.650222642433576 1.5874057327020683 3.3127859680424354 -0.6771043884000145 -1.7333148526078406 0.37402968972616873
Ni 0.7247324122849009 7.5338759275018585 6.575883795300862 0.02989395934595497 -0.45901904738437077 -0.611678811806353
Ni 5.012962858412391 3.851404816905431 3.74478985246806 -1.030900781798444 -0.10104126891474212 1.1408668640066417
Ni 1.9216244086926186 2.643784974904561 3.515539076938549 -0.24252830454935648 0.6297151004827736 1.9126361854814091
Ni 5.2960059035462566 3.241935154819187 1.6044101518390215 -0.23133860648112417 0.09789243887311527 -1.1956673567862892
Ni 7.269487165023449 4.4958594243019805 1.8004714217695383 0.8592673044874364 -0.6269401088407976 1.201681424190853
Ni 6.0587971584434674 7.436769141452504 6.855435811349482 -4.404785910890536 0.4363773987254549 1.6022898928468148
Ni 2.6496640134603076 7.436983773018825 2.2150612207207536 0.30471351982884937 -0.0895774912495167 1.67879615273467
Ni 0.6643434881487108 5.310498200176532 5.072242230668775 0.6317555279515701 0.5694386721902194 -0.2349774887852921
Ni 2.6021371192310774 0.30066522990953354 6.11719187537432 -0.3417042381205857 0.15787576140528295 -0.09481482838905606
Ni 6.462341830355665 3.5445936587533353 10.73199824736989 -0.07532740908840574 0.845224453241125 -0.3423123040182298
Ni 3.723185785546778 8.77500628927048 9.91598489629016 0.43337075068864717 -0.6025861054764654 0.36480431447315886
Ni 7.225739652722913 3.9929030099542855 4.567385860368779 0.34962580696050755 0.5621951032539285 -0.6040094681865532
Ni 8.339845454458493 4.738299776172273 9.223031020350877 -0.9761686803628865 1.4928493441247839 -1.353042781516386
Ni 3.0980013600829515 1.4886005577366082 2.119864655611654 2.3166104852858105 -1.2880962014416721 -2.2692769903071692
Ni 7.651951284400043 6.31625238814899 5.990526589919685 2.6208406377203377 -1.8760997811182722 -1.9197319159859263
Ni 7.78548011407333 8.826881805669517 1.8985365844215527 -1.0403668123073502 0.2580698518283814 0.19820531426226512
Ni 0.2886943875931667 0.9547558614531677 1.473703260672492 -0.10672546378371299 -1.0110300110164459 0.7334166898384983
Ni 8.398794480738887 6.961192249521568 8.14173678602142 -0.42943130642492494 0.7188879000947037 1.0149339740565424
P 4.232497160619018 0.20587086569210475 7.991129815934053 -0.08414963536572603 0.2877768919745108 -0.5415779412242092
P 9.32704800965504 5.130049043744052 7.2206930113722025 0.28236497693032014 1.0749142112649166 0.5347830297895628
P 2.3736664827861063 3.1207336424985037 9.67433308213092 -0.2479546177712504 -1.3438145780498987 -1.0921552577335512
P 7.140092325953646 8.643567784417014 5.80472284249786 4.262621903793556 2.813149641102826 1.4137853508120812
P 4.8029038776348605 8.893464250265149 1.8918167500342629 -0.8766577320497417 1.5008778708562152 1.7464197654209148
P 8.794883038673243 3.2837696466372974 10.448758301103444 0.8875684654249746 -1.3153604364742637 4.30676543107999
P 0.375884262097774 1.4467100750751094 5.410074182419301 1.5021603371130647 -0.4424516299439928 -0.3633886650725548
P 4.617602181442082 2.9020707354536737 12.15606842492104 0.7099314622323645 0.8320611763862896 0.17783343547413244
