# total energy = -381174.74990170327 ev
CRYSTAL
PRIMVEC
9.18153066537372 0.00000000000000 0.00000000000000

0.00000000000000 9.18153066537372 0.00000000000000

0.00000000000000 0.00000000000000 13.43809821211228

PRIMCOORD
 96 1
Ni 5.791039143119178 -0.058317408675125325 3.431364705253576 0.3343753085593403 0.931379291962338 1.0455110755124508
Ni 3.8920874751275782 9.12354906469896 9.151425109235541 0.10714969580532513 0.8904987516978923 -0.03835186030532104
Ni 1.3584074270238666 3.650833581565705 6.281679011744208 -0.9595593539409797 1.0710945804085104 -0.11416752188405499
Ni 1.7364569424527798 0.818088133551653 10.214970440979627 0.6018106607630216 -0.731114781178199 0.29774325915860334
Ni 0.5240037138992403 2.5501884398157015 9.076468012963286 0.28131519550956713 0.7486070244256914 -0.6379979093168561
Ni 6.380025138632217 0.08449578823531761 9.644173057247153 -0.4025992738337454 0.564565403258318 0.31640689700637764
Ni 6.437216891676702 3.7701292064343845 2.355080000038751 1.0754425729645607 -0.19558870257502445 0.10915695604334104
Ni 4.655807176241773 7.47938486612211 0.7954519884311079 -0.3021781550015054 1.4969631091828413 0.6406934538711482
Ni 5.678014503533752 7.01400063324912 10.45903296469984 0.27131617531532626 -1.4795307726390068 -0.8433575752357153
Ni 7.298481172072422 8.494880494670225 11.679413526626092 0.9066828176569224 0.37800127277940704 0.18721719068187756
Ni 1.7655348493225642 1.533701205981215 5.31502269800899 -0.026822005288850582 -1.2603190313284036 -0.011935060874689122
Ni 7.865991567911187 8.068178049496131 2.713407588105398 0.6681366376837655 -0.29948749554321974 -0.7167934794595203
Ni 4.29958215864345 1.0300391727482223 13.090951715785536 -2.4925078800794944 1.6048303998804814 2.3844279591504156
Ni 7.590655833395528 2.9970443442822416 5.208633550464863 0.5016538513357619 0.6950044086088869 -1.4858924531909765
Ni 3.248489736620704 7.440207275780029 10.507208454862695 -0.7297682944526335 -0.1113652765485695 0.92410564111906
Ni 0.10325273674945792 8.72073696170206 6.203697519348522 1.4579998405457664 0.3842166575614996 1.2444213862615408
Ni 2.3380767238366182 4.863199585580166 8.405812304281087 1.9402634602803743 -1.0981613547183153 0.4436407651560875
Ni 5.311790799297855 3.2935343249071463 5.715720294548007 -0.20814468486316412 -0.13310292533597723 0.2056599707680974
Ni 5.633236179629761 2.880374637116359 9.914641662482207 0.49440539730346467 0.18775815078701213 -0.5123457838319693
Ni 6.417320515236278 6.722854303334103 12.830507505473259 0.47670926557528226 -0.3784594433627482 1.097324974859949
Ni 9.058819275171968 1.7451151256476667 6.53268919954032 -2.020888884542926 0.915769610449539 1.4996938778504432
Ni 5.965607581172606 7.618852313344094 5.192441003399642 0.3982140002818561 -1.4230953153590975 0.8717659511750793
Ni 5.1899977981523895 1.53750235957897 7.768685708420826 -0.25523598192401203 0.7402758788521767 0.3127330476992162
Ni 9.121088414543891 9.22303094690108 8.895939843508158 -0.5101711447781536 -0.5042203265113575 -0.27665635658131704
P 6.344979236983348 4.992135817399673 11.583183742502051 -0.7281220170984622 -0.700339447668555 -1.816207218527698
Ni 6.882713929639697 7.885722676803882 7.80565330438856 -1.5968090722379016 -0.1683434937058262 -0.43469898258176753
P -0.206431103102438 4.943161534089465 5.049889480106436 2.2453320494557976 -2.319061003708832 -2.5190684041768425
Ni 6.717529015685074 8.96980433765932 0.7009501683338734 -1.0791508750540835 -0.4265578415318719 -0.04458395725796193
P 7.333196538625834 5.700298077885809 1.5542641615308104 0.05690648337905683 0.31507840800294123 0.07497773905847088
P 8.186105626330836 1.807466898793453 13.339502171579623 0.5340662062281963 -0.2890534446940893 -0.45735245831522525
P 0.8671569866252836 4.622570036087489 10.22968476164572 -0.39490061963790696 -1.0877787259324105 -0.5617819269759099
Ni 4.09862600213604 6.57719850460273 8.43263522727742 -0.8371758719050356 0.5018757375385807 0.789053305366196
Ni 0.3803614247910262 3.408477904352309 12.211683372370885 0.7045308600420834 0.5990372117829426 -0.45278540776983306
Ni 3.6970809503383935 5.294685608107957 5.9338743757026515 0.4728731796586436 -0.6596869642545155 1.303726451779761
Ni 4.734520436612681 8.438028458251626 11.935087013727275 1.1089227069998773 0.33260896068753687 -0.5042876894141831
Ni 7.678963793065116 1.551384833588163 2.6223773046635044 -0.3643692838182693 -0.578339574224275 0.9702039781390195
Ni 3.0817898701452373 3.3894904994243915 4.523344318584349 -0.9250839458719293 -0.5289707939831599 2.0946170674650118
Ni 5.786071935156894 6.785518248514488 2.8525591906806116 -2.0918742146125524 1.19338138896559 -1.8106973444530623
Ni 0.9229366202897338 8.864795174138726 3.9014967075115865 -0.5259358638115781 0.14971610841262603 -1.1085848640444842
Ni 8.035243899846016 7.146012677762464 9.974414343730388 0.2264177721407391 0.37286703687663525 -0.8309841412720268
Ni 6.772627379791666 5.306428785527108 8.783288892211207 -0.19070360656858124 1.4838211724842445 0.5066410201377081
Ni 7.851319482285069 5.620850295080555 6.498516461435284 -3.4908181295364265 -0.07380377335502773 1.5423397375454275
Ni 4.496608620127094 8.437569381730158 6.890061908442314 -0.004137419207141261 -0.42149071142160954 0.772183783304367
Ni 8.54403840858902 7.90112010333392 0.18869881338421432 2.0657248099106944 -0.7369357587353501 -0.42835709952413964
Ni 4.038367617928148 6.25206214903822 12.402423239969547 0.22884000842898655 -0.7660357614251 0.6120914738637394
Ni 7.653595224488794 4.388670548399534 13.223706546110616 -1.2254116779282573 -0.9690379828553762 1.4699102188301072
Ni 8.939542013364148 7.092860798106897 7.756712074587896 1.2558000604121276 0.1483498241927187 0.2604866887999901
Ni 7.069603981529327 5.483457873735605 3.870534750597698 1.0229133927175933 -2.0180305891585246 1.8773259402158895
Ni 0.4966078634041149 2.3466889993793583 3.434805024705457 0.9002072372349077 0.2347877413719892 1.0466804132302039
Ni 6.274070277477398 1.4031122986844224 12.02903243308049 1.5733323292722001 0.2537288012508663 -0.4899165082941756
Ni 2.1544093891276934 2.144566788507419 1.0069384421879517 0.18439591918299855 -0.5206712729785291 -0.534489409808544
Ni 0.018951596959242742 5.0809671243037355 2.788405083111542 -0.5375842466837839 -0.5975827387246031 1.4876292333764252
Ni 6.481159696311622 0.6364701164345614 6.091234789425373 1.1491612428049498 0.407517279960653 -0.4973027734559178
Ni 4.470422895342558 4.704359109152232 3.3065115000160046 0.913588029417188 0.8969979862689907 0.7548956856478806
Ni 5.053275628528785 5.0305513407161175 0.8109513299489113 0.7210774515468549 0.5281953492697162 -0.2231090194824803
Ni 4.71556975780648 4.222631752114981 7.976492204781581 -0.3620352363684539 -0.8862307204501577 0.12032197152122504
P 4.054389388527381 6.591025889429346 4.395306040440833 0.22840832020820662 1.3110111583666326 -1.4784277693828152
Ni 0.4472112296941561 0.5699040208216987 1.572876041864167 -0.01765705096013088 -0.6394984051217826 -0.4353314739594438
P 7.995809226651914 0.0061681521424442965 4.612076464959773 -1.428464807201127 1.2682845660323834 -0.9428636384528536
Ni 0.44077130425100275 5.8427127963756185 0.7165073534933816 0.9143986982439413 -0.13164073896815393 -0.664860538035655
P 4.394969078274075 1.4674840085246679 10.971454177962444 -0.6631736372515352 -0.9009649413365386 -1.7562647765357948
P 2.1909794248278356 7.751617243352644 7.581089596841177 0.4350514808251798 0.5962779038702505 0.003232390894368627
P 3.049718784355482 2.546965722634996 6.819673541711708 2.4406461582131964 0.27246185888399527 0.8068479103454557
Ni 4.111480144737144 3.0307589240188526 1.566371845708008 0.27752127568477364 0.1675343675409695 -1.1990588989663413
Ni 2.6172227934804617 4.493945976302579 -0.08642574593156915 0.5423243324719306 -1.394954077038191 1.8442219585730688
Ni 2.2181383918378836 3.9953613293970234 2.6171236329518246 -1.8129892258110327 -0.7662723029159384 -0.8936684076751253
Ni 1.6619947306706675 6.464146320426017 3.907234245876894 0.24383082541086398 -0.7992289603476171 -0.8392551230315675
Ni 1.8626846227956264 0.9154472459185045 7.633740164935301 0.8369778969616166 -1.3486451666693224 0.8704189502288816
Ni 0.1236247164661227 3.138063470146787 1.309626874005718 -0.7844255767861975 0.43813937572188416 -0.7327353475007574
Ni 2.5388033420832943 8.365944262850718 12.989319519156862 -0.6445002292117481 -0.8880595461287802 0.11130125607985347
Ni 8.641362631140241 7.068970455929701 4.796554528805611 0.17573695795641991 -0.29220356028729677 -0.4691131983955792
Ni 1.8252423417046948 5.711462818887911 11.754438566223524 -0.41027787342492567 1.4010774163271096 -0.6871813130200424
Ni 2.60661812583455 8.020838078602349 5.358589059896305 0.6592552760337356 0.9583241959822979 0.77638085210485
Ni 9.378749702983031 4.808900014620928 8.127804744410483 -2.6683271133370754 -0.3470449336072088 0.5387214456120206
Ni 2.8335947395787677 2.785713058389654 11.655064107927426 -2.1997625883561147 -0.13868736140229018 -0.6097414855743241
Ni 3.8677380564289146 5.035233921235092 10.508391035981997 0.39205672243120865 -1.0189492658635226 -1.2437528994396063
Ni 1.2723305792486133 1.2054247670098641 12.449429921308742 -1.0328159965432857 -1.1025466282702043 0.9184710685411019
Ni 1.4894186847204098 6.003371215828566 6.362805178311951 -1.0048562781055663 0.8522530779531323 -0.2869163437464285
Ni 3.3979742335411203 8.140519327749063 2.831675799719032 0.46607338312799085 -0.583248324379802 0.002953426201369107
Ni 2.7676988956872486 1.0897374835999236 3.3441778104494126 0.3633783806599097 1.0784829024527813 -1.5524822252960682
Ni 4.79954403511341 2.3646021652470406 3.5743321518752316 2.2450515421009016 -1.6955144939306153 -0.058108474106957984
Ni 4.188302009839602 1.0472729053641319 5.473081826197386 -0.508250273606357 0.3332342529763616 -0.16809358247854922
Ni 3.219356740568344 2.5715171350031056 9.231368694683981 0.10177737574981827 -0.13740335248354402 -0.7207907735443715
Ni 8.42073963645314 1.5690317350733936 10.83003198291205 -0.31317013523663484 -0.7136423354250484 0.619686769712494
Ni 3.053804565396547 5.877327166094307 1.8860910983191947 -0.16069883267637486 1.8322987247729217 -1.196148667298082
Ni 7.1734011830332465 3.411792436837308 7.494695986266111 0.17469386140388624 -1.4885316905860366 0.811433729943925
Ni 4.819798491240579 3.454302922725246 12.251325548152693 1.9304716710009333 1.3193734142883986 1.1852171079872427
Ni 7.871344400151504 3.8344641901529126 10.250487355139523 0.33278251015092364 0.5802833282142071 0.5948062044207304
P 4.813050066374999 0.5712380971930848 1.757958250412256 -2.3080955058362638 -0.4782411288387763 -0.0006602592918182178
Ni 1.3192849258643622 6.82825827266316 9.44895811171722 -0.4563530705164334 0.023575216216778754 0.40689867254004763
P 1.386796719111449 7.597826608660859 1.962755041098268 -0.6924726433259687 0.07635379347039108 -0.6217706488247162
Ni 8.651783668177565 5.8613604846776495 11.816993251191798 0.30521102829055824 0.8108799143229841 -0.5137382933041218
P 5.608124693905461 6.057569789953081 7.095168116703795 0.8324908077245405 0.48750095687414746 -1.3394791838993383
P 7.586726138371762 1.5141353646362479 8.623980157731376 -0.18463503177699814 1.388967006216821 -0.4817388575793897
P 1.0162209694520352 8.071538489633278 11.329713822703914 -0.18155202197630024 0.2690160664272399 0.2195184739177445
Ni 6.115486883901485 1.9402869179845803 0.9093883539881696 0.9567632792530812 2.7354177363379857 -0.7298089178825817
