# total energy = -381174.9034960874 ev
CRYSTAL
PRIMVEC
9.17909112967890 0.00000000000000 0.00000000000000
0.00000000000000 9.17909112967890 0.00000000000000
0.00000000000000 0.00000000000000 13.43452770503601
PRIMCOORD
 96 1
Ni 6.5102794158243 7.699522435734313 7.846421853129604 0.19072854626924574 0.4025995309440615 -1.792181545037062
Ni 7.499592656352868 7.559054807348368 5.622376771806737 0.6696505032251306 1.2061661994350839 -0.9070507425193024
Ni 5.567164539908322 4.704284097745302 1.8004281994345435 0.4132071312565787 0.9919079454750143 1.2268921191285258
Ni 4.726323095050057 0.6242240781798425 10.416675624682847 -0.03374881431567091 1.159566240188358 1.1113732254228987
Ni 1.7943745889712008 6.1802819180720245 11.44760135599916 -0.10992005946161068 0.033697392252445196 -0.5891860300204755
Ni 3.0107968971025287 8.3193038339077 10.819684529541224 -1.5102364292529797 -0.10212550311785638 0.18530840369493892
Ni 7.909613468766887 2.5330527518628214 13.138497299274533 -0.13161399949527655 2.0178596107982987 0.40338166052572466
Ni 3.5500684887952825 8.765196533646574 5.057091636439817 0.39271081107543976 -0.07545802112899908 0.8296631084677583
Ni 6.577516256831099 0.9663287968588034 8.698467296367786 1.447497655462862 -0.24737174868458686 0.5134035356725223
Ni 8.970037126671519 8.724028310859477 7.440001080175361 0.16524197196236703 0.21919502914005473 -1.4715477544335303
Ni 1.3658120128938733 7.4991612390795135 9.179852786976422 -0.6845829561652468 -0.1735144963838044 -0.39415525683145025
Ni 4.540868742053284 1.8234447699225362 8.120996917801339 -0.6381490901827397 -0.15758625518932215 0.3676973197502377
Ni 3.835593291028386 3.5759627042874573 1.2477588066314107 -2.7748044656657243 0.12167437178406139 0.10121404704718052
Ni 5.0534750746163795 6.6994604797355795 5.451220688739833 0.1133825640889144 1.0461083427768176 -0.9400907036934067
Ni 5.812824550265312 8.662363178042593 4.144162201022249 0.8579305879538837 1.4064556499198875 0.9527968384061655
Ni 1.2473191281762264 8.66880689987014 5.496911449624413 -1.0767692621957843 -1.9836919637776544 -0.5029985382891143
Ni 4.300688648976984 6.128401696178451 12.178600291425075 -0.5413079753922742 -0.2669324444253338 -0.242591296576808
Ni 3.231049183786233 3.392867377657749 3.7692982247502282 -1.29413855098101 -0.06804835892848926 -0.4862578284956658
Ni 8.72971016814046 6.412586351136879 10.613437699786962 -1.8962888544716372 0.3150889495259025 -0.12305659684356872
Ni 1.7491583870873115 7.2003726504635 2.7855952445934498 0.036345885618885784 -0.47832340413993757 -0.006411559953298636
Ni 1.6221840223573392 2.6150036756182753 8.453085412465745 -0.21320847253931666 -0.2455637489415706 -0.3421631800348752
Ni 7.743609609434743 8.368356895797165 2.5201698977531914 -0.4288422666906743 1.2628865349452638 -0.07215106824295316
Ni 2.7921142349665593 7.270271427837802 7.36903936407224 -0.04434535888459459 -0.13075576526003935 -1.1891583520231777
Ni 0.5092284271036412 8.35583661577897 11.29693300387112 0.9291288053652643 1.6666973125886069 0.7121554664668768
P 2.0480020502488605 8.457678629563329 13.128058837077544 0.8242115984348838 -0.06218264417633161 -0.8936059298683062
Ni 6.676219021519987 6.349250623772113 11.934414443070228 -0.2288790891970381 -0.9952802043813568 1.1943185560678786
P 5.760063135643185 9.18083494970512 1.7988163510685649 -0.3850399247937433 0.23798028016735792 0.3552187276672527
Ni 5.57811519537878 2.1600053176843494 0.983926949975286 1.9896481813610893 -0.8396598146691538 1.8472702584810896
P 2.7230782921389647 4.76622460328986 12.810493500070608 0.5212186608415669 0.17826640924649298 0.35646417003857966
P 3.0238403853033016 5.731763998329334 5.76840968301895 -0.4773615544473004 0.052067153008884516 -0.22225824144641076
P 2.5197338909343756 1.464312837582468 10.466289529027673 0.055166617869814666 0.008595454978494874 -0.46058844875401966
Ni 4.360958559973659 8.467564510486786 8.785093131130035 -0.7781567130583501 -1.117699167640927 -2.037342659223575
Ni 4.513395722922451 1.8917739227491042 4.940385920724768 1.4492773730711042 -0.6346045673645909 2.63414223992525
Ni 6.49320630670858 1.7899227298738225 3.859847202972722 0.6438823931220911 0.10664961624045503 -0.8040929733081379
Ni 0.4582550993932038 1.1652396971478585 13.064890169167567 1.5631764717851209 -1.5017983257879557 -1.114004749508475
Ni 5.731965938329627 2.688812745725534 10.16872818486799 -0.33754136499214765 0.7846657178214614 -0.35478601100520835
Ni 8.70567930810554 4.963125282666903 4.18672289190228 -0.47737569551468756 1.4820918484979637 -0.16011493514844682
Ni 0.14639915694001832 3.9345163538994123 1.3310544672070006 1.1063099519673785 0.06865719615708177 -1.1158379460624717
Ni 3.134338281827512 2.660219877502165 6.50886767164043 -0.16277654114100998 1.4028036549895968 1.2942074565457324
Ni 1.500331590362083 4.050347302249555 5.510937100553885 0.010516069039975439 0.7690303252770497 -0.1595086690230156
Ni 3.683431500807266 1.1252372189079092 0.24188740398787165 -1.2156610262993968 -0.8245877508273799 0.5202501262807104
Ni 1.3138124628183083 6.132862734366752 0.2728631642147034 0.7284202650651713 0.37421069538872326 1.1548043000233401
Ni 4.53915225205079 8.455457289560101 12.506443456537857 1.2864643222652037 -0.20976010897940003 0.735031856844418
Ni 2.3434678079509554 4.722945189590603 7.832893708928125 1.051901552419827 1.02376699896714 -0.8532149276457692
Ni 8.854196999230455 4.875299740721093 12.342810556390978 0.43698752150562803 -0.4340322955320461 1.6816433923754779
Ni 0.5878115423996556 4.819399077003496 9.577636035372656 0.7687410761714051 -0.28582645311635935 -1.202661271605619
Ni 4.804464696072703 6.120360812530403 7.606911833690641 -0.31228336175630733 -1.0652270658841396 1.1840169170315544
Ni 2.299371455159602 0.36142945879795246 7.5490890683338865 0.21730501120619353 0.6811513047758785 -0.2553223709902313
Ni 5.3627461850658085 5.028673170943974 10.40665389321374 -0.6543444689956796 -0.5973549389845131 0.1584401185491852
Ni 0.7303949512432198 6.260332770006535 6.469517826765066 -0.35943610818271005 0.14836190837757676 0.004036631963218854
Ni 7.543083189143341 5.389668458741296 6.359072251059113 -0.6608115647772619 -0.08119698049530533 -0.6265716697577854
Ni 0.38717130138081474 8.411204892223067 1.0709438140108287 1.4282274943793403 0.4960182503165393 0.8640287304318217
Ni 3.537566566958933 6.485248034878834 1.080932500752617 -0.5784763569124554 -0.7061575970122289 -0.13210842263319184
Ni 3.8263407673785763 5.561776413536855 3.4414963655465973 0.632853131891123 1.5116963016279579 0.29365057714646847
Ni 5.982601015966575 7.316974642451126 10.03892390640663 -0.982603894465269 0.5204902673159746 0.6450725567754503
Ni 0.9512842668369409 3.1328604481890006 11.068572826175632 0.5456927347235312 -1.6882146178350925 0.4353687549552825
P 4.605443646692578 4.082795388660344 8.267648499741725 0.5504053097078521 -0.4588989768667387 0.09627418654340195
Ni 3.273227106574798 3.5315267251319744 9.858914590145044 0.16047771780450426 -0.12712691025820042 0.9414526170379399
P 6.833814833567185 8.646437455292176 11.786877078855827 -0.3902602926524182 -0.6891044981846842 -0.9027608568946969
Ni 7.700164972098882 3.6620258607761595 10.87124623697979 -0.6514190678187685 0.6496820305230037 -0.5326454146212698
P 0.4265128850743491 1.6218352169022872 6.53552099795189 0.5240715569093297 -0.26892093561027236 0.02583701566776195
P 8.558419152436997 2.606448762878571 9.244714997161587 -0.28532945887528277 0.23444141377616398 -0.4071329000380408
P 8.53410374058348 6.507801061275243 8.29877663287787 0.14542699411896892 -0.3955842759684929 -0.6994513886366469
Ni 4.063234745904646 8.086512909023956 2.8835737790085583 -0.2667061873471407 -0.9157084181943003 -1.4394097362484048
Ni 0.6103774195233571 0.7565158902811784 9.308864909891172 0.49920796089843056 -0.33659339925658155 1.2945051902918094
Ni 8.865716758338104 1.5814655750254405 1.8451248647722234 0.8492382023862084 -0.8258293365439648 0.5168035624930067
Ni 5.942240553180651 3.8278553173807772 12.80009542587368 1.7009330938430254 2.4724669022682195 -0.23298102718055358
Ni 1.6652431378744577 5.050675451885038 2.786670116140466 -0.3440917645161558 -1.8717145075663828 -0.1577510629019606
Ni 2.1029848048742155 1.5265011785819305 4.931895261621519 -0.9248098662749363 0.4233239079756064 -0.6488777894541534
Ni 4.740725088707349 4.3089957262617835 5.514913482741482 0.5081320028609378 -0.5403594954360759 0.3331982575321036
Ni 9.096378134127844 3.9754642785043717 7.408443365584047 -0.5164119834815429 -0.885535494155346 0.22403153129674963
Ni 7.421579562603136 3.372710093992093 2.327773398291785 -0.5341556806182092 -0.28127482918993496 0.8019995811142188
Ni 8.109148547238668 1.2301542281512825 11.064153093896481 -0.6496635185802424 -0.5735637501021864 -0.26253945756396074
Ni 7.00174630199304 0.9573241086638997 6.339632772303591 -0.6374145260095603 -0.8492762547129954 -0.5090113201420976
Ni 6.812234790808553 5.046700905515626 8.599427659042044 1.0974252478832391 1.2360753282896906 1.0496225265776633
Ni 8.028418442575898 8.343499917579225 9.44801992827521 -0.1723310175986645 0.5119418635253312 1.839431222052645
Ni 6.472856262133553 3.3510933348697702 7.189017197083362 -0.8220888956649262 -1.443070987150076 -0.18096503912457865
Ni 5.849449123045807 1.5471174167937078 12.262150212819217 0.5614718519346589 -1.4055318525540375 -0.6116075922487854
Ni 7.984551567057605 2.935170366992629 5.387876700193237 -0.1944605025078522 1.6391340582583576 0.5678808407847962
Ni 3.2588618292811953 6.111934407063611 9.637889424005671 0.9061482853096909 0.105679796128018 -0.21185350117331903
Ni 8.785675085494516 6.2292982635978 1.8112430043593504 -1.0850816387162217 0.05227798346810997 0.971628626400688
Ni 6.566161721360053 6.531859458582932 3.5047191900930175 0.08955615109327802 -1.7691259487691788 0.20040900678180323
Ni 4.0146406385613025 3.0840919381181306 12.269713783739299 -1.3223926607306968 -0.4135087216573975 -1.956797710489972
Ni 1.9110132973225171 0.14036482256761293 2.9998086073592876 -0.38943753964080674 2.202402339971807 0.17310132010578574
Ni 4.107716620514742 1.3674367119871433 2.9002999184874096 -0.13746197363562132 -1.1731156967380183 -2.2228978888219975
Ni 5.7713534174777745 6.9564566673817705 1.060151956813328 1.1127001717644385 1.0216525237272986 -0.18559456747679007
Ni 8.791650673685016 1.0480502433411965 4.543798707875724 -0.05780071305855207 -2.1797452646939233 -0.8412420715546093
Ni 1.959460539211102 2.8076085404436206 13.29451247186489 -0.9337341653477595 0.4530234919225682 0.709072713776495
P 4.903075669852366 0.04505373197456248 6.789232906866036 0.4404849931359253 -0.09189045565340949 -0.3698529326406598
Ni 7.591961848305279 0.2853926233238202 0.21487701103952955 -1.6851830300976205 -0.9634034102774182 0.7997161843966808
P 6.460363519388126 4.207016026113588 4.128484313726739 0.23564906093101998 0.3878923066408739 0.1674466929231697
Ni 8.54453118787136 7.166162178595603 12.91033906157934 -0.866159146511263 0.40117231157923167 0.5524588498027712
P 8.967577130304308 7.278964026941344 3.931479910622272 0.4720128885408774 -0.29130213151894996 0.7353069648826756
P 7.365412705248788 4.935698158990682 0.6858075170875167 0.6370810539295415 0.4431000621612691 -1.053536774030405
P 2.139352363108882 2.108418826700294 1.947791160921417 -0.3500752357931003 0.3989341662773323 0.45365109820423805
Ni 0.5314253047722612 2.983204549789704 3.6267845769976748 1.238925653254292 -0.6064671856984265 -1.3377508883543219
