# total energy = -340870.5337686631 ev
CRYSTAL
PRIMVEC
9.25187815887814 0.00000000000000 0.00000000000000
0.00000000000000 9.25187815887814 0.00000000000000
0.00000000000000 0.00000000000000 13.54105887969423
PRIMCOORD
 96 1
Ni 5.588273204379858 8.443430569165894 8.599222020804069 2.335888873899448 0.3910334233730169 0.5047381466880404
Ni 3.698688106797624 2.0592182841790985 4.404622140817691 1.311384225435335 0.30728899386550945 0.0690747433104746
Ni 0.3488087603579494 5.397878803126689 7.571943426830351 0.449196147756678 -0.5079828788775832 -0.32294264124236643
Ni 4.6478752977285565 6.901817862153315 6.913631585412958 1.919579963789094 1.681333317334227 -0.5132559543510644
Ni 7.17038138222606 4.601495632366676 0.787473612063925 -0.9570813247141323 -0.6918967162178407 1.7200096508585023
Ni 3.0326268922090542 -0.11784117249436894 3.3242895765564855 -1.198874550869677 0.983591712299835 0.3626026788361497
Ni 4.130204957414713 7.106626689625079 3.0594804686528723 1.2339261431571718 -1.4326706177523583 0.8667296743027525
Ni 7.334602220082309 4.035919066789752 12.097189705101686 -0.59546106439591 -0.7470260530918167 -0.6745682522417222
Ni 7.789822382619833 6.475981664744325 13.215382805288261 -1.1172371404028434 2.8222703724571714 -0.8029429188640945
Ni 6.322039663556148 2.310517799551011 0.5106796211541713 -0.36259702240919495 -0.492506637618855 0.08192665957247827
Ni 2.7530443852131103 2.087815839661559 12.582392429286577 -1.5690442434198075 0.40458982190121284 0.9489607524895269
Ni 2.2667564157166415 2.88998143428975 7.465145296142472 -0.1436231081410107 1.8970627565231843 1.20949706358053
Ni 7.651710345013179 8.986423300083262 5.076434322888595 -0.7795114273140317 -0.5473685797640573 0.11873662931197616
Ni 1.7784792924095194 6.7936911617574856 10.693726043208517 0.8885046040859987 0.18746993012263197 -1.4902910964793041
Ni 0.5829330890596454 8.433891882752949 2.9996013878252983 -0.5067613477656563 0.6776427774019878 -0.04901448222548978
Ni 9.05466515360595 6.805644588377783 5.401257589041343 -0.8090755141243937 0.3289690499421044 0.3949078187267586
Ni -0.05548351349993959 5.117380360190026 11.402871404148016 1.437412503312718 1.2290289629658704 1.470119763737752
Ni 2.2999429027808875 4.170210078704314 11.599758773514283 -0.07638978891464908 -0.12730585903822592 0.6506330815823633
Ni 3.947887445820614 6.74817192106719 9.357358852318226 -1.0361052088175187 -0.653693465675242 -0.7665047306417186
Ni 8.817252707395852 0.5411405049039131 10.96209619902711 0.4886983196163584 0.30117182522417807 -1.6856072621192326
Ni 6.260403651060468 0.0024313935880914 10.831072950488933 2.680809304964486 -0.14100469668155716 0.10217975339455951
Ni 2.1595549031397194 2.7900241423348815 2.915444453441748 -0.5480890028698495 0.67371233199933 -1.354532478688035
Ni 0.7418526007135495 9.063676482962117 5.334648692019029 0.5143838973079206 0.46779062292941376 0.45909412359668034
Ni 5.453584361703167 6.461724520454946 1.019447804274478 -1.1489578685448922 0.9009428298493516 -1.8638417896865258
P 5.276743961997006 5.198510080030108 8.257527029585706 0.49677852552133145 -0.49747040938203363 0.9172461949950653
P 6.093786576753245 5.503905327173597 2.6437834045512987 -0.015158967128625505 -3.1255687571060493 1.5663096180974636
P 3.5599006820831676 3.0960300134388503 9.971920412155077 -0.05921224869409803 -0.04610476477786253 0.6522415637200638
P 5.886063407651921 2.199782069505859 2.7950775182017593 0.1714568425238273 -2.054658524794203 -1.2126014135374663
P 0.06926696162603764 6.243759522198305 3.2202124232440177 -0.67264840951119 0.7422882812965151 -0.889260508415417
P 6.548812449848798 1.4245949516770382 7.925608498049749 0.25875787903434144 0.31932844152854684 0.6326060488773235
P 1.75169510505212 1.0427051756661982 8.201169213596899 -0.5541395799393037 -2.227737476302486 0.14964334619316166
P 7.387680245253088 1.839550940335666 11.956335410799788 -1.3749395815894772 0.1261084962960151 0.12607790016839576
Ni 6.2921098376144595 4.985494836604627 6.2859490119283485 0.21962080382356372 1.2772299481511293 -0.16289841143085496
Ni 6.778832645385815 7.379547844324882 3.1193725021099104 1.395182133888597 1.5142396368751017 0.14606231371012265
Ni 7.952488904940316 8.868156541192194 7.340242165026376 -1.0908288256126437 -0.47914101494522643 0.8022582340922442
Ni 8.076399309526725 2.9178480913952725 4.122033698598114 0.72097152209661 -0.9735291858575105 -0.6809708133339563
Ni 2.150617588809064 6.978987778128469 4.663093712161781 0.18139492757314565 0.6154894438016948 -0.43709242251460845
Ni 2.9070604014268 4.971681782468324 0.5610348185739015 -0.07858653945565175 -1.0882086143809775 -0.2781501675180242
Ni 3.3383181994545943 5.188582814733221 7.341176604723472 -1.9006275910563075 -1.401188230873361 -0.11794087288355816
Ni 7.961925820693182 2.290237682560538 9.578606416956355 -1.5371160272526432 0.049583467355082345 0.4787671765455755
Ni 5.544206508565249 4.569021539922989 10.447305968393527 -0.7250927433538351 -2.593248329924366 -1.7342533052617102
Ni 4.628649894851638 0.8819547173186746 12.554362939124925 0.641792857582914 0.16386977420518875 -0.5981026157838151
Ni 7.5459983848247 0.6836222045792707 3.011599223460903 -0.057157165937282206 0.10137628365665767 -0.43618328043677784
Ni 8.688429555491041 1.830465595953985 1.351432949333396 -0.4008241842111936 0.9312113989259059 -0.8615162484226131
Ni 6.125751815896532 -0.1901307227247805 1.195181679349224 -0.2951819261893303 0.1989077396459284 1.1065243819710298
Ni 7.901150232869086 9.26251784900192 13.091725902164235 -0.02863489012787326 -0.29983202336683196 0.6242841592751893
Ni 0.8222976815676389 8.014874319569312 0.1082645533808476 -2.2943010231553327 -0.8757976980422917 -0.8276116252553681
Ni 3.4213538062016275 8.768800621319617 8.072055552716948 -3.0942696898824518 -2.94604096464863 -0.2409889850866946
Ni -0.1396978095282621 1.707804194923103 7.319511481568093 -0.37255207673937774 0.21951564570426713 0.25047044221456866
Ni 7.505623188407536 5.165110799767513 4.293098150750828 0.8537890549816844 1.2060273598643745 -0.7562020631641299
Ni 2.9868578508076533 7.982603768445786 13.079972316112823 1.0853091813459954 0.4805420090578111 -0.7816878661400601
Ni 0.21266829799339027 5.2759112929599885 0.3172265489716906 1.3730693611499576 -1.4539629514722314 1.0973941375349876
Ni 2.0657686139369704 4.671809906603718 9.405267853144762 -0.4889749703165127 0.40691615604154435 -1.3184406180614843
Ni 4.033587593486104 1.5495785741333803 8.400344572439328 1.9836464552517001 2.21801639235998 1.062372370044164
Ni 0.5160734661384075 8.312729285988699 8.673901331170722 1.4354384103054825 0.8119124693525566 0.3005879276962501
Ni 3.824800458393034 6.05775976308495 11.642074088787698 0.8116219346953313 -0.2037370427137717 1.2774780596061934
P 0.502265963129018 1.5475894203227272 3.3356370051553976 -0.9900238410784241 -1.5651413088209754 0.4282164601812174
P 7.959807140587882 7.938518568874799 9.746637178250868 -1.96033760532243 0.14913915286323348 -0.46378818663824
P 1.2661380339325885 0.5503442733264143 12.250460945121155 0.39143194436301615 -0.8899220532588157 0.3162009516431587
P 1.114731047368221 3.08118074894537 0.6746682368678747 0.5793384478024345 0.394874651495978 -0.19091032326274862
P 1.7603363592807246 6.06888052066823 12.713307430849941 0.31275027409039685 1.4334108383524926 -0.7663149832284157
P 1.9343271805046474 6.843438510780193 8.083335442605081 1.128629184289869 -0.9431552015513434 1.0528220073515675
P 8.416979449423302 4.175816716886899 6.131973703978692 -0.3205566575086931 -0.8837508914510973 -0.46479528774651563
P 5.877227863981345 5.668931078432297 12.485912918342983 -0.4748159052073113 -0.44965328989875464 0.8170950419947606
Ni 3.945879788253583 1.3176709954457888 1.2252697124079455 0.35483794728906637 0.5273633402867239 0.6978189952395466
Ni 6.951528203663267 2.183137940643696 5.884415648146445 -0.14670740349328928 -0.49944707349243017 0.9511778147455039
Ni 9.133935245930026 7.648870018409132 11.437590927428191 -0.6807293867471115 -1.169633651726689 1.1897494486399574
Ni 5.996456818204076 6.607996714624371 10.561998726740152 1.6816781022681555 4.177396518865147 -0.34887838727152176
Ni 5.5492487821783 8.074456415107017 12.752983185276008 -0.029415734157955793 -1.9586897853063623 -0.6143363040338581
Ni 2.0617162912901517 6.88893924771411 1.763899257571341 0.06929508685139678 0.10563917269806967 0.5525979464837968
Ni 1.0932019268222215 2.2981665421685835 5.375393963563757 -0.5466031623529425 0.38162575690587175 -1.4206059732783407
Ni 5.553560157414413 2.2133268191746787 10.639941174544091 0.07894906500139307 0.1596264255478025 -0.8614848809640453
Ni 1.0889368109770534 4.901136211276555 4.428183899001832 0.5695011499970386 -2.3844621548224616 0.9570882666926678
Ni 4.270454178883044 3.6833669965165 1.8854837399810136 1.2337111989328882 0.11201139477300064 0.5894637091618945
Ni 7.06841643270416 3.897733014157587 8.198624021907081 0.13704211248938333 -1.785962046489911 -0.2344900076259123
Ni 0.9611036100384733 2.324802699474957 9.744769224044493 1.3356744654412673 0.7035409853249884 -0.82473584636947
Ni 9.143372161682892 4.129261265839426 2.3870040017279917 0.18346260873545178 0.19506368330948987 -0.5414843530691383
Ni 0.21892256764921136 2.6810555210238443 11.850457841991725 0.043936553481950136 0.3921731934044149 1.9736039834140333
Ni 4.664658204763556 3.5828545918702863 12.378843707624167 -0.16218261631075293 0.5634701133116102 1.4789880127616593
Ni 2.8819137965088686 0.8587334282518915 6.199556823774316 -0.5602888873701511 -0.4027851645923063 -0.2406763389422823
Ni 4.283517830886032 5.2985506388886785 5.022365421563767 -2.271123556597605 1.161507937295761 -0.3815753632839106
Ni 5.381068140457122 -0.1409458878959696 4.065879423929465 -0.4781989627469313 0.8416789019817116 -0.35724295718613314
Ni 5.495902452540039 3.721808550392146 4.12124821413986 1.3639234329846317 -0.08110596344339581 0.019334181552237668
Ni 2.709181230718661 0.6975314782487403 10.365531392643666 -0.5222234479569974 0.24575066814139612 0.7610053980900442
Ni 4.874176238233563 3.099194155779517 6.472964627266864 -1.533006890180276 -0.14404785438325515 0.781967345053692
Ni 5.1794327072042154 0.376349751351216 6.454670888523587 1.2007771672090288 0.14817884583249322 -0.36819894197700465
Ni 7.415731939922391 6.124178996604388 8.485138961230106 -0.1361003174014043 2.182887924087963 -0.10086386279661338
Ni 1.5003863378020184 0.7247236734342785 1.03505017165255 1.0166201035097138 1.0114254466826518 0.693987023087966
P 8.354575531037927 8.044674619216353 1.4550271546043938 -1.9238215126742673 0.5945434376776471 -0.35326237527183035
P 6.880806846785905 7.20422475264173 6.2558471010523435 0.4242533617684113 0.09275948852192412 -0.20066637420824796
P 3.7699460726099523 8.149646429149707 5.427080506254896 -0.07349858340978309 1.1972614407462865 -1.3132405619177834
P 2.9260730111053683 5.201674222370775 2.9798588049576114 0.11956760985370375 -0.5071948357586491 -0.023281082015127647
P 3.9370720002175745 8.432642879197422 1.3836119068628507 0.4349463227058832 0.09181332255857091 0.022982576938102354
P 4.355321657511516 8.605282926205739 10.472410939859609 -0.5994879261671159 -0.9132419589316789 0.4445097980246022
P 8.761140066179054 4.61832479879262 9.529033003243601 -0.03506676179614606 -1.467562544533537 -2.0816733628201503
P 2.632473908652962 3.8070738597827485 5.64450889557657 1.7843049705024625 0.15383141613258022 -0.8682355694243176
