# total energy = -340871.9751529454 ev
CRYSTAL
PRIMVEC
9.23601117260332 0.00000000000000 0.00000000000000

0.00000000000000 9.23601117260332 0.00000000000000

0.00000000000000 0.00000000000000 13.51783594142138

PRIMCOORD
 96 1
Ni 5.733115498929561 1.9842000241351534 0.3524129430809539 -1.5956230223496004 1.6515375741290328 0.14470091458622175
Ni 1.2674486001314647 2.3475354742264 2.406040064456401 -0.8589939962213917 -0.5328888980906435 0.12054565749625691
Ni 0.8674581918364729 6.095647416034256 3.508878928885477 -1.5019605623974326 -2.1526481513668156 -0.28495999135100597
Ni 5.887301472233999 5.27078847929974 4.87031410401055 -0.5584716316557542 -0.7633114205154016 0.7587086316360675
Ni 6.267381810884066 6.164446464503453 7.051511784812909 0.08105505560080234 0.27249605455604037 0.2807989179947809
Ni 8.188028840990956 8.581630700242298 5.87767662481693 1.2123409607872282 -1.6795965371487782 -0.5980411664182603
Ni 0.5611551117676835 8.43109295141703 3.64298950794201 0.3319546149329896 1.015453594005438 1.135887151403863
Ni 4.205155962951387 7.111331583057678 5.779916215589933 0.3412823200918187 -0.043881017653666365 -1.342007863858463
Ni 2.8214813961215253 5.081293234643748 5.535135130655814 0.619564642312333 3.4554052972547713 0.7581208774533976
Ni 8.70613213310104 9.016646834340717 12.89366393921407 -1.083215017821128 -0.868264365779724 -0.5703863808154693
Ni 4.644743922662943 5.955592540079514 3.0160721482336137 0.08036240040915192 0.047735615513066175 -0.3804389356866222
Ni 7.53370361763209 9.18212844951357 3.5155427110670483 -0.8985313921943816 -1.1498646966298776 -0.5458616562012276
Ni 8.311172580182765 6.3046214086056125 0.3091542367693453 -1.5351977271840076 1.1108703176445514 0.3478764283695686
Ni 6.553301013926205 1.1673302372094507 11.638140876924385 0.138878908587806 0.2886302411137416 -0.13568971222654697
Ni 8.59944696611652 6.8740492157302375 7.351783749476895 1.671383919430999 0.21904924759080985 -0.2521354886218174
Ni 4.720294495421436 9.249403556111721 12.918333325502324 -0.6028118483340262 0.18485640375918486 0.5856001124414302
Ni 8.450248438935503 -0.21350517973459707 10.383766774445357 -1.542184442914486 0.4389765269111988 -0.41583068492235475
Ni 2.8900403082958896 1.5008518426962452 11.664702721936141 0.7045732832442446 -0.3906852960049788 -0.6689527058271575
Ni 5.627104560772839 8.311911461089938 10.949974908016973 0.878283440578623 -0.16981082227997205 -1.480735077359753
Ni 6.1234478101666605 7.337235184414648 1.6535692901976753 0.7530560613359806 -1.836612007436295 -0.4549392208880423
Ni 8.23146580232142 5.724119623884723 5.086896722723524 0.11973061779412929 1.4365876934185775 0.8435038710055925
Ni 9.034841776679865 4.053436004674642 12.842836321609601 0.9276514494887894 2.247665325574664 -2.044687015403788
Ni 8.498700554423408 1.394868612573541 5.173776186991257 1.0640325313554062 1.7157174512410516 -1.2443969607815086
Ni 1.4081592328913248 1.1623520270973688 -0.21611342933691963 -0.8946724234596074 0.5966070050748951 1.8853853201852562
P 4.09283682904967 4.600549608402625 11.62451498939497 0.22264853490629397 -0.3112299807911285 -0.05824268569197712
P 7.4167018259811615 6.175492734065697 8.893195535971296 -0.38418580432356414 -0.29401104580968074 1.7859029111172016
P 8.715913069109748 0.9420362126008999 1.3502115741451066 1.2697089571837359 -1.461678060728302 0.916461237199925
P 6.187296356557795 7.502458191269991 5.1004819718030445 1.1427885065093866 0.3273708522170491 -0.6246921933468855
P 5.522118819874819 3.9769525947708404 7.49296357161281 0.6487834299681343 -0.1474818197654686 0.23232616720537408
P 1.5679976451356403 1.0878820676656162 4.3336159502703095 -0.6290599833972779 0.17571613202081351 -0.12047932303469573
P 9.628911262058729 6.094335902424024 11.799719353705093 -0.8087368998380524 -0.3224024524681802 -0.9338881744271207
P 4.639544048278709 1.1646795019549654 10.457208765815006 1.373096100622835 -0.2995126923542003 1.1928111182844165
Ni 4.850291355027281 6.08578335592349 10.228797587379315 0.22768275489609177 0.6251485641580137 -0.945339867907488
Ni 6.232340383861361 4.2719507969598745 9.656966570104109 0.9570242462239519 -0.7522230239117238 -0.43889553716161833
Ni 7.037203356045494 2.438306993672669 6.66955191785522 -0.3572642973423718 0.8638832059928927 0.190927035433297
Ni 5.624222925234861 1.826735266805133 8.495270299811855 -1.2103316436666833 1.4962699397705586 0.4594378800893442
Ni 1.3400805933066233 5.353367656687722 8.061361563473064 1.1777205424998813 -0.1740757682039131 0.1286466893368365
Ni 1.8977601940071893 3.6528055407938105 11.639479174967503 0.9447521137248182 1.1961723214471658 0.21951590281458325
Ni 7.154094315560347 5.546492653800205 11.739510719382926 0.5389587584338074 2.3517268693729694 -0.997680072072101
Ni 3.434032140191066 0.8417940871269342 8.753069542729238 0.3849069987603048 2.0472504052555904 -0.19657137820326792
Ni 5.446586719139004 8.314793096627916 8.438941713853481 0.025137418497576062 -0.5725355659479882 0.6897755561097798
Ni 5.311648593466437 5.164297268553354 0.7968396491333621 0.4147369376375438 1.7387691908541925 -0.2282172872433231
Ni 7.31261197818309 2.2893763108205034 2.394427627399035 1.2802751627353564 -0.12669265093425922 0.19387711920055642
Ni 6.599628846805986 0.1436051987137126 1.0800490064484427 1.5556541952661467 -0.39991169969925316 -0.27450202924247563
Ni 3.853411707091425 3.6678787113001503 13.527163804204248 -0.7356826030545395 -1.1340444417681694 -0.4060684633292684
Ni 3.5061376807198634 2.168347618225478 3.4046154440742193 -1.6847739675846596 -0.27494631586874585 -0.701200767227586
Ni 0.36348414987381533 2.076763329781318 7.1875683914587105 -1.4524994795528277 1.6379012142925213 -0.28051249710261367
Ni 1.3812085518021704 6.003619799045793 0.13441906183527763 1.5849609146500638 0.7046997815197799 -0.3809500709950858
Ni 2.7543540657048093 9.29022672623306 1.9718200745354608 0.14174003218568493 -0.49109690175552195 0.21470999678550765
Ni 4.031361937572832 5.494069053436243 7.4548031435606985 -0.9096992358857429 0.1400904123974039 1.8086682298381755
Ni 8.268456027736795 4.500135693117742 7.334291667600695 -0.7320282941314037 -0.9059855344795816 0.6998105717482787
Ni 0.526493284811039 1.8696457754892364 10.696055713463386 0.06266961111507915 1.288242754321865 0.7712044501102331
Ni 5.334055156976475 3.4662658197665115 2.4263703726172805 -0.7019921527806298 -0.07571564566575992 0.5297338974014296
Ni 4.512059383757255 3.2304796862760967 5.562846859079357 1.0921778834413707 -0.17818002018027376 0.34218940528712033
Ni 3.2585663967600302 8.388127026664888 7.357717886762632 -1.0572391625826567 -1.8376689879458994 -0.09786132852486372
Ni 8.219089547126263 2.243362502326271 8.88444903323263 -1.1564734601956468 0.5944297949179181 1.5449391228414877
P 7.839655729269973 2.9259961004412216 11.092587235511672 -0.47682110856279813 0.6847356796930272 -0.5962588777068569
P 1.7050231093709725 3.439767703233 9.435124966534325 -0.7264166043715813 -0.010804546814671715 -0.7220295310474791
P 8.347109900305417 7.030230167484043 2.5821227734449264 -0.507112817567804 0.42232477728713075 -0.5359032594369351
P 3.6837277067590226 4.272006213027913 3.7626087852066012 -0.48421097326896606 -0.5090894816782007 -0.2546664825737872
P 0.8700488930172501 8.549563268870967 7.258942439889406 -0.7840021160955336 0.2207101802330005 -0.16877698169881902
P 1.2106378943811595 -0.11888686156535591 11.33396207946372 0.33370605040645757 -0.35758594234784863 0.43638099826988075
P 0.7011388704351118 4.726307138803562 6.034348932374007 0.030422578155915352 -0.06874949876057193 -0.9245686967984077
P 3.5820207498865857 6.943088400494265 1.4137220825212076 -1.0018668564599391 0.5258906123959394 -0.7364691035115769
Ni 3.8466417107794477 3.191725382694844 9.86423559498216 0.4531042245618325 0.43743489345569175 0.49648619109189335
Ni 2.006514227531794 3.200407233354133 5.056927713128566 -2.3275299604117916 -2.9960414649364724 -0.6437008732389043
Ni 2.474715350373645 8.116292740915746 12.918699071551377 -0.9899927307301724 0.8810700021848246 0.4027080314974677
Ni 0.690885974246945 8.21584770714604 1.3197041050890452 -0.40194389963793353 -0.3052295402333195 -0.4131335977061659
Ni 3.3530600287761856 8.514226289485393 10.491814253102476 -1.037525229093497 -0.6742036698134517 0.6029905400037358
Ni 5.397626623027417 1.2352333925786985 4.115532479714639 2.5552255708236897 0.7905442880894256 0.3295475481533937
Ni 7.2373200137421065 5.145945314021431 2.973234604039094 0.16404949431616264 -0.12686362929448472 -1.7873504421970055
Ni 2.9540643389024765 3.0657461880217567 7.5468723226001915 -0.1366628747730937 1.262466930909342 0.43778327793404603
Ni 8.963068732559297 3.770038232728232 3.9694852796027176 0.23100384884952477 -0.9585756498714717 0.28638335406109394
Ni 6.169886475182517 3.707233355618481 12.45833562793237 -1.1539332102722966 -0.6881367349547762 -2.2675497232034174
Ni 8.89122180034801 4.76628983189299 9.90539680311853 -0.023397295878017768 -0.9338295532750434 0.6604901768821012
Ni 2.6011194015683574 6.210367912884288 11.21711360560103 -1.9761475757714935 -0.20803849830260301 -1.0650316620438818
Ni 2.124716700656881 1.1178529244628428 6.614020399675458 -0.8895417871012615 -1.6632422641604712 -0.8614522279538971
Ni 4.797156581790164 8.3319720777197 3.3889751824716234 1.0404580864695758 -0.21868569360380405 -0.33567988630337675
Ni 6.202711259483703 9.436525145853418 6.325387656501724 -1.9319611110622665 0.024247816803771145 0.5173391232815026
Ni 4.2647836521602915 6.730577015579817 12.623820937509757 2.1691865153414707 -0.20573196165661342 1.2993424637794526
Ni 8.084797942247473 2.2178988190628033 13.289817708398562 -0.9752505394239913 -2.2018539236675045 0.4624458136777326
Ni 3.4761021718432588 0.17073967642852675 4.972117115400919 -0.3107067612978068 -1.3076502123141995 -0.7968661165423954
Ni 0.26663902937058 4.492442095671797 1.5573226632292505 -2.5885604375303934 -0.3605874481783338 1.4501836869354574
Ni 1.200542933986901 0.32203293098138 9.077213825902867 -0.2433844819020647 -0.20807655062939004 -0.13818265385172976
Ni 9.653201971882059 7.075366554901008 9.637771367736873 0.4250941125021518 0.04959915108436619 0.6902265276042694
Ni 2.4288585540721876 4.829020820912022 1.9031494066238863 2.8571872389390145 0.5462578631983818 1.5586778125838188
Ni 1.510826734943088 7.193236531617865 5.780645860485767 -0.46824879351275484 -0.7143216208802601 0.006245723799395695
Ni 2.6699092140262137 7.250656814116589 3.748496159879587 1.8110835241478875 0.9363371501882455 -0.8718687953015307
P 4.711751184932242 0.9743160722330436 1.9683325566536016 0.4030726139257381 -0.12002269511325137 -0.035828065442202815
P 6.860056658550639 2.9669670467439944 4.546575281734732 0.36073580083074 0.6855085533033097 -0.8979806618972342
P 7.14535704883302 0.4503940929789686 8.475129329883439 1.4947319058594772 -1.7231415116192648 -0.4916070086227211
P 7.0773153532936774 4.014515452889276 0.7777321888738545 1.6372918628432964 0.07818930401723308 2.0830635582994574
P 3.074640466941858 6.914789261749519 9.03460533478957 -0.06945243836486749 -0.8807735539903282 -0.32218827957484514
P 1.7722335638897453 3.312135262530112 0.5031206345148721 -0.4737010748765777 -0.45625176905187875 -1.1931101375820743
P 6.4665379234013525 7.6430764639164535 12.717486099308745 1.1578878240446704 -0.26921224159844603 2.004649282755612
P 4.177826605397306 1.3056025629756383 6.630539005956456 1.7761851696088056 0.09907848876141646 0.6573596016729195
