# total energy = -340886.9349101425 ev
CRYSTAL
PRIMVEC
9.12349664244689 0.00000000000000 0.00000000000000

0.00000000000000 9.12349664244689 0.00000000000000

0.00000000000000 0.00000000000000 13.35315955339783

PRIMCOORD
 96 1
Ni 6.646257449633251 2.2384772670103064 11.27112119856073 -0.38469745385266 0.24538480016154512 0.30126412782766826
Ni 4.653101883326177 0.48592199190391977 5.8607152668726785 -0.7541477517382624 0.1249368445854171 0.8496300385079883
Ni 2.7625400365478257 2.037395401433333 4.800260234460947 -0.25499224134432213 -0.17651728776587017 0.6193036753414625
Ni 3.359006875287653 5.037602525017464 4.9686434881401045 0.18121032236616536 -0.6390044962044995 0.4940297591316008
Ni 3.3449110730046936 3.5101558438454443 2.908184799592795 0.35044958841338353 -0.679942372069442 0.2996656729922968
Ni 5.499023366739579 4.798302332085592 2.68586799562515 -0.8936031016548288 -1.019464000716412 0.34760954786142717
Ni 5.024428195893455 3.4159922351966263 13.372388375154284 2.471976850005678 -0.5139663501545277 -0.31282946406776446
Ni 5.218786044459074 8.1215815945965 12.594727068776898 3.7165797561504057 -0.45174179699666717 1.1879244796160768
Ni 2.572160032509953 5.490146204525133 11.542324434484867 -0.8926026854147724 0.5789023887062804 -0.8070402288619198
Ni 0.6188130190192137 0.3982990179843276 0.5641067085667342 0.948668675170405 0.27909093416473874 -0.046676063900300255
Ni 8.220462050999553 -0.03731510118919334 6.6771268004581 -0.23863745413538257 0.12888091683482966 0.4365586614983256
Ni 8.650899498189027 2.6852731436453126 1.3494034692681394 0.28950904417426915 0.7396343886134359 0.10400729352160153
Ni 0.639389240953685 0.3744191779225685 4.776986194574974 0.588736858298199 0.5317550415965164 -0.171828109820317
Ni 1.6875549234138663 7.02466359558019 0.4596682180207846 1.6381346704595658 -0.3369965482322712 0.5696289338241545
Ni 7.708068233643202 4.240646847981176 3.5814906392435035 0.5654282654792455 0.04840230256278761 0.6707918159184253
Ni 8.046121154025398 4.231806179753223 12.678931468511749 -1.0128272121261848 -0.43883100247227 -0.4289091153728678
Ni 8.34502515039712 7.473411900492577 9.344353667782576 0.6364822440032781 1.021272771790377 0.2887497974107414
Ni 7.086612137652224 1.2289258716584728 0.14913997460134615 -1.0561353879955167 -1.0488095437580647 0.45714394184884494
Ni 2.0437179845932625 6.912198252705084 9.539764367858522 0.1285487303063915 0.0626115041836341 -0.5273463710058595
Ni 9.413806285827253 5.2524608704955815 1.2012278482598733 -0.9358154733568207 -0.06125370460415902 0.876810198467206
Ni 6.5598214426243455 2.1411204345433426 6.939583340169504 0.18767716103743162 -0.32338204277263016 0.26718389831450756
Ni 3.3849997171673625 4.605951652777093 0.8063729502508317 -0.6434021110515629 1.1246015511877148 -0.4735923172128552
Ni 6.194325044399341 5.731809383082432 4.947252537957175 0.05031160377035851 0.9151402043956561 -0.1241346603990959
Ni 5.661905151954902 3.5419329825843096 8.953039598813028 0.4332725345478861 -1.509675157432871 1.6908710816213333
P 0.41030827658954405 6.153351421064214 12.345943913454795 -1.2872495371706605 -2.193430218380184 -0.11430019080717736
P 3.8505717498530676 6.325311085419695 12.916778288431532 1.6690365022447449 1.3331974646556846 0.782894999074284
P 2.497575447614683 8.791346605207718 1.7119146593980097 -0.7426783176460822 0.7145069974181888 -0.6267295354918883
P 6.50310978761407 7.9057196644898236 5.703147918440414 -0.8026145889903984 0.729779607306543 0.051406893717066304
P 4.88408144733762 1.2588053230996974 12.861669631777966 0.4427241668790891 0.2995666855205873 -0.3982253131357658
P 4.239360434957295 6.6258390641903615 8.396052867011095 -1.1435140718215016 0.22836795388857445 -1.3383106175125339
P 4.624508844908833 1.6275040686394724 3.7896669357947355 1.2466613313356532 0.20949271425062627 -0.6057801869337309
P 0.010420857843104309 5.8837520958464475 3.548682545386208 1.8449215557432548 0.1471141520134047 0.15346349127020023
Ni 0.5664696941921623 7.8816062629145085 2.493769124823453 0.7392626070963139 -0.8529719583970279 0.5151917379211965
Ni 1.7740821653890033 6.892564487971796 4.713130841708674 0.2545451265045745 0.7019898387877846 0.6598000927936121
Ni 6.188276166138109 6.051989373579632 9.165715603898859 0.2728837769127623 -0.13062438188849762 0.7988042141053726
Ni 8.720073849586695 2.319238459119534 10.138146228539572 0.15459220555800474 1.8318631798974 0.4055215896868629
Ni 2.2455297299000976 5.482993383172486 7.468915841356627 0.6604978901915851 -0.26364940279868787 -0.9993903698949885
Ni 0.6820324641708708 0.39197917187338527 9.504485631115642 1.577173300284845 -1.4834043966618 -0.6084104254677264
Ni 1.8570603671776862 1.234582439564903 11.657121743096882 -0.47438858786190563 1.6319241707734795 -0.09370411182338055
Ni 4.457731326635373 7.5308899292192075 1.6202326418307225 -1.218954609449004 -0.9739914702059095 -1.34618873470903
Ni 5.71497653181249 8.164279558793426 7.929279269820105 0.12153604643398423 0.8337568189211577 -0.24124480985124258
Ni 6.637252558466078 0.960567341981472 4.8342981756630605 1.5864758086326936 -0.10592893602434658 -1.0113524273528711
Ni 1.1345159286008266 7.701280352155484 7.244049020082777 -1.3409316000751488 0.013631474740505556 -0.9691467405190988
Ni 5.307585037093406 4.910156400686939 7.16446384668829 -0.6555163778165936 0.7174231426237193 -1.0025348290612413
Ni 1.189475872259433 7.9549682992622595 11.636143174961324 0.3601174505204508 0.6478766018831488 -1.3080111951980442
Ni 4.812790444723352 0.6250717377027801 10.738557154869643 0.9318726866589886 -1.768345876070045 -1.3237571451783912
Ni 8.544446539588659 7.582090992269024 4.8138670173249 -1.5534070511031828 -0.7307311725865351 -0.13646361427809403
Ni 7.574846935950145 6.579893135195551 7.166146219465622 -0.17347438717448832 0.18775095169816053 -0.8097231750107217
Ni 2.4005926785092737 5.875248996993556 2.5842103468499746 -1.5368985119251983 -0.1549760712599847 0.014167035529001407
Ni 3.758807620816172 4.847122162516735 9.451566613651663 -0.9594932765897346 -0.7346891287930186 -0.642474457030971
Ni 0.9712509565273265 3.6623266440250424 3.9030884211159615 0.47165370542924573 1.093812076610684 0.17699499873323712
Ni 1.3112471816902798 1.6004711481447096 2.6935855614187783 0.5428488375168329 -0.793810360435207 -0.606654104898252
Ni 1.3515639132685304 3.2670785233115374 8.53811665763143 -1.1074898312080927 1.064866340110611 -1.3872561941733013
Ni 5.335448195780887 3.2697152138356635 4.980100775199612 -0.3936778029743994 0.4408171796643634 -0.010182596959956658
Ni 4.265681722715441 7.132612807626775 5.9948206313885315 -0.13943092443653407 -0.001050809862017545 0.009312021429545252
Ni 8.414500577183357 7.808782512867531 -0.20540457827708092 -1.4764086820702573 -0.8540939878166129 1.3210919396414023
P 0.2779400258307637 5.966666433158768 8.35142619562801 0.7220778677869113 -1.153653988468981 -1.020613798050139
P 8.900089561460527 1.6159993393975232 8.01174838049721 -0.2086061978806149 1.027316149770979 -0.4868612664076196
P 2.1367137856743006 3.5670408452915616 10.464096830650996 0.23501168445733717 -0.6350377982472676 0.9597843254675922
P 4.229853751475842 6.278781252640994 3.482637553330323 0.9001005364537144 1.7380971044878324 0.9638762361487786
P 7.032902113031007 4.280078600386969 10.603156253833285 0.024218506227732483 0.0387030729971527 -0.9397374341190461
P 6.675854072679153 8.224011091186007 10.39584851416059 -1.8611261905275756 0.15207098179804776 0.5244214840495808
P 2.5380381551389064 8.85560339192544 5.720694227146296 -0.19184517637219217 -0.7609331500912122 0.5030905837822884
P 6.85270393122471 4.024730176894757 1.2569888349220033 1.0076122435841486 -1.292029475057807 -0.020806909443022232
Ni 3.1616747668228453 1.9028603202265248 0.6441781643312419 -1.3002361792383157 0.12532302428024222 0.33757504644356057
Ni 1.677719794053976 1.2822435859248897 7.002423247861634 -0.015094175328961101 0.337466031669522 -0.09629398403774383
Ni 7.1521827078837 0.7434463693407818 8.82956310786329 -0.11664837932437976 -0.3962699891816079 2.112940805474864
Ni 2.9362970297380913 1.6942971874184662 9.161349098414957 0.7458713706620831 -1.0611868343764952 1.3812943201629115
Ni 6.649231709532438 2.3664160601584867 2.735701446531139 -0.6853532586723681 0.012131493156211365 0.1363826245285135
Ni 4.35656087257988 7.272238799949371 10.66742490109662 -0.34883005053208954 0.31965497163003015 -1.3880036138622869
Ni 7.203985921710653 6.309427077798573 11.408899682817113 0.7285624470699904 0.511557483602719 0.9467668301620018
Ni 7.796757744318054 4.360821545502949 8.192243075943763 1.1236718402845938 -0.41230647381918023 0.42994475572623375
Ni 3.1176265251256754 8.709253382591491 12.888389616338552 -0.8360116763936054 0.6730847257176601 0.5806574237241742
Ni 0.2635915026913397 5.064754050968329 10.391922673563595 -0.2983868062798732 -0.6944469934435201 0.1429448511270635
Ni 8.972174308281021 2.8365498411558296 6.084366838396309 0.36086666998164946 -0.6393202276727055 0.3324950608174919
Ni 4.079389045164796 2.677080243677612 11.219551546247331 -0.7033047009444661 1.9739881062263294 0.21348383768789042
Ni 1.2848164119726533 3.927437208904157 12.657579749364299 0.025707946289065406 -1.5761484585647565 -0.029173793350478792
Ni 3.1233195870185986 8.626895578573192 7.9015721229248825 1.6180543547699229 -0.11271896236298652 0.5582116931261484
Ni 5.686118911993073 8.224303043077951 3.403106208565913 0.6822908176969604 -0.126390289202492 2.076343980187437
Ni 3.3356324769388235 9.009489409470214 3.6970762179637706 -0.30250339955140804 -0.8824475992586415 -0.47231627871390913
Ni 3.8106655756228647 2.8790379649304194 7.372346366648252 0.5796942884799565 0.5191332390674478 -1.0025615685341185
Ni 5.029336637076777 5.153598661085778 11.330837221009048 0.7406088367115632 -1.2870603039779898 1.637908927602005
Ni 8.000302953983311 0.3292067780562687 2.452120362738204 -0.4965903207699254 0.44491988897882734 0.5321260517826899
Ni 5.143307356894724 0.8873312098871218 1.7788948098577804 -0.3840639340337192 -0.9343157488828424 -0.6083404914617394
Ni 6.397322844267202 5.899335028079001 0.574696351097369 -0.8459363917064849 1.1736034350077142 -2.0587290953191513
Ni 8.387093593327041 0.18177745907178655 11.385037177398937 -1.0874923050402432 0.5258931834991007 -0.44494328601759503
Ni 0.029613045339824874 5.254586645208804 5.795297971384476 0.17595730149734212 -0.10915515627112815 0.11708392419990159
Ni 7.269629479915115 6.558452918130855 2.6855203904038034 0.897454614190435 -0.7125038509452309 1.1172286557624111
P 8.535779217796549 2.0484165853542486 4.014360410632744 -0.3863802408717217 -0.16453106193827147 -0.8890969862543592
P 1.6147494203601347 3.4987149790798573 1.5080656372951968 0.5949422157779625 -0.2543299251699749 0.5714279347061062
P 5.134311589224175 1.441667565919991 8.470296233132656 -1.1716409119647047 -0.5858369110425846 -0.11323935364283079
P 8.919686832207322 1.9303220450625815 12.612833560175448 0.5445437087207525 0.9271305439883128 -1.2072545474032563
P 6.757773948859537 8.009946489914114 1.3168189010781137 -0.9080930677408877 1.5804637981106586 -1.2278807082940402
P 2.1976222491312822 3.6278671972789334 6.1527355850421435 -1.775008375691885 -0.04469965690021979 0.34611059471839745
P 7.082023018850718 4.026709975662008 6.119339025652645 0.20938138548374263 1.4112929234075307 -0.7227286139970327
P 2.8181842424531776 8.879625558534523 10.26720447472343 -0.9842771684026338 -0.04357659903937011 0.32885746406490457
