# total energy = -340866.708582799 ev
CRYSTAL
PRIMVEC
9.22518346595057 0.00000000000000 0.00000000000000
0.00000000000000 9.22518346595057 0.00000000000000
0.00000000000000 0.00000000000000 13.50198849825221
PRIMCOORD
 96 1
Ni 8.379667589204262 4.247671081399485 6.079256504733336 -0.8356905456087608 -0.1956432099620437 -1.9379345550368818
Ni 1.0906934234071561 8.149545391395826 0.3071783090072469 0.07604937485609484 -0.7223501476116915 1.041160254742923
Ni 5.248787974811856 9.026804973612522 6.983403806241774 -0.03937001715719026 0.07681993447353222 0.928058455119221
Ni 3.1523835167011445 8.01120454239461 8.926555829039883 -0.5175491824097795 -1.4506053478539083 0.14395863710355852
Ni 5.892936399825851 6.9357049959083 9.154631881188912 -0.31883658949379284 -0.20094251068777005 -0.2092047506965623
Ni 4.885878488358213 4.916893554665368 10.789438609290347 0.45948133173277 -1.9173783281520849 -1.5687364823714016
Ni 5.714512129318215 1.5571463673954502 4.937731398738717 -0.29993281061075444 -0.24363645001187076 -1.1275506065137098
Ni 0.8493275721736269 5.412820959347107 9.226556945427568 0.6289116307448718 0.5062296436319024 0.39664665579473624
Ni 3.757251111157179 9.282194948522475 4.179851223736286 -0.4265771248055814 2.7987941437121027 -0.5911457248500077
Ni 2.9984982338130894 0.785147971846776 10.272487934350615 0.11388290076410065 1.0493623309377413 -0.7450113366546331
Ni 3.909143754449058 7.245034617664752 3.303491096892863 -1.6633937021366707 -1.6770619436523828 -1.0905768575028378
Ni 6.707317132563201 -0.05672103961616256 8.75849697450569 0.008747921395959129 0.4746498119430922 0.5931203320778753
Ni 1.2312944423207015 4.330900685273116 11.40774914087392 0.3599066200612253 0.42615006457049187 2.4410351661214995
Ni 5.194931354615197 5.871091165734435 12.894749981892302 2.8286901599405865 -0.9532066722500745 -0.24332020432303259
Ni 6.368199393880573 5.296306894070676 7.103395765628198 -0.19355007487844084 -0.3667874063414586 -0.13632348915580392
Ni 8.515416161693786 -0.03474942051332213 1.59585431406951 -0.5183814485030878 0.8604767514145051 -1.6963956109839882
Ni 7.224757664736993 1.790183723131627 2.8284236767244315 -1.4854972746350867 -0.35744710277713926 -1.8934400721689326
Ni 4.969135767781792 2.3948114628214556 10.603340831300768 -0.7317300461646945 0.4919181121052367 -0.38801366271008664
Ni 6.298032649581877 0.516219117902802 0.6072181711648579 -1.1060875515439275 -1.6082962469418944 0.940323131419187
Ni 3.4380689936196323 2.787352238084907 0.9921048118313298 3.4044720007400144 1.0037674159167618 0.146632841501612
Ni 5.9267097959443795 8.18233169289958 12.189338036997526 1.1829553085362594 0.18724804391981298 0.3563615830224443
Ni 8.222258286289636 6.9020330768062435 4.476678877063394 -2.6480696486396202 -2.35480705096019 -0.4089560692897086
Ni 6.488551135416307 1.2797266547277688 11.845321725974298 0.40206859814125595 -2.039787264109326 -0.33062689726050154
Ni 1.647894495671321 0.8267600062285967 5.197874188092883 0.11613287314054194 0.8769112428214445 0.7029023232997249
P 8.656100207257172 0.9649726251817249 8.196260797187854 -3.096403191285687 1.3822281448310905 -0.3199743026426618
P 7.4914761647585415 8.895715118697394 4.996478288610992 -1.3166071643971713 0.7206431922229137 0.7437471252302288
P 8.462666563495002 6.007051917440218 2.1678931711785374 -2.5036253301488944 -1.2471182163674135 -1.007544880681323
P 4.787169026880953 -0.39905098712929316 10.146001445909986 1.6186328529812126 1.4875562140466447 -0.04476727691336161
P 2.179818565650655 6.465063818694709 1.4305491767550342 -0.1741027647871066 -0.9552892658107162 0.30261292854607885
P 0.8095873274865479 2.805968658015852 4.496108035644446 0.13342945543746054 0.35523029763147856 -0.12094469270688847
P 6.652528768851663 6.395699665344472 11.216695594407183 0.6478562901681746 -0.7622454411447325 -0.46109521318710905
P 8.677428831082912 5.9348740831787135 7.179560724118718 0.9498228433795061 0.526893342628841 0.7201631672627016
Ni 3.716328197969036 3.1351139735342817 4.497080369965913 -0.3428617487637966 -1.0276923021634752 0.3293053502356006
Ni 2.617987097593222 2.1049193023110395 7.5503522071972355 -0.5695124628509483 -0.12278611679100145 -0.22464191118723895
Ni 4.795886825114225 3.3119515125116292 6.708354965686209 0.10231807874463669 1.0976270794813998 -0.3640643509833408
Ni 2.009327952794462 6.863785466779634 12.002592651139189 -0.7207907735443715 0.18639418055994997 -0.4898308905589049
Ni 9.231364188453343 9.023327079502529 3.7560915056144046 0.7514051559961188 0.4190139677463429 -0.30415430489126977
Ni 8.769376233189815 7.3845747404969995 8.701099728952492 -1.204068950586423 1.0696249378415192 -0.0529860652787281
Ni 3.856883090966004 0.3180548001363769 1.3369071084730497 -0.3832774335766818 -0.553688351334498 0.9981007045492875
Ni 4.488143934888061 5.268705145590305 5.420440960765818 -0.29496261108967264 1.0961648931135768 -0.9496395237241064
Ni 5.805942921159442 4.000648347756811 3.3242569845363503 -1.2488845642392168 -2.782884157350065 -1.439874077479333
Ni 2.2405663977840904 6.287645093168477 6.706532069463042 -1.1610996461137488 1.3160284090755656 -1.3998882811150148
Ni 3.871883239037221 0.14668133723687832 12.435088617860973 -0.07708038722377049 0.37011132850836903 -0.15020718911643163
Ni 7.259813361336394 2.405946259083423 0.2806033234299061 1.256199095622759 2.336973365212878 0.935836299292427
Ni 7.626818829182177 4.904559484572369 9.172144046676976 -0.6255884799089096 1.072828018159849 -0.23001603101495868
Ni 6.539289643652283 8.485166785601828 2.971234127042071 -0.024936615340679633 1.1008766967669494 -0.09439779545629548
Ni 3.73258297097118 5.281417448199246 7.937939981538525 1.0092348667892361 -1.0204338208288488 1.836124269166599
Ni 5.3190930968602865 8.012182411826066 5.084470854630483 1.8058924668652512 -2.194580272824227 -1.3532060465671276
Ni 0.19851302969575596 2.277291852563621 2.3449447344088075 -1.4587624297434039 -0.07619952728071393 -1.7583532836337072
Ni 7.297655063297117 2.390881534728996 9.39573665973461 0.8394392140179157 -0.7542914764049784 -0.5095407102830063
Ni 7.226842556166326 3.351739728151949 11.499225136113395 -1.427776779995167 2.793062126324332 0.7535677108650763
Ni 2.2101232928425056 1.816244865998287 3.0553382782940233 2.4755702237838912 0.050666158896299836 0.26039104376239025
Ni 0.950987247275227 1.9648902447630632 9.71434312583326 -0.8080658419129567 1.0199237139616497 -0.022131284681400593
Ni 2.9884981350989444 3.2653366612177415 9.47777436992386 0.2039044215295714 1.5077298607810419 0.8716427953336537
Ni 5.041904013775496 1.6453483450762068 8.129357922746228 -0.2897851806537912 0.3055226459937061 2.7275702152691093
Ni 1.208748094297297 0.16419903783493164 8.040164237859042 1.3998435439200085 -1.2217961926628573 0.6822324536551991
P 0.22489889901512622 3.654639397137406 0.17096847735194232 -0.14120884227256325 -0.5064219621483667 2.043248997405681
P 8.925106552740997 3.800766300857015 10.395977160731993 -2.0962780001072026 -1.6265693342194694 -3.076976964240275
P 6.671274341349028 5.077900679073092 4.804398901759558 0.8343538290752083 1.078248417844472 1.006113290441119
P 0.9961537447885606 7.979248507389261 10.098069238438628 2.390936963913527 0.9769235562510401 -0.46871390607463154
P 5.363041870175956 3.268906807160891 12.738315780854137 -0.5040508908130288 0.4178721408324158 0.5371595004415394
P 1.4042574043054832 0.17945749103898678 2.056109779906363 0.19473689609769043 -0.3017865759900416 -0.439920635992023
P 4.819272664819351 6.907891068211669 6.975910189834487 -0.6739190486934974 0.026666196437276656 0.37575258595454636
P 3.5251085982026193 4.826717387755067 3.2457700474052857 -0.18603602588958282 0.44225648321405125 1.8605564340670344
Ni 1.2180101783461916 4.2450326789712145 7.314122015515519 1.2072625178230565 0.9689521080097894 -0.25802665729527174
Ni 6.929081314287676 4.758358779386234 0.7124000212563661 0.42685711793984554 0.14662281419928297 0.7884413828138098
Ni 7.193871750996257 7.654918737561592 6.815831118868315 0.011146760645438866 -0.28280592112248065 0.08975541158827768
Ni 1.3130111161305686 4.905565029553772 4.650544061976444 0.6126357764029836 -0.4806921614824302 0.4314287964709279
Ni 4.331214341505848 5.238806326464342 1.4109309019160114 -0.8064625019815789 -0.4870515280415548 -0.6436553647129496
Ni 3.0173176077769783 4.697675523536008 12.74784816277418 1.268799557995589 -0.54712998139069 1.0069023620013173
Ni 8.999074072565733 5.632961508808029 13.118491120401314 1.1518002230896938 -1.2818988143817085 0.4864100378028139
Ni 7.6666531707390755 7.222008560108935 0.498751233294653 0.3067027823447363 0.6236750649362808 -0.14892935084527256
Ni 0.2614094070234025 8.056896875356935 5.949367768685903 1.32648611407378 -0.1234358345598584 1.4790507476787949
Ni 8.47460395070543 0.24669616215330123 10.271988851933239 0.6994279915978793 -0.23999396816327698 1.1957239210558375
Ni 0.32640266851869215 2.4026713190063735 6.674883233062103 0.4015363797868698 -2.8678364911227447 0.453538998106406
Ni 1.7728957295981327 4.086230373375927 2.1092127026261345 -0.3534346391836365 1.302538602119247 -0.5267488466311766
Ni 8.24820872695651 3.988489556146808 3.4272229455954437 0.1915466712951669 1.509311089225233 0.23311575298620496
Ni 9.086943943647126 7.390174426769588 11.725302091037927 -3.3783606483649433 1.3251990198312402 0.10429679973756233
Ni 2.870351212375647 8.64148751688521 6.6892634488145095 0.8784310219000807 -0.14318782037580502 -0.6547378477793562
Ni 3.5784762836835493 7.185476834179032 13.583944977036527 0.27629048860146616 1.9559824136775283 1.131952078015515
Ni 8.076325111419656 1.8163371178314434 4.784402394404595 1.7706822375127051 -0.11430713278571282 0.6749114945137538
Ni 1.4506139504665334 0.3523973900654796 12.02712518113045 -0.5797642224859435 -0.6888139635274588 -1.7994227999805072
Ni 1.6872583528791223 1.6994079193058094 0.39089500255994303 -1.5612463446419436 -0.20047122747830634 0.292256010791787
Ni 4.163343680711294 7.055115768745838 11.138491870403909 -0.665732399117647 0.517056044823445 -0.7916838010105074
Ni 5.855851162897011 6.212358372129605 2.824062010052801 2.37834164374702 0.5174766773006314 0.19354364712053765
Ni 9.054388271726262 2.169034326354681 12.231761887511123 1.2645870625761382 0.20128163919474365 -1.4595353033536862
Ni 7.179037656224722 2.027317060259944 6.795051393449855 -0.8130869492766319 -0.053097651155927905 2.2171435028367235
Ni 0.8150892268159907 6.734679026277366 3.1714012321063194 3.2441398073744385 0.8238259329606907 -0.10494497484452249
P 2.65731405406776 5.516751874581015 10.515537381539247 2.478314876408564 -0.02197161917508474 -1.95091168402284
P 2.3500969992905874 2.5941584490889444 11.902556608301142 1.1635398801241252 -2.171168064547874 -0.34410899090733643
P 3.9157213101531037 1.32339867254397 6.10150764689064 -0.23477540007681502 0.14417280999689364 -0.4523704317196016
P 2.2519410488122644 7.799754115617012 4.772412423649268 -1.034328062312438 -0.9474787686273617 -0.0022692556501509305
P 8.360100975391807 0.2301397256567367 12.667619511033124 -0.6220650401366835 -1.5623483194568706 0.8756945968055241
P 5.169331470914319 1.7403769584105304 2.4314787989460975 -1.1475645877417913 -0.204179529567829 -0.03893344384040392
P 5.700637453611505 7.701819569538264 0.9812827492837621 -2.563009842754799 -0.6083703162584103 0.660393760513553
P 5.748036445487221 3.759262201119987 8.778642007312035 -1.3792227823458634 0.32248447065902525 -0.16249989044085564
