# total energy = -340863.7499373315 ev
CRYSTAL
PRIMVEC
9.32347062753366 0.00000000000000 0.00000000000000

0.00000000000000 9.32347062753366 0.00000000000000

0.00000000000000 0.00000000000000 13.64584169425099

PRIMCOORD
 96 1
Ni 0.6686914300505259 2.350269785664323 9.442703777033142 -0.09831230001935327 1.0214620049830472 -0.9096611835589559
Ni 9.197342663682928 5.798769817134446 12.09863515432951 -1.648026732762297 2.0148655611669817 -0.31451225108682607
Ni 3.795995103218867 8.31123069689716 6.74867390193186 -2.4354008506538576 0.2001935483368875 -0.21063325561297272
Ni 3.630540794419715 2.8384373814275827 5.6023681124603355 -0.6463979604550932 0.6646540784518038 0.14079592310486075
Ni 5.1238717527230735 6.517730603476665 7.940583583020047 2.5341294122750226 0.7844078361743845 -0.7873622908170181
Ni 8.053119737537546 4.763034794583504 10.195067761399406 1.6644398840129977 0.5881095091268452 -0.14278184318663797
Ni 6.601781690697693 8.238414391717324 1.3576530174751211 -0.9186060514570695 0.9922894971841492 0.6871494313408424
Ni 4.202041570169834 3.8840179889042488 12.82215138839399 0.3664367078702592 1.236728388492657 0.0973890168741355
Ni 6.546344334667052 0.0410195411356221 12.098089731300952 -0.7446156438781112 0.0009801045250821831 -0.7473273863823194
Ni 7.213876857325279 5.8222276690976305 6.533683993975156 1.273050877072775 1.4251866506704876 0.219911338480789
Ni 5.860976012801523 8.001980501441334 4.110687408448504 -0.3376807187834894 1.0985454775306112 0.440190601823958
Ni 2.2318430624384225 3.9064782295160576 0.8227487284205062 0.9684170614419257 0.5608750988909244 0.1559518049096927
Ni 3.218284896066727 5.915807343244881 6.797812321242975 -1.0130107888919007 -0.4691643633484888 -0.028800469171460077
Ni 4.0008876925443575 8.828217140203426 11.877122546359514 0.865787107883825 0.7057410783001008 -0.6000944494028633
Ni 1.0438837358322706 1.644706826536371 4.915328092320959 -0.9347278967195967 1.7083370996165803 1.6671397994426642
Ni 2.680963963439434 1.2417743987569863 1.6040686153472092 0.36455466035619793 1.434445450264594 1.460834481781084
Ni 6.999828619896509 6.410818366409164 2.949261746747768 1.3166148777066549 -0.4189293784523366 0.35397585639908713
Ni 6.011298328859718 8.268305438376293 6.481788624415428 2.5406864966672504 0.1161876376378773 -0.022204046900864985
Ni 7.068878242964611 4.362787526329317 12.740153329393271 -0.2811814981451803 0.6804213685883894 -0.016969280864486902
Ni 6.225598299993974 4.701220184680519 8.870233360343367 -0.3179814405823491 0.04508943613947073 -2.643260657286751
Ni 1.8232606114914347 2.465190883954549 12.48956081670421 3.307309498054388 0.6194949654166622 0.5845860693546191
Ni 0.9132358073784917 6.3024050505793126 5.924792371836661 0.19720515513252487 -0.09118803026974619 -1.0268034718006187
Ni 3.537334059095409 6.038700008875536 0.4759435934942094 -0.17678031161926974 -1.585248621093812 1.235800734472065
Ni 2.4541052774425354 3.299315178821908 3.091670300983089 -0.1800900927187931 -0.07552692669372153 1.6040986639207795
P 8.248595621583698 5.759023862079178 1.2315055282672203 -1.7864698393642653 1.2552814689044962 -1.8311926361929367
P 2.584326190944043 1.8593051487289822 10.423621454346586 0.19227840725486886 1.7240167151353665 2.099809667409545
P 7.567506772711453 0.27660872497764266 5.1023438591686245 -0.7642552724859095 -0.4847560471391587 1.283223960951035
P 1.2450469369283206 8.838743338481024 3.620692412452818 0.02516004420539538 0.4711245723986531 -0.9924231945485359
P 4.097180496628526 4.338854177366879 8.182210646405531 0.0942224462206958 0.6424762568031839 -0.5553881076344241
P 5.357172956886332 6.383416686393345 5.564719938284127 -1.0168795278186875 0.12075031730789526 -0.17728964715552048
P 6.22672643993338 3.8466681657863964 10.710498117466937 -1.2336878018941206 -2.378385095390446 2.659803135026464
P 0.5389861044717382 4.496728504589693 9.042294280390973 0.13310909598356432 -0.13327287525493822 -0.879051686203215
Ni 2.937163611331461 0.38189774581827973 9.140803273430487 0.10510566879210285 -2.447929322138171 -1.765964777432378
Ni 4.648971455586049 7.02708112438315 2.237863227387798 0.5743085986880109 0.43326353568682163 1.0294843610668913
Ni 0.1461267543000739 2.948146659667165 0.4736201846272676 -1.3222481647330324 0.6464820355284673 0.35728820860177174
Ni 7.5646724376570775 1.826747589485962 10.413837404326648 -0.38676050702927584 0.5966653691166562 -0.43590225886124934
Ni 9.148086768642584 3.430943936380029 11.780946285657517 -0.27722637015217416 0.20297059686139238 -0.6069752356830966
Ni 9.179096631770387 1.6181069649898827 7.049837851359199 1.353990490141636 -0.38393923553039677 -0.8572816415159753
Ni 0.39255354033685014 1.213347136978072 11.446446267194261 -0.9065493774028516 -2.538688492400615 -0.24539637012577092
Ni 1.8012851913494534 5.420712408845433 10.439928204379818 -0.39088095695555264 -0.8773722416182631 2.5046704835839573
Ni 8.20124171454037 8.626681000284432 3.236588733496824 -0.35776360557629355 0.2210202552742516 1.0764450460871462
Ni 4.967349328733432 0.5806564238533978 2.7369877657691553 -1.3733827786253185 -2.823824347207853 -1.2380399082152291
Ni 3.9736072176459967 2.181337822341217 8.179658812509537 -0.08886323879131146 1.1717121315222723 -0.8212306614296888
Ni 7.3520227208143485 2.545643111534166 5.719981829052217 -0.8148934063577515 -0.7646681916536121 -0.2078063276871389
Ni 1.2772035869366762 8.636862230150806 5.757303681758348 -0.05308685252265051 1.6786519138473217 -0.02206674999205232
Ni 7.619317298688963 3.6414958723436976 1.8469916411424254 -0.24047502156475362 0.8506206845560319 -1.7008387343570064
Ni 9.093591083139877 4.3531843516385065 6.116557514594519 -0.2388331150859564 -1.5775425106988057 -0.4845128207801011
Ni 0.9206339812786454 6.626759268364374 0.7970840109725502 0.0156688168855085 -1.3861819872725158 -0.5928760772775531
Ni 5.427005751482615 8.354519570770398 10.237424288215282 0.16135137865870922 -0.6622439263484142 -2.004993039248276
Ni 5.825453589916097 5.233413208492331 1.3707655464898358 0.11388804297042322 -0.7210897928420291 -1.5710774717997522
Ni 6.201776832678419 4.054721411636339 3.705119235537962 -0.784602468683694 -0.19738873189824072 0.7900722335490135
Ni 6.898454524349728 6.506868760258419 11.30806358755262 -0.9011081517826224 0.011203067804671028 -2.1556974797161
Ni 2.1174627254414653 8.2147234529898 10.74481781264837 -1.5084564545344215 0.21494808093824272 -1.653968552168029
Ni 7.631848043139884 7.346894811998868 13.204125586670974 1.2974228781592365 -0.39574522702638937 1.3236496730662495
Ni 0.45081031386894876 1.560730327079932 2.760798977267079 -0.7847994151858484 0.6257448029811159 -1.3824346044149416
Ni 6.93370656658852 1.7575674378298307 2.6942899999302847 0.9052838804268668 -1.466558528749055 0.9492109208271201
P 8.548429111760186 3.264790367287857 4.026505792639446 0.14032901077077123 -0.41325366822379794 -1.183030384748569
P 7.584400901390821 2.431300068419503 7.998332227405884 -1.2601130859651846 0.4403348407113062 1.2524761382452172
P 4.405582256262154 6.57214237774421 10.952630512957512 0.17338285590194655 0.524408114313142 2.222693229010359
P 7.208646390333487 7.099757577504382 8.703700325998847 -0.41033957990079645 -1.7412539049492592 0.5965890073527662
P 5.163757559836945 2.068150889577681 4.073120348466287 -0.11507974928567921 1.899317356885316 1.3288679840423954
P 0.7397157641861158 0.995000779614872 0.393068195912513 0.9707613933043864 1.678304557810232 -1.6542210344984671
P 1.836649115235128 4.157494027769161 5.2044284031731145 0.23245446525312224 0.6564239772325277 0.055808622329187756
P 2.1550642822648047 1.3342445799059772 6.990928434886949 -0.37702528201938296 0.06504608176705572 -0.15364886780812892
Ni 0.36609166615485117 8.737565035816289 1.5080974709978305 -0.4301689559218979 -1.9392694717982217 0.8794903164025304
Ni 1.9173437530496587 3.7583748994543797 7.4982399127789865 -0.027152392045075815 -0.7010441870450637 -0.3571311141986172
Ni 7.978457385184136 0.6871845339332666 0.018563029912042825 0.0773431539668539 0.5280588236918518 0.8009014629540336
Ni 3.636815490115749 5.40949627374539 4.587650057276408 0.9902231015734236 -1.271254704404301 -0.9238248766538478
Ni 2.9776927379149116 0.8262142624327142 4.3154289575507025 1.6151294678136443 -0.18069224507916623 -0.8294371084998812
Ni 8.319155646884722 8.138737167814938 7.208388130198599 1.7726717571389086 -0.40608877504424257 -1.6112946674485864
Ni 2.694249909006818 8.084278776194525 1.6978972261587737 -0.839976060357992 0.02977594571085195 0.8952324097281357
Ni 5.194963215846793 7.163091913110866 12.893259633764742 0.5056706858046388 -0.1616246869247539 1.1719617856392333
Ni 7.119038514650593 9.238692255676854 8.878339185660057 -0.05807247866269998 1.8157076531834602 0.2790413118737259
Ni 5.047978702253948 1.4869443809604408 10.481494100891052 -0.37523425155723117 0.16971620568363674 0.045048555599206286
Ni 2.371592562866152 6.853021252244563 12.436083254188139 0.6209031586180984 -1.112173352726691 0.1003666114452207
Ni 5.6354132892143545 4.231252003476931 6.263018049141129 -1.288762117160445 -0.6130612939761765 0.2585799586955805
Ni 0.38176255549496246 0.11387500489186772 8.751992174181881 0.7032054563624406 -1.4187905173361566 0.18571592354600275
Ni 5.120282216552235 1.0753411255476057 6.0288693415027295 0.5559480939029522 -0.0240477849778231 -0.5197500467158404
Ni 3.183321881415717 7.7750285807387 4.178479295336226 0.36459888333057205 0.4115490268278654 0.6528812541865917
Ni 0.2737212461409979 4.7122498503690915 2.2999659325315074 1.801899029435142 -0.9228370588192816 1.9897703087612502
Ni 0.3617963432615925 6.725364293150796 9.220072352594313 -0.9893116455027477 1.4030036868155449 -0.6716713903099013
Ni 3.4256575285647966 6.224190455937361 9.248783047878664 -1.628251864128215 0.3263565520199218 -1.27754336562649
Ni 2.101678089760356 6.096738613196212 3.0229358112203752 -0.45798674946511453 -0.8683926638274723 -1.1145223125748418
Ni 3.8377922218003273 3.7527155528162033 10.357808007914581 0.4823430668222919 -0.06431048915261181 -0.3209749759930343
Ni 4.733843008217555 2.8321347153198273 1.6529888654469018 0.6014319372673641 -0.18772266956338637 -0.2801877667733433
Ni 0.4861052440723789 8.251728307696428 12.604145337706727 -0.834861364839246 0.7888118787793512 0.5956027321800968
Ni 2.556849923163636 0.07921220599332789 13.377605538939884 -1.5515214040446956 -0.8327967690007334 -1.4204825603265987
Ni 4.357323972573186 1.6472055166500963 13.098670608054126 1.0237577429957594 -1.0465981379290428 0.3252502063296205
P 4.480123403498106 8.92763330692975 0.7798411844937295 0.6786863881751537 0.027172960870366105 -0.8640313015349829
P 6.654468622909121 2.490410871856144 13.655529805615462 -0.8501830827979808 -0.7720395444170187 1.1648313452420391
P 1.465192724112226 4.754363966950054 12.626510478918686 2.33067004870267 -1.2554365064251216 0.889524560710081
P 9.10024804112943 8.53902172995142 10.616942684343178 -0.2498371795059439 -0.03214136061923497 0.05523089544884682
P 8.492236554613081 6.129762345967913 4.549278381783689 -0.019330582007811868 -0.05905798250442087 0.7825887806877748
P 4.985157157529013 0.22048889090101373 8.076782705853349 0.8692511551730254 -0.11418423405460335 1.5044717588550607
P 3.991806632205669 4.696838153510926 2.3992664882227195 -0.573025103989897 1.468361643396065 -0.16332984254131871
P 1.6941958083410538 7.5862003312115265 7.495182746777902 0.4191849461065684 -0.9795792487063324 2.223494641865732
