# total energy = -381166.2544454824 ev
CRYSTAL
PRIMVEC
9.23505950668689 0.00000000000000 0.00000000000000

0.00000000000000 9.23505950668689 0.00000000000000

0.00000000000000 0.00000000000000 13.51644308215342

PRIMCOORD
 96 1
Ni 4.681547106348995 7.576156403794628 1.490376965530617 0.27689444073405217 1.025422275182376 -1.9331389334204512
Ni 5.3339578741206575 4.323956373262625 6.869366836053117 -0.7901367682383618 -2.4595797618929063 -0.21821723860781772
Ni 2.53803442088775 8.37445340411621 1.723995338398378 -0.3836458726596941 0.22631312824207472 0.24997344797349205
Ni 4.33584189464591 3.7583459283204035 13.064979758671083 -1.0036409176412264 -0.2838521029988079 -0.007502221914316112
Ni 0.5915711202806455 9.034446155614116 9.813072479520471 0.47996222529494115 -1.9848628441573042 0.7526385141825876
Ni 3.1079853437244114 5.869960718787192 2.2192374016123853 -0.36372085160099293 -2.743574818227481 -1.584019119562085
Ni 8.738988901833682 2.2699591180796834 3.996582754369035 -0.5037361877860873 -0.027381734447062524 0.06617428183422797
Ni 5.490381309388779 3.7923494168466294 1.8969107426534995 -0.11185532881111059 -1.8253706301945207 -1.2198701792847377
Ni 0.9787592950774177 3.9607968993882836 2.2984843693995662 -0.7664972744425509 -1.6690637559382544 3.124955549002083
Ni 6.225445858341791 8.349232457031711 3.012652749561624 -0.4159772378025481 0.42830207791648817 1.0720895973319278
Ni 6.115280835357176 9.086180958092095 13.091053101733577 -0.1245583782000758 -0.362425272718021 0.29667959378077935
Ni 7.747928507702235 3.299224952741548 6.818586015205979 -0.06955553960163505 -0.6949936099756095 -2.541375552314475
Ni 7.743818906291543 0.24096855660432373 1.5811806865882272 0.37471051784327725 -0.39505771404106155 -1.3542069770278162
Ni 6.536879764797503 7.432126418174033 5.590089474671536 -0.24130831609932638 0.5982465975608471 1.116063946030349
Ni 4.026125709229273 2.057543517973292 9.340064745197216 0.7725182838256501 -0.12644736769267256 -2.2093633446706726
Ni 8.724970081740578 6.95566200113612 10.686829149789853 -0.20066894531140925 0.7701803797210929 -0.30506293274846813
Ni 0.7984068975278447 2.867005705048868 0.39543046526653236 0.06554204756686777 0.6150531275952246 -2.74408029710899
Ni 0.17560095951406418 8.053451976174031 1.3265673297944682 -0.3985994086457329 -3.0683959074394833 -0.8524307411815771
Ni 2.878198596980912 2.8139225839058075 1.3562672806636549 0.5321265660033223 0.27647997890445286 0.6389268488890286
Ni 3.500179844194749 9.191525280096078 12.681856857000124 0.8400295393037468 -0.7262911345373104 1.4185907426205246
Ni 3.640894443508739 6.351966171435029 6.964739140971108 0.5259284076124103 -0.12336538633323915 -1.7639989119552586
Ni 2.6813717770571035 2.9272182920100294 11.163378529373785 0.7041428805750454 1.1232774330596524 2.968472811289584
Ni 9.015412698294032 6.650000006774078 6.130841910361708 0.9527202195319591 -0.06278839608113058 0.17077652862735107
Ni 2.7941133816003334 6.944912392052871 8.911187665483252 -1.6752212908992183 0.5274402162712465 0.8322025870601603
P 4.66030646984429 3.6035016882011095 10.541014027196928 0.45371846110706376 1.385388287726627 0.5913514131029106
Ni 7.968184673196668 6.885808012213693 4.033076938401922 0.8828546048890731 -0.6832274705786169 -2.5633991077734177
P 7.268952154521157 0.32119351717665634 4.467211537403765 1.3665181902950014 -0.880565037523948 0.11527772422909824
Ni 0.4369817677994086 8.84621717594504 3.652466896380063 -1.0626209957198602 0.46417230945053606 -0.22308562244371255
P 3.930302733415008 0.5817967334647417 2.817110526393383 1.721850817832299 0.21705741397176168 -1.9130182514111767
P 8.420665641102966 1.2074378346989325 10.434234576969974 -0.8388203494869941 0.7869550280762705 0.9011289777182286
P 0.7416149765498756 2.5850685781566445 7.377207367232219 -0.6163106541514095 0.9772264322034397 -0.6556037953240774
Ni 8.06344431039059 2.5914684742861054 1.5325617931348943 0.1096709195652821 1.3366167747498785 -0.5742119252091465
Ni 8.263651162036451 1.0538680327699215 12.689560743509787 -0.0579737483013066 0.10287806501316477 0.16004063026708568
Ni 8.620937138164276 0.9330642214142542 8.276780645914165 0.19830327329271008 -0.10420526846502053 -1.5037860456419456
Ni 7.644486607924326 7.181671608605523 12.80161248911958 0.7834066486033798 -0.31434641493292315 0.8962400250570435
Ni 7.672949060840629 7.946546929139919 8.021887466822104 -1.035379643505404 -0.5477707002984825 1.0438851098732538
Ni 6.27863980019705 3.525105269380052 4.1618478354587225 -0.21432201731846962 2.3642702532556186 -1.2088527451283118
Ni 5.936628612233913 5.424775447767293 0.25610851290250286 0.1944677015967038 2.334789984408314 2.5713098779800623
Ni 5.01207911554024 1.5661829502040359 11.653038922716728 -2.017773993063028 -1.0596994511976912 0.5294832148432043
Ni 1.0949640468768491 1.1039220544462245 5.780225494096362 0.07027801958995639 0.8322586371090764 0.8050633076412071
Ni 0.621542581894718 4.152904603984307 5.43825955792404 -1.9713766367454113 -1.4715117589892721 -1.4589215810290872
Ni 1.9735968284829615 2.3711199581981743 4.082574085999427 -0.21121869580279753 1.6930871154360456 -1.1356899477913924
Ni 3.4626485629968715 4.581309772165491 8.54056718716015 0.2941313734376289 -0.18125428823022333 1.345627462888921
Ni 0.06057737180548127 3.0205939770965786 11.45961891618709 0.4600809129899818 -0.14893963525791767 -0.31604154324715894
Ni 6.286655831712738 1.8887451031763434 5.472915965146303 1.3105149354565044 0.0009608212513725389 1.122426655023583
Ni 0.8753035427104836 5.868141412095268 12.627466051453123 -1.4419523001646004 2.333891126743129 -2.284482494403014
Ni 4.9414401465730755 8.839235471076535 4.847915777030992 -1.1249630482921915 0.8517902793841007 -0.2539758842646659
Ni 4.81904790500923 8.060378270686433 8.473728445115457 0.6422996220160035 0.22213431427403682 0.7080483862770386
Ni 8.320843884590206 3.1062768577446853 8.832441237912835 1.1061852534640564 1.0122484568045793 3.4659709885857595
Ni 8.536076177798309 9.079226958401643 6.193099139462931 -1.6294785374464649 -0.09402678527012194 -2.196346106475398
Ni 6.569691930667596 1.566164480085336 2.838885872834444 -2.692924085950149 0.4951952401946117 1.330231440048825
Ni 2.7230126596656734 4.9896009810826545 5.117757746692689 0.969491268342711 -0.33779564709479887 -0.5688038668196977
Ni 2.556910882198887 7.563975360512147 11.190425247691751 -0.27958715707486687 -0.07886010483201257 0.005566181233867834
Ni 1.5153070082455946 3.0826074006309647 9.397806953782286 -1.0931109367786012 0.10172441102469579 -2.1576759435987096
Ni 5.549430278871856 6.896668442009142 11.851581616667744 -0.9097704554433107 2.0199761429206693 1.0768080858535198
Ni 5.7401342544467004 5.9411814964934 2.6252447803523253 0.8803680910217935 -0.3652187763027581 1.2786476544342624
P 6.614315737446175 3.061182062939263 13.391699535362703 -0.15295287018236883 -0.4454739617100844 0.20284769813028292
Ni 6.579628854528058 8.798555034640351 10.533458825142798 0.1500873757091157 0.8241370364432065 0.1305163955557236
P 4.176546355919978 4.079162655075584 3.552634981302018 -1.2059440561219488 0.03549665024471307 0.6201243714705449
Ni 1.0477728935990065 8.334807294327211 7.508180825943964 0.530252488909061 -0.6462316100805581 -1.1890161700183588
P 8.073907632633995 4.440983045344195 3.2818602706459847 1.0608268799339151 0.09416819594399266 0.36318580503312936
P 2.1466433705808514 4.484600230653638 13.147241049830063 2.556017984817998 -2.3284995234139125 1.1131436870597602
P 7.074267868366518 7.316254128511198 1.4296472152458628 0.6066767306060714 -0.6553158317700134 -1.5474827151989479
Ni 0.99869778821379 5.9980140517325085 3.792606151496556 -0.11180853473357517 0.6889373764792006 0.1671952390339959
Ni 5.053923169454508 5.618286881384498 4.935164000238903 -1.6796232766216554 0.7792977686413289 -0.8535710254336073
Ni 2.8913308513764293 3.0365521596531564 6.862555056276652 0.35275535372842476 -0.5145353352841203 -0.5688946267612912
Ni 4.807938128611334 1.4952484593376738 0.9228308521486617 0.4954983732573273 -0.5223512317841134 0.049199087432470104
Ni 6.153938793795737 4.6584409878556166 11.841268825891742 0.4070192572783119 -0.27165967469767405 -2.8500791671393237
Ni 6.767202144983295 2.61556274412992 10.995058490651157 2.3136516597678027 -0.09691182012740084 -0.6235609079559196
Ni 8.085155934922138 4.840639473769229 10.535255967692283 0.31530877884619246 -0.1720551382294585 0.06726751489840672
Ni 6.206486281496505 4.391584712881733 9.091443094909653 -1.5565815921764223 -2.008761762262089 0.7570728958048575
Ni 6.167883733414043 6.543085724680617 9.773604606376928 1.058369162422042 -0.00979204638975733 -1.130471893925563
Ni 4.094363562765473 1.8892068561438369 4.842062596415044 0.3024905440356016 1.316898470385345 -0.2002182309272358
Ni 0.8903659245101238 5.81700688847503 1.3750144511438935 -0.060064312281748175 2.035427187368417 -0.7841823504271398
Ni 3.825697216159015 5.688547212918319 10.796718044499906 0.7781618552646727 -1.3947327050560043 -0.30512515344497126
Ni 1.5798600731011954 1.090734389694608 12.378452834649126 -1.0081439477179024 1.2615860709662854 0.892010046136096
Ni 3.245578492978145 8.837333048850462 6.935435374148033 1.1449646882250992 -0.543866737258386 -1.9304940395984365
Ni 0.9004681559329482 0.815834378026987 1.234049581721522 0.3930440260451425 1.1897741312303056 0.46471069845250934
Ni 6.049545682904791 0.10523442479771927 6.7829562327282416 0.14314514006332765 -1.1302597779147567 1.69050135698674
Ni 1.4040060729609447 5.035591576645014 7.244096915786913 0.30878511879506176 0.9412127331129919 2.436547819774107
Ni 2.533500006746963 0.7329672669746562 10.347215383233943 0.18570435358177695 -0.743223648626591 0.8389692163600325
Ni 7.109185627768382 5.233221846732261 5.553731046011092 2.7595763358620604 -1.0959944289739834 -0.015716382293992286
Ni 0.658160515722893 8.276561775007572 12.19392619027341 -0.7563272758880846 0.21119349899181694 1.4614199219709088
Ni 8.354856608175782 4.558286769206261 13.384914537258352 -0.9147439973985021 -0.0632463095541556 -0.09786055719391534
Ni 7.849015467345927 5.387308811984865 7.901901881724836 1.010300589049589 1.1099208092470885 0.34089279796288385
Ni 3.6053302299523846 6.41216028827749 13.244113128386473 -1.008512901021547 -0.578849681091474 -0.13217861374949497
Ni 2.6355935878597907 0.16892031758036724 4.315678989567336 -0.6710111310180831 -1.1916325245952832 0.8033761497467712
Ni 1.538413126738973 5.316374321118502 10.343673737973267 -0.9118052264851523 0.14673851384154082 -0.3972709196422965
P 5.794685750026391 6.288447433226613 7.314734037742209 0.6258787574558189 1.3627276129043178 1.2616218093002274
Ni 3.645502738124325 7.237165080238899 3.6893942046964585 0.20225505885160652 1.1491882393881436 2.239670737404962
P 1.5365661148689984 7.754189877941449 5.212480826938385 -0.06057236226641825 -0.7214654310138929 0.3890333622238526
Ni 6.44806619902979 1.6438405642771041 8.57215478416045 -0.4275711132877346 0.1973149412375118 1.1562371758151249
P 4.893482483369193 1.8423296948838896 7.180150594330599 -2.036847978975344 0.8761923623775489 -0.40461373316061283
P 0.20215175514494438 6.8953385934627605 8.687626272247503 0.6673827902368764 -2.485695228033035 0.3115472549212312
P 4.277153092477477 8.812093631647263 10.648281088557555 1.733633412289524 -0.5733292654938771 -0.19452915096225853
Ni 2.073280059105473 0.9955578680348336 8.131465140032068 -0.26128655899346614 1.671205999092238 0.5606840659260408
