# total energy = -381173.14835230407 ev
CRYSTAL
PRIMVEC
9.27712900248634 0.00000000000000 0.00000000000000

0.00000000000000 9.27712900248634 0.00000000000000

0.00000000000000 0.00000000000000 13.57801604170655

PRIMCOORD
 96 1
Ni 1.8309991070935117 0.8251097031657691 8.481195805279517 0.8928019459097721 -0.4185154308433695 1.0487447519584003
Ni 1.7753085020790853 2.0465439208375047 6.650213397018095 -0.7696234787763584 0.8676056491498026 -0.5379717119301897
Ni 6.637303344388063 0.06252042733853479 12.172338120025067 -0.5442840273014626 0.22414028896047206 0.2098395560670838
Ni 3.558873648912933 4.853552654975457 1.7037827656804962 -1.8859710174853972 0.5470173670722257 0.046513827290823116
Ni 1.0776127431727094 1.438001371024689 11.17457177019538 -2.095089122005424 -0.8724781467507554 -0.2952598306151173
Ni 3.959562124871304 2.4231860785887473 1.4487062501061727 0.07723079675870571 0.84573018923295 -0.8910811065639235
Ni 0.5542954660611318 0.9290580774895486 4.67410978849344 0.3734787023187052 -0.43203891925110116 0.3833990467562107
Ni 7.136032518962536 0.05685117384456241 0.9596790969749923 0.6384154564702489 -2.164813840195072 0.03764712092881258
Ni 1.0466642410357567 7.312845319390649 3.4730119651665525 0.5763765369606332 1.5589017556691667 -0.1777748143220551
Ni 7.347087202300569 3.594238064424343 4.432923918077887 0.9259038706700634 -1.5299094822018748 0.05143748984468561
Ni 6.482115531514278 7.127803705594588 10.863648793840472 2.6692280278847904 1.015734872691283 1.4957261514519467
Ni 7.095166765990931 6.53077407279375 5.180176244344927 -0.7073207640823947 -0.2577806027227367 0.23262518650303166
Ni 7.582763385839882 4.484406417406066 6.8931238857032096 -0.3583611299509764 0.23080638812673795 -1.9900441312479271
Ni 9.074488610544156 0.17663467955250395 7.036562214777098 1.3332254896801425 -1.2725232867040794 -0.08286125557160569
Ni 5.497218414947296 0.6333217612060413 10.186756996577417 0.1340899718395949 -0.12450129970989525 -0.7712967527137233
Ni 3.1316804155788796 4.773806454624963 10.36435742525236 -1.572183046159105 -1.7106714041767117 -0.4390703721765858
Ni 4.6618871711177094 7.201343506685602 5.442747752388208 -0.14890981046124677 1.0836415638355854 0.5109671583168878
Ni 3.917462513750953 0.20238335091974385 11.844999264014481 -0.31623437598425536 -0.929022104584071 0.791066993362115
Ni 7.287862011160788 2.36997246700075 10.572522282926224 -0.04250290635921713 -0.8032388528379586 -1.5672311014704685
Ni 0.05396042046750171 6.584256721120948 11.108473154225482 -0.10133360334418033 0.4136930697540617 0.4875755188658248
Ni 2.7285520547098314 7.318328102592969 1.4794469445549157 0.6039534181376373 0.7555135217375375 -0.8507374126395543
Ni 5.484759230783649 5.869351888034703 7.21577871931303 0.5726067855055558 -0.35541027485276855 -0.2948080877896794
Ni 8.998304827705828 9.006403761268647 12.188958096517377 0.022951466589850793 -0.6473721514429044 0.2108723682069723
Ni 5.032193049804342 8.383704312696542 7.673737695343958 -0.36024600567851506 -0.5351306429369687 0.7676768965729489
P 3.5253275506733583 4.034641929366016 13.089167086148628 -1.0755446457600637 -0.6242052264081378 -0.27417755602352134
Ni 9.075889457013783 2.0793107402462927 8.497937312160916 -0.6270900041551006 0.8433742874062635 0.5171704589141222
P 1.7007574939338355 3.0164677512986593 9.140842347559845 -0.625255007828891 0.7383377812891994 -0.028701481699750567
Ni 6.906646228843144 0.8442512033034114 4.637842708336368 0.2919593054869746 0.12294783917984632 0.8220924952093519
P 1.7933896263791216 5.303938710654348 3.7392497945661063 1.3478972327597043 -1.4110296424438151 0.2654993115232331
P 6.714025200704789 4.948355635592219 10.523247740285274 -0.7974674975718201 -0.6153449478040306 0.41158142272769765
P 4.872561492169287 3.785170655095993 7.644952619675332 -1.0223120116881685 -0.021300304139672994 -0.4856165953672411
Ni 7.168224156377172 3.8215091691458865 12.34052875681826 -0.6581491874537504 1.2139820959350769 -0.30857043168109444
Ni 8.828431319723292 8.008286735965106 5.071307280832466 0.015733351574856776 0.4426894569864118 1.1456833115586784
Ni 2.1338695355302915 8.234314705408966 5.6196282758575675 -0.24538685704407417 2.2465412392725503 -0.28795301254105893
Ni 4.582419284635354 5.78047699280928 11.790809698462214 0.8186024797782223 0.6635081377728186 1.1178544622718685
Ni 0.6275931340868662 4.309745910891555 7.272100169095236 1.050338321697765 -2.0365366183825118 -0.2213493564788962
Ni 4.045820869736229 0.4715332710929156 6.201474031725686 -0.8930361734077652 0.6367581233724839 -1.8457499651818212
Ni 3.3566229609370013 5.421164511914101 8.133924110032886 0.0903868745246895 0.09151610303312625 -0.5731719139804065
Ni 2.007273834043224 6.1437229763741446 5.977544548847588 0.17711198392707564 -1.7774766347267195 -0.04991796787636565
Ni 3.1643822950851024 1.9403671801428333 10.342089532662632 0.6816264446400842 0.006817022921833422 -0.1660927499984365
Ni 8.164179610638174 2.11828395891456 6.15166976502238 0.4139023575513904 1.134879021854323 0.6708085280889737
Ni 1.9193080974537196 2.110379845059439 2.7125341638855924 -0.2693492813969426 -1.2400317418342772 0.14471814097740238
Ni 1.2060917018341781 5.855315591951606 8.890124227160564 -0.3701928324785818 0.3673090831728835 1.1481168607008356
Ni 9.055136519579621 6.369268535113232 6.8746447725717355 0.42192599918681534 0.7298518553053753 -0.32686511622522413
Ni 0.6325721691878562 3.248850554065005 4.526339967918428 0.9334333462778892 -0.38583336722931616 0.2960265335778127
Ni 8.023241467813058 5.478914639552749 9.010901313377758 0.3261994576167672 0.09589803415090581 -0.10750347960031809
Ni 6.875976040574329 2.290764340128656 0.6581686956405141 -0.1596999590982153 1.1444093299422613 0.28129976889059943
Ni 0.130040299461723 1.4917530560910872 0.5857245234770696 -0.7651883258231402 0.24742445629939325 -0.3303566743182504
Ni 7.025996492629684 0.6372812398367522 8.051940266182562 -1.2443504238142893 1.1569203179250784 -0.8017049326919355
Ni 5.567177244268268 2.437955267857941 5.87974227244519 -0.33198726794313793 0.767701322052981 0.6947200445992487
Ni 8.541304179094189 9.075258612246003 3.090953819541343 0.45677627409678107 0.17580303530766497 -1.342571963892049
Ni 3.1602075870630313 4.05551546947637 6.159775192575454 0.4552981468893578 -0.5314300541569299 0.33370245086203176
Ni 7.204664718845383 7.441231506762738 7.860041926388472 -0.33147947506878395 0.3640342690763537 0.17424597523319024
Ni 3.6950433474639497 6.404085600017303 3.5257218286532206 -0.5659877375271414 -0.5837162651551561 0.9456856812826808
Ni 9.230622690569609 5.316295846399678 4.793704968483941 -1.4200495865542382 1.1900736647485957 -0.06198698322575776
Ni 1.786403948288856 3.284484006315615 11.946236861262596 1.9646449744485326 -0.6099525731438655 1.2327575767703671
P 6.990891836728536 5.26156078566586 3.2619146070354055 0.5206453048366002 1.8444613282773845 -0.560976400355479
Ni 4.854341210935181 1.4538745386374965 3.4778054576887834 0.5401342667991471 -0.13370404925508586 -0.10748728165040197
P 6.608887498451167 8.641024038048057 6.079787786872574 -0.38623291666058 -0.9656261289603499 0.3967654407607876
Ni 5.412907867159339 6.450944378282815 1.9396871665916826 0.1677020034670854 -0.34675131362618994 -1.132546259956088
P 4.477680498926063 7.666294654797053 13.348180815244211 -0.7133204333092554 -0.21418652018186982 -0.09259905168465987
P 1.7436734924007253 -0.019425380283143102 2.208111615281908 -0.3747208022559224 -0.30108132239290086 -0.4587627083991906
P 2.6520621266165536 1.6367545813910187 4.787635870732744 1.0563135654445936 -0.10742686072611175 -0.3552799199224913
Ni 2.267348866689307 7.789160950451071 7.96576037691361 0.2484654959693979 -0.434372195369968 -0.30510664150221
Ni 9.229388832420863 4.228895732197447 13.073973004374077 1.0026523284757118 0.15909446430373247 -0.16094720124175507
Ni 2.8890371082071775 7.0655263390342276 10.579352105250333 0.26556256066100065 0.43379138316583354 -0.3121077554103915
Ni 5.677640018532265 8.21564912198584 3.3462205162588945 0.7961176684121449 0.809118194436871 0.46613534671417794
Ni 0.23720876523985987 4.137488180771968 10.49951313361046 -0.5117778271436413 -0.24421109156841808 -0.5716665330794735
Ni 5.4230848776042535 2.3048099133406907 12.363612109041632 -1.913698822417969 -0.5435906007788638 -0.30444149711438534
Ni 5.024891949330187 6.678883436287889 9.475757834774042 -1.8563416246547386 -0.7507901481199393 -1.733687662566227
Ni 5.355890632706787 4.534001948708269 0.23806782737951268 1.007476746447549 0.1685756643212903 -0.89364552485699
Ni 0.22806058839416168 8.312075600166741 0.8372302721231819 0.6159224175740553 -0.47819022099618286 0.8121762645369045
Ni 4.489137753164413 1.6094798223134885 8.297118085180108 0.20921889176394934 0.30748208371292207 -0.918253038993025
Ni 2.3514182091248785 1.1012694219644448 0.18510469827283904 0.42332442219623867 -0.6332619372937675 0.09646110574322743
Ni 0.8705444421393081 5.66885457742804 1.840106464571883 -0.6932504020322577 -0.6294153098541676 -1.5387556197385952
Ni 5.038074749550994 3.3313056760653756 10.057086854560316 0.4594059984101443 0.9499395714630285 0.4104915320976285
Ni 6.70786518709 3.166219166614814 8.458194091790801 0.8119466650246017 -0.8667355878400235 -0.3536349281199006
Ni 6.656015313455879 6.98845195181786 13.342858526372517 -0.5061237141816575 0.03243138105582802 0.07951393636592757
Ni 3.6362356271263767 3.470499718650159 3.9398788404036864 -0.8669196788263716 0.3836913811856488 -0.6192591952567722
Ni 1.6826114297312338 3.565914989776826 0.9527398045294165 0.25079337277162617 -0.2749092919832233 -0.9739040526984258
Ni 7.898529023500392 9.114834844295236 9.97966550272167 0.7223174946015432 -0.696736046588013 0.3630649631845489
Ni 1.9519264827995009 7.949859377913989 12.596556178108722 0.25243913590516526 0.02336387153692105 0.22360112862755038
Ni 5.511653627574724 3.982921935537026 2.423947730874552 1.3471354148930155 -1.295686355084104 1.4017402467220892
Ni 5.410124728477958 4.816360645063273 4.892648331745704 -0.8005353378638664 0.3741639013111879 0.3101622016482465
Ni 4.776691641724661 0.3834562089561562 0.6539550236769037 0.190633158341962 -0.43817614249709047 -0.10851700846649699
Ni 7.789958783539732 7.04520014953121 2.1629783829988516 0.17860039554714402 -0.9231245081527133 -9.487370665144951e-05
Ni 3.414178268867953 8.780514948758857 3.6574153124916835 -0.8012333923721556 0.6402998179771553 -0.12403207338296057
Ni 1.2342848966765638 8.670747959165203 10.244938510711679 -0.6695808263294597 -1.3466980702452807 -0.4062808364503906
P 8.264112843557614 1.8173617275547467 12.269190418424218 0.826841322748247 -0.6083245506221394 1.6166297065082547
Ni 8.822660945523896 3.023546200678304 2.2987714301149884 -0.6190388517158499 0.22430124001836854 0.4023069394043072
P 7.106392092005833 1.3424654972218295 2.646898476649699 -0.39852793197784914 1.563319168010572 -1.0695809719774612
Ni 1.903314327164719 5.410755573245737 12.477001817485549 0.44023019681264175 2.2987528882790995 0.33974248640852456
P 8.786535805439575 6.536293964511821 13.351874040274405 0.6588387573216072 -0.7038176360251428 -0.22787790162603339
P 0.0008813272491038707 7.732301427190464 8.469423128657278 0.6858199138961415 0.9099545464296588 1.9801767515355446
P 3.6558938633458617 8.83864543868396 9.334234305112941 -0.13510761447083183 0.5066145377751468 1.040707997696853
Ni 7.600260051016828 4.750363149798801 0.8966243070096324 -0.3936402648682446 1.2741628791900315 2.0241408158213208
