# total energy = -340897.4659253622 ev
CRYSTAL
PRIMVEC
9.00541121146665 0.00000000000000 0.00000000000000

0.00000000000000 9.00541121146665 0.00000000000000

0.00000000000000 0.00000000000000 13.18032958890267

PRIMCOORD
 96 1
Ni 6.370382897141365 1.9751028188390258 11.309461038070538 0.18472090662258508 0.0415143171937027 0.2494980509989703
Ni 4.48378526014997 0.5695553399081319 6.015133831655191 0.11236877811241937 -0.6739169918109684 -0.07829806168095547
Ni 2.6254646145099767 1.6521507602900063 4.815301464805735 0.37275185145500966 -0.18024615868068314 0.07888401609141253
Ni 3.3309305216711245 4.391948076136728 4.878765299567113 0.3733899992596408 -0.17385491044235865 -0.3894082290647681
Ni 5.129320155386415 4.551686061038365 2.763374383062359 0.06842862508604344 -0.3033500638224195 -0.4369777513136152
Ni 7.248590603061291 6.066360213057518 2.467133274846903 0.7455648951652579 -0.4621959024504556 0.5648945044629626
Ni 4.813257236450077 4.636724159551509 11.250136090323524 0.9020571459594529 -0.43136271911968294 0.39620494027162734
Ni 5.623194919620014 7.819272519917849 12.288943599002517 -0.30108929281270086 0.46983850659737797 0.6118762725291398
Ni 1.6730703306432877 6.6818620617471725 0.4274130280642979 1.3296418860939423 -0.5693247723201743 0.023044797634605475
Ni 2.93640345444028 1.5730922548524446 0.28137137314557326 -0.5620943160100061 -0.31045427896736855 0.4176672239104613
Ni 0.40024550337993337 0.03740037349729331 4.86254025010284 0.4365586614983256 0.053245232477385725 -0.3968302325604521
Ni 8.775863325430956 2.400653527855085 1.3515636406012428 -0.25596591811150116 -1.108118465931027 0.05026583813408762
Ni 6.784451706802954 0.759868497114315 4.776261205918286 -0.453600961692593 -0.7129604788666754 0.8561346723957256
Ni 1.0238522222021547 7.572920489532846 2.7124586883484474 -0.2534354383801635 -0.855327860223714 -0.21016968571299288
Ni 7.489197181063429 4.121083316306339 3.9049624515158112 0.4478152082487514 -0.6282256604214406 -0.2461597306543567
Ni 7.562744374810846 3.840870939589723 12.592658298021325 0.7167615977803204 -0.6802298214028737 0.3792557140117985
Ni 7.959315670397348 8.940212080896897 6.795791320659541 -0.5347408636977178 0.0006754288004698045 0.7379518587046904
Ni 7.016854355148683 0.675969583125359 0.3941101166895802 -0.7897937830766463 -0.4734465356636104 0.15427930230327624
Ni 1.8780785179409407 6.393364706672822 9.10752901991361 -0.4992745524703079 0.6810317484788787 0.5478406343044694
Ni 9.15291989482049 4.696763236411314 1.4042984283893527 -0.21115493244439765 0.5504531322266519 -0.646495662375222
Ni 6.491370597398073 2.0303690277318744 7.007836336314514 -1.0267955013808188 -0.03545268438065507 0.46074888559128396
Ni 3.5589475347340094 4.248879107474404 0.251357237962426 -0.10556075405165045 -0.7480750631816213 0.39115966453823603
Ni 5.71631087203195 5.637549545165915 4.913376697197677 1.00438782310958 -0.21916083346800966 -0.6004724015675723
Ni 5.388396831879548 2.9957040875768954 9.12790556396801 -0.05675401696159258 -0.2463736464373757 0.39199450173470557
P 0.2996757720694129 5.314111194408942 12.254226838060228 -0.1403575500158615 0.9539836596254151 1.3764940705607904
P 3.8703186344047165 6.110441701167424 12.590839204947127 0.34735526575877596 0.9332430846439539 -0.010728699271413782
P 2.5754575657920387 8.6046974736424 1.411547784452371 -0.23148284536847233 -0.4723815847342058 0.24311914405582
P 6.2437848256706685 7.820848466888071 5.8102184000935 0.48878445157226147 -0.2678523851364419 -1.1369009373803582
P 4.826098952904567 0.9928195750056814 12.509081777755421 0.18695776637290382 -0.49740124670699504 -0.6004310068066756
P 3.9529883097568996 6.164555217419196 8.034847656786118 -0.4054405999372824 0.7097111186914422 -0.4475092469725583
P 4.837932063298114 0.9537000684991581 3.7377436714818146 -0.8135631175821022 0.5143221908320498 1.1187517772751572
P 0.3977392974267185 5.5520251544448165 3.3774326643272907 -0.6615661835550993 0.3065680565390849 1.245315873051352
Ni 1.4662520556826948 1.0111185706827661 2.7467936198533787 -0.06870758977904295 0.7211106187776356 -0.6704737704573744
Ni 1.8732876391514677 6.388357698013147 4.884432404872029 -0.18161989909975818 0.45460626302865575 -1.264870655254828
Ni 5.73627586879184 5.627193322218746 9.178557400132052 0.8494492899557501 -0.03669298454565939 0.01106602800617449
Ni 8.671112381673158 2.263203935818007 10.186141346895893 0.0645971671550952 0.21642852213851113 0.1393576479964374
Ni 2.1769411013737194 5.323602897875304 6.982397850591764 0.6597548413779735 -0.6878107190739252 -0.19567406319997915
Ni 0.4627925872752045 0.05993641517145876 8.943538679815754 0.7110588909685882 -0.16387080264645326 0.7988708056772499
Ni 1.464775168236316 0.862024981888567 11.418053690271174 0.396566180265788 0.4045990778725936 -0.7208802479343843
Ni 4.070472905034087 6.724637765224609 1.5609592642639918 0.9673821924195082 1.687077676017172 -1.0747632875093491
Ni 5.66048632764108 7.838463051309517 7.87382369915678 -0.7755074483609611 0.5901854178192675 0.7385912920609021
Ni 5.194744468178747 2.8854868591852427 5.036388813905275 0.21025607477921207 -0.20024548462074546 -0.570771789179346
Ni 0.614241991654603 7.277227810863027 6.8903994697169955 0.025515113551968963 0.32385846818841646 -0.18319804222015548
Ni 5.081519432426787 4.489215523138791 7.050843478861292 -0.3989565348748355 -0.01416832108058205 0.0864065497207028
Ni 8.045821650945614 7.21771104785621 8.956891003088595 -0.7297706084454787 0.9771714105957882 1.020026043867469
Ni 4.5276956454459665 0.07874601766689507 10.187089616701403 0.3838698157450421 1.1224001726610218 0.38775680950427416
Ni 8.096549132564224 7.077595854086644 4.696916328402707 -0.34427585550250384 -0.6381388057700945 0.02075420182821587
Ni 7.043960643036491 6.075716835355004 6.959912239220645 0.8046038515062852 -0.1677822218857175 -0.06172267382077756
Ni 2.448706402329949 5.2535768199299255 2.3274089159259512 -1.0262334582297616 -1.1666138910637587 1.0894419725674465
Ni 2.290139120891905 5.110976132653038 11.311503465343945 -0.08042282133344214 0.09139628962581034 -0.08393494825175868
Ni 1.0066158650535622 3.258608063854852 3.6268447334579004 0.1154024227324206 0.8421327016896787 0.07393772782973072
Ni 3.7243048962608927 2.6598652855170943 2.8294083621968857 -0.6193072748858882 -0.14509712158337593 -0.6081227190239785
Ni 1.042016136710363 3.4859136494283223 8.198046421234361 0.006265007073105339 -0.48502627008140986 -0.785334461753712
Ni 3.498890447051688 2.71418592622781 7.152503765475206 -0.017140773445344672 0.42422816495743065 -0.9255601141773995
Ni 4.1017306875120205 7.04599586598089 5.867394656714257 -0.6266585730446369 0.27354943552121924 0.6207249811690213
Ni 0.7683957210349014 7.341508436425542 11.416590310941682 1.085644967418859 -0.4413121170229109 -0.8059498240112184
P -0.020445885721089 5.630840513778401 8.067903819892356 1.6578686585533837 -1.273512390090226 -0.8237616553816588
P 8.43988944220228 1.772436038468559 7.966797366070834 0.10319559625358359 -0.3706564023785617 0.7779553956808215
P 1.811744658611509 3.2080246688163756 10.212791960974023 0.4086058850391414 -0.48317584713623246 0.7413246318316652
P 3.9863713692918172 6.189869428466581 3.6421602363850747 -0.702862728311041 0.37490026525658016 1.455807203769822
P 6.825237214392283 4.053704829270933 10.53258582179472 -0.016635551674151997 -0.5114217293558032 -0.9731067536081112
P 6.2135266438424175 7.573622911611002 10.119698522090234 0.04121786899920643 0.6095093149588601 0.2880849101332329
P 2.2225084823412624 8.416673491978104 5.88027239481378 1.0325529726898863 0.18044439073441826 0.14642663902807684
P 6.864374731721322 3.90304429891777 1.6242907194798704 0.842267170385014 -0.007862947687844523 -0.36862497377082964
Ni 5.3040071229770085 2.6702665355205553 0.6367366084369799 0.1864124353923951 0.3288592638371175 -0.14413321500820983
Ni 1.4272676303450476 1.142300396483992 6.956129966492115 -0.1854590703401903 0.4354253192248307 -0.02313427202461822
Ni 6.765495316104006 0.6862960882153752 9.228893146360921 0.4171851420677203 -0.14404913993483578 -0.37568239483824334
Ni 2.7083504197323616 1.5283893933657084 9.04489548407026 -0.46833955345434825 -0.0687171028607397 1.3596420320004583
Ni 6.5434398852941875 1.8331325103502272 2.6530292778308366 -0.033751899639464455 1.199917904532527 -0.7188606464011942
Ni 3.9841650435335074 6.778508135372405 10.525125739108255 0.010602715216510772 -0.04708384086168021 -1.0209745238236676
Ni 8.365153534168753 6.936733211182629 0.3216462739165503 -0.8423918688883363 0.4381586589955938 0.2539856544566787
Ni 7.652960584797574 3.964560263223954 8.317776966079396 -1.0519167219284788 -0.7605431137416451 -0.2185442829299333
Ni 3.164708640663434 8.239176836074886 12.352697408006415 -0.05157452964318215 0.39677983893849084 0.37786783252533634
Ni 0.08083797470222319 4.8028469810353585 10.12780519330505 -0.1901526191611177 -0.05407209925405526 0.4821831442056599
Ni 8.474875464941194 2.3796619142117366 5.753187130594004 1.2726811524381825 0.6704064075545486 -0.22275189325337766
Ni 3.690984874604784 2.5740797378695017 11.273307013491408 -0.2341609064212677 -0.41743608173626173 -0.2010888064576472
Ni 1.1454072633681427 3.2280166818100406 12.455385212044913 -0.32604210610329654 -0.5687226199598011 -0.17231173432495483
Ni 3.174389457766222 8.348250377236722 8.058664267941229 -0.10524965056913488 -0.4284635431950169 -1.144480806610145
Ni 5.696679075488621 7.768617081589306 3.447157060995513 -0.7706742886383761 0.19059279202232984 0.45970116105305997
Ni 3.0340671395377123 8.404011883748783 3.816153787308771 1.3939786004987993 -0.18005461149516733 -0.4876415962170698
Ni 3.4016049892271085 4.354125348851415 9.032757090235052 -0.24633893654469835 -0.5000363703369969 0.7774576301087965
Ni 7.243790718860559 6.071178108080767 11.44693134255351 0.21861087450181063 -0.5244551655009935 -0.863353558741668
Ni 0.6262353983685506 0.038644020792079424 0.5718364105798868 -0.4542115986933984 0.07992891241615913 -0.35070309918508635
Ni 4.637831825136294 0.3845220553227534 1.6698031674387375 0.3667349558369684 -0.8004371217231054 -0.7495629605810575
Ni 6.061497290977978 5.607552520264159 0.3142924550829345 -1.011557601385142 -0.1824403381185245 0.2514834568601153
Ni 7.8609855848667936 8.508582719281414 11.36098279696214 -0.5147039996515006 1.2448237639062818 -0.28297021461448685
Ni 0.08224371939966064 4.874142821968172 5.760739969016431 -0.24725502060106452 -0.2050825009980726 0.02925375465879478
Ni 7.884462692017463 8.654236240974901 2.7212506713600306 0.2993327151329103 0.2744557493855725 -0.698639691368629
P 8.462303910824456 1.63567085768712 3.6743599848806374 0.5578337409614392 0.20380003474122318 -1.179017406934434
P 1.9925192842127866 3.208420906911745 1.3832491801139501 -0.7287272547826288 -0.01667463244220354 1.252259651359037
P 4.705759642258464 1.1442365599045499 8.150241195569103 0.7575727182594114 -0.49196439196213987 0.3222795537370708
P 8.589577388139533 1.4076268283904603 12.306288921627337 -0.5329662882957982 0.8436128857796309 0.2363805397804058
P 6.4383197196747926 7.635273957086062 1.2578938553969141 -0.4422240873142191 0.7495753018762316 0.03374855720535478
P 1.7526151282888036 3.2611926168860146 5.932189491259627 -0.845826605601498 0.4442552588116349 0.04287468787633906
P 6.945099238241689 4.028228520820896 6.088138899644852 -0.20082141172887352 -0.023100847683521507 -1.074609535540304
P 2.410190258377739 8.358201356677263 10.09667258604361 -1.1894478582391386 0.24765662691485732 0.6745605389322382
