# total energy = -381172.2081444327 ev
CRYSTAL
PRIMVEC
9.26455593736269 0.00000000000000 0.00000000000000

0.00000000000000 9.26455593736269 0.00000000000000

0.00000000000000 0.00000000000000 13.55961408999630

PRIMCOORD
 96 1
Ni 4.976141092628452 2.5608436312392633 2.590239139980021 -0.26783361608336453 0.8590734433090753 0.30008399147663806
Ni 5.914881462216529 5.2493713689631685 9.884863087063652 0.28838855741658076 -0.2993877367405618 0.16568163060294694
Ni 2.108872282026283 2.5134276352308174 9.611691177429764 1.756425727593691 -0.28222510891834623 -1.635097426295139
Ni 5.885244148572329 5.682405966350971 7.104939581027334 -0.13408894339833036 0.874034949714914 2.92780670102879
Ni 2.771667860463217 8.360205348588792 12.867829522002019 0.020205785523913587 0.7369288167568147 1.2685504180992606
Ni 0.8188329311474941 4.631907261505002 3.1931402923530623 -0.2728434105931301 -0.6135613735410466 -0.5135230919695221
Ni 8.369923867504943 3.406326983277319 7.170201890656544 -0.1783988210592992 -0.5285694447796833 -0.5323433099998186
Ni 1.3832444869169618 4.045609119379466 0.5659642953026869 -0.035720336219744936 -0.6517707947312323 0.4345038358518259
Ni 2.946943989514367 7.1842738242902335 6.884134645961274 0.6445591074741416 -0.7403216444884475 -0.8231348204309371
Ni 7.071941086579721 7.723943457640758 6.863456157666852 -0.7028658136348347 -0.23302627859619224 -0.00246440238009253
Ni 9.279564267678692 8.05595733981244 2.887153326474174 -0.20181308621818148 1.2442928311034764 0.3187460866625156
Ni 8.83761716771955 3.472596350109756 4.934749837183563 0.9348873051155963 -0.2701388671777735 -1.5295032479023916
Ni 6.962813885137071 2.0371090336711792 1.6334995916023352 0.4414499281523559 0.35640940554124423 -0.6271694512427843
Ni 2.3939426605295813 8.211740843697164 4.171519989905528 -0.1729532245636957 -0.8033686935476035 -0.06328307632936198
Ni 7.814050526257043 7.1646144371214335 4.537561658661701 -0.17753055952173294 0.3644595295392304 0.616043516532952
Ni 2.820890444830718 5.8050964773200695 4.015543783262505 0.4960609306290167 -0.709406957187462 0.4231768408747809
Ni 1.6957750084779062 5.006343544169587 6.005200689158057 -1.1142158370780166 0.38721713495072024 -0.3384083409781333
Ni 5.111162727217566 7.131067480977123 11.809650500491141 2.109219390759219 -0.6726710352190092 -0.27771590819408304
Ni 0.5088223687335403 7.525070505253635 10.707253607595131 2.47561547519953 -0.8589762556095787 0.7318164352309139
Ni 1.2368552424993275 6.300138745924074 13.473659200427868 0.14963897531778747 1.1728557582084123 -0.4859240993053308
Ni 6.833758624410683 3.00515319289871 9.50458457558255 -0.4061772209929908 0.6370165192401932 -0.33015175739629593
Ni 0.8925472949303781 1.0286899407576762 3.336519482627839 0.37455779431549685 1.534540296105667 0.5874960439125624
Ni 4.678674738615325 2.0208775321067405 5.188695014399254 0.24021713991767663 0.6297294986604768 -0.40075759263931626
Ni 0.3251405083071529 8.614230200983394 12.647648091533727 -0.7924926700650481 0.30006265132039933 1.5867372898241963
P 0.9301613910214861 2.419225633000673 6.193204464812647 0.3374287506736834 -0.5880318618113743 0.09064038529639229
Ni 8.337877769382 6.57253521224692 9.445003291500894 -3.1097670141871023 -0.13480216741527104 -0.346241720979623
P 1.7919966838479178 5.212906077777306 11.700441770958442 -0.19074962931516828 0.0423614956853464 0.5285792149716961
Ni 1.6530376130916302 0.3578073316611545 11.07474703222753 0.4077394232737881 1.1638268152369247 -1.0458777148232503
P 7.582584866961417 4.894603738023071 8.408303215895835 -0.6260456220509864 -0.031822800937551646 0.5025051435924637
P 7.252711097153538 8.59121704465573 2.1604128582267883 -0.5286542911840056 0.3907673141958238 -0.3839117247265711
P 3.272296656146763 0.9531282245707118 8.702817882466935 1.3363637781988082 1.166162919569269 -0.39984922189243394
Ni 1.5575663667323032 1.2945548953208594 13.407461170674225 0.8636446076195254 0.6442487753225743 -0.5390276639985296
Ni 4.1889132667531745 5.041771205118454 5.79630070815039 -0.8723102537143236 -2.7105435988041258 -0.10424306368149143
Ni 1.118898919486523 0.6652895968279992 7.790784447559112 0.09972974919217019 1.5011599208730082 -0.9648095465963256
Ni 4.940852400014896 9.377120039067702 1.6207802830990143 1.0462914053219015 -0.03507678909847507 -2.041287759914252
Ni 2.8974249393648663 3.0942967477234977 6.69404263945473 -0.0061801606687829054 -0.9431120070182338 -0.1022633142473013
Ni 2.759105122951014 2.147449891908887 1.8414629260299995 -1.1594340854858676 0.9626238517989164 -1.3185246931348582
Ni 3.1022642656147177 6.95623605059897 11.123303495041103 -2.9501215624759065 -1.6185971146472706 -0.5144211783037592
Ni 2.4774533654963906 0.983895814008783 5.303625533524533 -1.399468677079093 0.36056713646335964 1.2706744064207987
Ni 7.46927935090372 8.004715082305072 11.48422001159097 -0.3093453621739059 -0.46846528039893515 0.2129413349208591
Ni 8.73006494074377 0.012935172650838633 9.602023613569893 -0.28258429202997787 0.3202054448168615 0.28159621708509563
Ni 5.071306608650091 9.32468265387665 12.790010960049589 -0.38627199742863155 -0.5348069410489628 -0.21017199970583803
Ni 3.994737444099596 6.3550868257064295 9.038485705401754 0.17896420664446597 0.5668158898553916 -1.061494852535217
Ni 3.4762929078290545 4.535240887461992 1.8903047371587463 -0.061688992369364724 -0.12524074897908108 0.5690000419909039
Ni 6.795208808195142 3.5057449303595063 11.869095595604191 1.2853057831807284 0.36787909674374064 -0.5466211600750716
Ni 4.219606739745746 3.832014788004961 8.347216441514966 -0.5863488176819966 1.1737314759451465 1.8697524987440057
Ni 8.88713621786905 0.46345661889873035 5.495114635028746 0.15893505590773274 1.3023359991901378 0.1029495416810485
Ni 6.2375659368109355 6.548873537021135 2.86506477280412 0.019757899353217586 0.3165282530755904 -0.641478925886921
Ni 5.8116928409695445 9.113395196868321 3.74181600028737 -0.4963578930441452 -1.2179120271171027 1.1874408551114388
Ni 2.135554202406182 8.96520862864732 1.8927190803708998 0.014292248252956032 -0.0260694433935422 -1.8658863309203801
Ni 8.373249842996742 7.337713395586029 0.7458588053640385 -0.6307309433417976 1.2468204826213365 -0.7133733980343778
Ni 3.4418750834501224 4.492938926193027 10.514748184332001 -2.0924606832436417 2.436462202038836 -0.37764234677809155
Ni 1.5802089408324678 6.591286672958349 2.239844379324407 0.14002639192868788 -0.32853530483879545 -1.5230443796509252
Ni 6.324773199497043 1.2494272445672174 11.078529750314722 1.1046803867837556 -0.9730540459933049 0.5089737820359428
Ni 0.8202429965231263 6.933658328388619 8.055400540015624 1.0576795925541849 0.08532514373106596 0.9310411918966288
Ni 6.030178857747032 7.667670546395096 9.437708380352584 0.7475788402714931 0.11526409738234342 0.2423131032147569
P 4.2153357795738255 8.934774563213997 5.373688735910986 0.8198998584334073 -0.17001008277497173 0.8325681979296952
Ni 5.006139723944463 6.862432424263387 4.948893107896048 0.5656354963940452 2.030402994680948 -0.38488720126596293
P 5.2155372115925465 4.63377870175387 3.3149590086319702 -1.1751610093028213 0.5883499072724255 0.23802553158299655
Ni 6.306021738785614 0.6569070268419808 6.2016250194769835 0.7022250947270422 0.28246756394645545 -0.044607868517361884
P 6.841818787858777 2.8641095971127424 5.270187899137334 -0.8402948771499915 -1.685727846857497 0.11983449036184524
P 8.604613592179806 1.3515319127987693 11.387486006291443 0.059329233887936525 0.275500388600003 0.6914141201544672
P 7.088765519708157 5.823116038132189 12.90769490512518 -2.194532707415743 0.47486218506421446 1.0695776295433514
Ni 8.522492570566117 2.9579224880040127 13.506378831749286 0.29225986744652893 -0.5999023879967152 -0.27362554017479324
Ni 5.014051654501558 4.805321214862971 12.305973130691154 0.06261998882406634 0.6471914028906661 0.7562036058260266
Ni 5.982401544066775 4.394280672677212 1.1371297121683166 0.019050588873547835 0.6081186052589205 -0.8688467206457553
Ni 7.351035826664604 4.36958136721443 3.1864142249239626 1.190388624885853 -1.5242890506913036 -1.4853430084454098
Ni 1.1295531585271077 3.107767411693072 11.514945910528448 -1.3429604575797194 -0.03290626380971752 1.4048140005514063
Ni -0.11623496856607339 2.7477189840111196 9.181770397208519 -0.13478031303840016 -0.7566638332918969 1.470891866017086
Ni 3.8084457583360503 7.275270290252515 2.4598219895675757 1.4170275118984628 0.3779143694925556 -0.3432798101378217
Ni 4.735308967532799 8.528987024103028 7.622509543240978 -0.3309539415826171 0.7510763119017904 0.001948896196254708
Ni 8.792128199294098 5.158921511786448 12.058048988216747 1.2138967353101224 -0.6204051359357573 -0.9186178785316115
Ni 8.62166037464474 5.955200808568377 6.619871533076454 -0.3976930947813796 -1.004402478397599 -0.4224116805739822
Ni 4.209934543608033 8.82314593173573 10.544756080203701 0.39259639698476256 2.2215714567010902 -0.9252238138839033
Ni 6.497279226397642 0.812375535833331 8.796541833623605 0.08786282255125515 -0.8211666409609729 -1.2630207465302827
Ni 3.7038211309575075 0.7928097206769736 3.279758329297447 -1.0434462225636223 -0.6821296095287479 2.0969842821456077
Ni 4.544764850708706 2.7566222220267735 10.831379198240219 1.9696629964884145 -1.6817220681322131 -0.6784490753533671
Ni 7.3817200351014876 0.4977141664642697 13.33281571904475 -0.8298253450772355 -0.12601747924410553 -1.1571959401839684
Ni 7.659851261394875 1.1392994711103208 3.637393340222815 0.8028963818968753 0.8354406343814839 0.29527988521977533
Ni 6.853362424245359 5.0302738915103085 5.241264882736638 -0.7086896194054634 0.22233794564441065 0.11705487073417904
Ni 5.498865853626602 2.2903741924994097 13.330063219550004 -0.5928627075411145 0.17652500107535404 0.4506380224095271
Ni 2.5138723339038154 3.1213863085536455 4.129824857034092 0.3819859684587679 0.09669353346900766 0.11572021108315556
Ni 5.712765915338793 7.257287787663146 0.4293324809350905 1.4066896203075645 0.21487583293941057 1.2030934740470312
Ni 0.818873695192519 5.037472451279469 9.69658785992742 0.7153696025288002 -0.669967520244917 0.03973357114419609
Ni 0.8991158649127907 7.908363703155437 5.984467539985079 -0.5220036186367074 0.06617993826118279 0.1694971476942952
Ni 3.6418783116311166 6.281183464987521 0.3237971477324705 -0.5553683101400823 -0.18660218280569799 -0.8237220603929749
Ni 2.4184474103229263 8.429559812465154 8.988979625630217 -0.2999703487169092 -2.523970726574466 0.9295800339700699
Ni 5.9188837502735145 3.100633703813724 7.236751973526311 1.0693842825856228 -0.7235374830515733 -1.2057769344164655
P 3.464415747437725 1.319810074124889 11.959837286285067 -0.3298702216001351 -1.5105431618601213 0.6974045334099473
Ni 3.2776330402227427 3.2203780860742093 12.827516660839153 -0.6475667839522138 0.9695732865335559 1.2491205915094228
P 8.40450845388625 -0.10461814218956102 7.5031311109301475 -0.9644822451638938 0.2005023378265579 0.2016225674739302
Ni 8.490752202780861 5.170965434180152 1.173473637674673 -0.007719223021128642 -1.287744474529208 -0.25062933638993606
P 2.3899218433612215 5.2372718592353396 8.06273621520896 0.21179436580060942 -0.09051105880737961 0.09407563623018637
P 9.02861524777233 2.844681823836128 2.291846330398148 -0.09248977980030522 -0.0488635584699223 -0.19207169056070147
P 0.6601783414552247 6.540164854674917 4.394860633863247 0.20122661758709215 -0.8496179543231303 -0.045298981047115536
Ni 9.033775605290247 0.7548945265260232 1.2015211535629047 0.8446780938193518 -0.30309552460945216 1.6385218785956555
