# total energy = -340885.6037521014 ev
CRYSTAL
PRIMVEC
9.12884181343530 0.00000000000000 0.00000000000000
0.00000000000000 9.12884181343530 0.00000000000000
0.00000000000000 0.00000000000000 13.36098275143611
PRIMCOORD
 96 1
Ni 6.643715485222502 2.137554832731666 11.373229685299455 -2.1156476628830663 0.7704881407694989 1.7097707467393135
Ni 4.812917124916173 0.659777915307227 6.179655374592328 0.022394308534800143 -0.45341712781656107 0.22874873426676087
Ni 3.086187561611564 2.021089068508161 5.251320625548686 -0.9711576003015405 0.004132534111134818 -0.49322191851832475
Ni 3.982831536199814 4.784964611195185 5.16233632680711 -1.1592816190684034 -0.8407630750356616 0.8640626689935507
Ni 3.6951634720666355 2.8160286161318333 3.1296098107184402 0.08840661086986709 1.1207217565173342 -0.7273661127690441
Ni 4.9588690482901665 4.830170635998037 2.7513608134054746 -0.11708572397211449 0.3479162804685686 0.5131441113635485
Ni 5.465108972652485 3.023152908690785 0.7644163520399048 0.14836396526010578 0.2349731179099179 0.13634020132635227
Ni 5.851478074784138 8.341515748729002 12.822495403882158 -0.4515723612983384 0.2855012085664567 -0.6027498847478394
Ni 2.6534987159723036 5.683270034998724 11.640743092413299 -2.588631142867329 -1.288402162717865 -0.7731525749755394
Ni 0.48465295205793607 7.406001165576424 11.512825196098683 0.558459033250264 1.3177618468269048 -0.02084136222538346
Ni 0.5662100250766532 0.21254956326580454 4.899967022071376 0.6744116720591997 0.5396521849564061 0.1701556072139005
Ni 8.968731085184901 2.522253356806186 1.2891476584378985 0.5789219290903062 -0.70180883312523 1.6554320240874327
Ni 1.8151971695979137 1.3058899543765965 2.7920316295810945 -1.7181168047111637 2.1100395726676693 0.2707795860855659
Ni 1.9579174829597477 6.762326527278938 0.5136899721897846 -0.9277146986265571 0.8927762348781592 0.579757280507408
Ni 7.817045527207696 4.125579236087175 4.367264410976724 0.5386029177562853 0.04356374352356369 -1.6801752924703839
Ni 7.842560640156802 4.094230793200866 13.244501678797612 -1.9182080231422318 1.2824852830127977 -0.20500099702785982
Ni 8.028989848259359 0.22892853129918067 7.118050107346137 0.697684012323579 0.6068088853085615 0.5825199308542097
Ni 7.059926771336491 1.1295024723005214 0.5684374624861638 -0.326788754461334 -0.5114299568859192 -0.9905429468066878
Ni 1.7604880204372721 6.774139248622817 9.5638046823984 1.7089821893997472 0.11241634352090317 -0.23528987781938832
Ni 0.31064262039758467 4.900134079877089 1.5369007744999956 -0.10152540764001226 0.8391324814107743 1.3047014140985207
Ni 6.36642691426397 2.2799465077871783 7.109191479222411 0.8521448345100421 0.24436587197872753 -0.3210217700705697
Ni 3.5973022875176484 4.0928432092408435 13.144201267708373 -0.8872990138136719 0.8607271768624144 2.7216260818705322
Ni 6.114790388882176 6.142076497148681 5.031104660903756 0.5412082165896163 -1.549311026656938 0.21735206239404503
Ni 5.614255990671268 3.2768616811707707 9.206598578416019 -0.5858780486931652 0.3602071820207796 0.8691205431324321
P -0.017504554232526323 5.992582583139892 13.003629883716206 0.29125996542710486 -0.13773733878419506 0.49107350471675426
P 3.874189189435122 6.245478888695916 13.194504837795943 1.2708070753439211 0.9268544075087909 0.6272640678391197
P 2.3725586082768677 8.975805937612648 1.4584182954137503 0.5376696073087386 -1.680808040958376 -0.4463615065213603
P 6.790790256143093 7.936058238305191 6.112088251696869 -1.9381764958443588 1.5518183664598242 0.10829923602873606
P 4.661679602115514 1.512119620435007 12.58261226237227 1.4801923174824057 -0.3063554263076466 0.3918991138074218
P 4.132654088514923 6.622408768362677 8.89939022831949 -1.3941012421195924 -0.13273551469422945 -1.8498076801909626
P 5.026586797076022 1.3382425698655525 3.9550643379682233 0.5326101905079601 -1.1792562624181175 1.2016297450173112
P 0.40395764170912785 5.892357028553761 3.919591484337584 -0.40648138249697097 -0.650586287504828 -1.1804389698723088
Ni 0.9444882346835143 7.786701256924037 2.812486625497038 -0.10800021673107851 0.3364463321557561 -0.18544595771406772
Ni 2.1795748917315714 6.574938790782944 5.071521695276161 -0.18233903665396986 1.873988134091908 -0.9604011331159846
Ni 6.024122731704888 6.085952377502489 9.634831636352073 1.08918537647195 -0.3624324718068726 0.5009974486986856
Ni 8.704871040576325 2.8585872768004323 10.373773955231162 0.9868392727028553 -0.6651909247918801 -0.04818015924965251
Ni 2.2778833895308286 5.827304901585843 7.114923479015164 1.1399116991822238 -0.21330617445944552 2.508235061006764
Ni 0.9107206487090086 0.5033168692044289 9.179797211651339 -1.9349726441950805 -0.974132109548832 0.8437962054350306
Ni 2.0586633815308875 1.5462067158739916 11.64018166864 -0.5990300126940908 -0.4599042782028015 0.5260986146416875
Ni 4.22169681184429 7.2523992727386215 2.006806082561767 -1.220727899299343 -0.47201160298929673 -0.9615491306774988
Ni 5.850108748507799 8.441494824585392 8.51902972988841 -0.7767994276995073 -0.8137600640842567 -1.25642483848032
Ni 7.081717316813957 0.9072288667043454 4.8668585384778815 0.30081624165697224 0.10743020316022144 0.5382046538766021
Ni 1.100381466823724 8.04303000701275 7.0298545405397315 -1.5410762974519716 -0.852058702554139 0.6947334143356874
Ni 5.1539706561428655 5.083276904916434 7.6081045951221355 -0.3096446385818796 0.03957956206483506 -0.6746273876144318
Ni 8.100176556945273 7.821856426858565 9.36790612665287 0.832184332227715 -0.41501898765433687 0.005965473554815532
Ni 4.537746445265044 0.38097395660287936 10.443839642138848 0.2419986572981316 1.4579877563609085 1.0754687982168059
Ni 8.219873931180937 7.431233284428421 4.680739710997961 0.4167218292780565 0.5090971949876845 -0.7157483260244577
Ni 7.232452753313291 6.432328023523217 7.513094347880485 0.5813151119128311 -0.1200293799814707 -0.6528043782020693
Ni 2.268873222632522 5.6699510547508725 2.8064606769969647 1.3898738343018062 -0.3930309134190199 -0.5638138698042741
Ni 3.463783846732809 4.57394230316959 9.525646123497769 0.7213471602684738 0.8280942213187414 -0.22905469554295388
Ni 1.298997678785693 3.668388578943298 3.9763883996275493 -0.601963384290802 -0.37742123190622096 0.030499197030121668
Ni 0.7726934729382785 0.46272821260538927 0.1172955759469661 0.033908222711670634 0.3140036868815237 -0.35637623831046367
Ni 1.4222918167072054 3.9560840296020032 8.536077842028824 -1.5281603607212522 -0.6069114723246968 -0.8606896387562596
Ni 5.630605746410748 3.162942863821255 4.871401050178588 -0.6105917493897614 -0.2766568708019494 -0.49795403388667137
Ni 4.476364112717713 7.336402875371063 6.400151594681817 -0.4624980070719067 -0.04388975940441473 0.3389642134816033
Ni 8.165785543265569 8.088929823795613 0.05184543147472582 -0.22963319375424324 -1.0338004719437421 0.5413959071203902
P 0.35350892303626724 6.088006366916996 8.235055195164609 -2.128367938663212 -0.36857252326633944 -0.5602315517696544
P 8.861111168706541 2.1865219403735283 8.254201115160372 -0.1694755504277404 -0.928558534684091 0.535395209452265
P 1.8336922031703249 3.626386777627077 10.822235613805475 1.5581970162926584 -0.719042166284381 -0.5246474840174578
P 4.120129317507347 6.620929895984231 4.154477497823021 0.2589321998286766 0.035793869770157714 -1.3522616803759873
P 7.011333946210161 4.240867379713029 10.771143311782735 -0.028174919772319215 0.9979901471133521 -0.4255767085655251
P 6.255374553252922 7.995258777652223 10.653112864067467 1.4715948056213817 0.31686198226592527 0.43976534136108125
P 2.7010325954449317 8.800669106868963 5.91524120928393 0.7099854553987515 0.2601149072828681 -0.6122156581464295
P 6.98927866431927 4.444979154464035 2.091608458855406 0.2704700252649471 -0.37675274508428663 -0.3891876284135297
Ni 3.0562267026852794 1.9193572550180573 0.5951073739283154 -1.1092425522331413 -0.20220517945027755 0.4172033969001653
Ni 2.0054422335905335 1.1914690507257566 7.26852172031623 -0.7559850620573174 1.730716495753045 -1.1230336924799627
Ni 7.010010264143035 1.2546315074323275 9.277411917470584 0.9604849510790426 -0.22222353155373342 -1.0846718048723125
Ni 2.659076438337922 1.98891902985605 9.456276054338463 1.6616497228623703 0.6516077867908069 -0.9011850277671447
Ni 6.778822344487895 2.156259829666449 2.667547090683352 0.006828592886059207 1.3903978251260762 0.860436385094873
Ni 4.081505187672762 7.310723443268797 11.060114974530986 1.1569216034766592 -0.3649459822573457 -0.07788488540293682
Ni 7.224601949328951 6.213409267304071 11.948446225737678 0.7682157997955544 0.6204740415004798 -0.7957949949654036
Ni 7.738172333690603 4.402648714841494 8.603176655337776 0.7906682152617996 -0.704703895284838 -0.45095581076026203
Ni 3.4495063380915205 8.822952609805911 12.886882038279776 -0.6964629954322844 -0.38034740441408044 0.06734670487577434
Ni 9.522568790912743 5.131157680379068 10.605894842522579 -1.6630152357513297 0.5612749054325044 0.15994858477391163
Ni 8.925734240107873 2.8227291860440493 6.291099362918408 0.418858158894769 0.19313869837263511 -0.9869256617690745
Ni 4.077205503165059 3.0879950722963314 11.30069282090507 0.028746990225705333 -1.9607512958210813 -2.139697247633102
Ni 1.1123402496370796 3.7974156295417476 12.925882276398264 0.5792433169854669 -0.2745061430075337 -0.8085137280836526
Ni 3.090478117277425 8.6058778796389 8.462125094264707 1.7398523966160422 -0.35452350137244104 -0.3322685466289826
Ni 5.783121307069322 8.125445191164639 3.75479671851699 -0.46999251567673894 0.9187703449490757 0.4936978297134788
Ni 3.1310101750570425 8.80518788358088 3.662111587292563 0.6489672638441661 -0.967540315263927 1.7215962786193317
Ni 3.8202833783565993 3.089756938771887 7.281896386499319 -0.2755934625344415 -0.3056648279985252 0.46567151970388193
Ni 5.190056967945305 5.072039300608616 11.662079934451205 -0.3499762483213908 -0.04006267234884068 -0.12983788143146024
Ni 7.857221560155466 -0.01958136575163962 2.738667158823817 0.6125241905257838 -0.38114316084249844 -0.7924826427627191
Ni 4.5753298871296115 0.7416481076011335 2.0123646343595167 0.8704289775312105 -0.8927425534267464 -1.4569580295448135
Ni 5.80094993518725 5.805769963679961 0.6148457557596417 0.9054998530924148 0.24908436050031937 0.5982810503432083
Ni 8.10517916227483 0.32137631263570954 11.15083557899096 0.8509294740457023 -0.4665287254978546 1.3554549905023043
Ni 0.016121534693424505 5.42260508503494 6.026578390160455 0.037726053795864065 -0.4318244892474498 0.7089511005969662
Ni 7.918667794595693 6.707507832016189 2.222292394248225 -0.6794453778283653 -0.8062501288604567 0.2721661820204474
P 8.908225121454425 1.781110074158929 3.5691325073608144 -0.6406679999498515 0.8031066981354685 0.6038302622962116
P 2.217213106647194 3.6471548928182096 1.7007324475062313 -0.44106451978847905 0.20863319446380843 -0.22958357146323044
P 4.891699030014844 1.295866486033799 8.525175266216618 -1.0086792513960823 0.971554578629643 -1.1828537499613887
P 8.511412624255232 2.2295918161852932 12.52306208838268 0.8876903357148196 -2.5568757048326027 0.37030236147325263
P 6.1327103054185255 8.05796479226668 1.5848262812876566 2.2327657827550125 0.3993879659852993 -0.23932548134134266
P 1.9728796547392056 3.9649390061889918 6.138022378486535 0.37710344355548603 -1.4613132211897155 -0.06126167502395902
P 6.759067530741252 4.300287011264274 6.2602621351752665 1.0120779926649859 0.9003242224287462 1.3021267113928092
P 2.3854759194836603 8.598437873537462 10.534106543159263 -0.9433351787726334 1.5510426646360642 1.5261857534933843
