# total energy = -340854.1554235206 ev
CRYSTAL
PRIMVEC
9.39616472481341 0.00000000000000 0.00000000000000
0.00000000000000 9.39616472481341 0.00000000000000
0.00000000000000 0.00000000000000 13.75223685364645
PRIMCOORD
 96 1
Ni 2.8306885790489558 0.11516503232414338 4.620930444140964 -0.5670038374964816 0.376233639356023 0.776838765577875
Ni 6.449884507817856 3.5263336329887074 4.548799846166036 -0.47331618073333326 -0.8829373944108665 0.41451299455219576
Ni 4.423413665875719 8.026645510810708 8.199565009111025 -2.789847476041776 2.2183292956147085 -0.4994604432288689
Ni 0.5494952288841738 3.298063207643772 12.72924929780107 -1.0898458928740842 0.6192435115274884 0.2437025273631158
Ni 6.314824036347201 7.6421826395734165 10.323817978672928 1.3105748421601622 0.283160476248422 0.8327890556912496
Ni 4.917651929362326 2.194624605504045 9.10718471994771 0.41558077369507784 0.5891292086406111 -1.8340738143954736
Ni 8.83908489203446 2.2887365911900113 10.67645322120474 -0.4347216082895868 0.5890862712178178 -0.1329075214957195
Ni 8.543838604671796 9.236683601529437 10.66015651314027 -0.46629861176491955 0.49424598890746496 1.1829918182011496
Ni 8.830421628176389 2.5988945919396196 5.701402000892093 -1.206812060549199 0.15924641650056445 0.5672527202824941
Ni 2.8534930707881574 4.0699769304945645 9.68974317319608 0.9292897564231609 -0.3770409657486668 -1.5802527105411173
Ni 5.86123358137472 1.2147643615653796 13.226158890913327 -1.755447679951138 1.4487847497054016 1.0913343044941528
Ni 0.36415024237787325 4.614334336518007 9.562356549440054 1.3055205675657064 -0.8812857177400564 0.6092619748347442
Ni 2.3636991932070486 0.47683562683634906 13.320938943909823 2.2905610964969263 2.53323569681616 -0.18811347724390184
Ni 8.133799373107308 5.157376279482739 4.866352628538533 0.12331884936601986 -0.1399752269757783 -0.6619500492570793
Ni 1.064247199154886 0.2664028805675155 8.436556954535206 -3.685581765106994 1.5085559562267632 1.709727295095888
Ni 6.354071816320272 7.057966702871074 7.887719457180387 0.11058006164311278 -0.46253091719237116 -0.868584211012988
Ni 2.697479152025199 3.726594091347834 11.915323443320974 -0.2194058595992802 0.9693298030641821 1.0970362399749365
Ni 0.8584401847703578 5.340592095066872 0.8649498476780292 0.4317057042813984 -1.57418773529396 -1.0596500860169944
Ni 3.123792540858865 6.596370715569875 5.245460625510405 -0.3063055469063176 -1.3445285733977876 -0.5876081440103945
Ni 4.5939728476021235 6.459609538287602 9.585144128082787 -0.3303142511160892 -2.9162547345251326 2.111668880740976
Ni 0.29740364677894826 7.361491011338903 9.826124745424268 2.9072530452471543 0.5706396344768561 -1.3193312481965536
Ni 8.937951337061193 4.625121133599426 7.194138740626339 1.272222210523893 1.5695972877098001 -1.2012445937637506
Ni 0.3628338397026932 1.6700649185141818 3.8105798303311484 -0.6187696572148634 -1.3681634392079083 -0.10845735887315515
Ni 6.63121169429627 6.13383511179817 12.874005671630885 -2.41686293975067 0.8742655776684815 -0.5391829586294714
P 0.7085271957504002 5.583426575704664 12.266857455349353 0.1650152006635416 -0.2912913328856725 -0.053186097104676144
P 4.375502622044574 0.9185700011839736 6.186264771235982 -0.11611873207315486 0.0779494200922851 1.0105091055159694
P 8.525337556367516 5.435775243529216 2.35413577677023 -1.8959772367684895 0.86761644778308 -0.5004431188571123
P 4.844437013980431 4.000755385112324 2.1581797014624953 0.7025135725017385 0.07565162519704391 1.0061621414011832
P 4.424062001240369 4.597956821437072 4.728156656905796 -1.6117726355262694 -0.8890090545262432 1.410787958746654
P 2.448039167599744 2.214676020984661 3.5977501224460515 -0.5463131419163494 -1.2121797526190157 -0.24083060513195942
P 6.715260387583108 6.435029171419143 5.910449752483399 -0.36352596198136744 2.0647843003742956 -1.786619734678568
P 2.143922900755495 6.464861994357736 1.9956974629165676 1.2322055609216394 1.1755307339374141 0.3749573437467607
Ni 5.890267730313383 1.3605458569645184 1.9341694971948376 1.4800419079474703 0.17496742678024707 -3.1149038211930353
Ni 8.566774642716869 7.395740031688878 6.6215233088688725 0.2747221156730817 -0.3808605966050731 1.28362942391957
Ni 2.1018750637003127 4.510431547209358 7.366151509032617 -2.8813460955734054 -2.5599597430745655 -0.45371871821737986
Ni 6.478232736733048 4.6345642791280195 6.850457103441987 -0.7741481061195893 -1.3942351965942954 1.4095085778135985
Ni 7.858059523672367 3.395379285494167 8.542394414156627 -1.8184422785058039 -1.5981401323444993 1.458171076016308
Ni 6.928666080364625 9.178493153510948 6.412378776781105 -0.6744234991337418 0.5923297178557799 1.272076686084964
Ni 6.337356039309955 8.226107295169903 0.7373264405714355 -0.5979480924838217 0.7955962486910363 -1.39346386564591
Ni 8.086743380264327 6.0326478140892865 9.014000135718135 -1.4595617857162477 -2.628965580820317 0.022461157216993575
Ni 8.077431781041602 4.658120464043626 -0.018396750876053743 0.7466537573540625 -1.1906038262204528 0.01966431119814678
Ni 6.481173736285735 2.154136531789904 6.341045913189636 -0.36766158141629585 -1.2130688400921883 1.4875803824163605
Ni 2.3878943173226 4.344166412753171 2.791882418817023 2.428990576252139 0.940648890189722 0.26339717757856573
Ni 0.97363998290391 8.044667354715028 2.809389352895507 -1.2089599601301373 -1.1874022885640194 1.1165550267341544
Ni 1.2253632353526966 8.287652173988102 0.251814395246426 -1.8071826464315845 -2.5953278381612144 1.626853698229108
Ni 3.305429800772546 7.490575522057135 12.563246316340152 0.3730637262684736 -1.7858406904206985 2.871847926274983
Ni 7.9488358708880344 8.52538453719104 4.556569534760657 0.9721477321289517 0.13094165601860028 -1.6403111092855946
Ni 4.9239003788911955 3.374454026695979 11.033227474289134 -0.7056258928784751 -0.8851984225309013 2.34472961211953
Ni 2.2085779100910714 8.404343143460348 7.0768050734882655 0.33350267614639983 -2.49894952193978 -2.041314756497446
Ni 7.335332088799992 7.290305667533304 2.4629565186855107 1.8939512074773965 0.6308764677807264 2.6149219582430576
Ni 6.30855679448892 1.0980076189401975 11.01710929335406 2.1962296355021915 1.5881398265986777 -1.5863714218443454
Ni 3.1849145922653364 2.855062230293904 1.086290601552977 -0.34775250119719464 -1.033814355900813 0.22278763158731954
Ni 0.3004780718704467 3.946830795869936 3.204642779680098 -1.3841356462664485 -0.7812587490224416 0.9451593764655657
Ni 0.808183858228828 6.036659976418351 5.449379010789214 0.926528648738256 -0.6592773875209227 0.4222445588684986
Ni 1.657370699997634 1.6892518868419317 11.35777945975044 0.3396265296559506 -0.9810990277849684 -0.8317747554941223
Ni 4.085734298704964 3.1771345678895395 6.494727703872796 1.3305965366977277 0.7958847264657326 -0.2850263258125672
P 1.003125147748415 4.010489811746775 5.5830507291164615 -0.05306756924894086 -2.3984330151802564 -0.43080761794716127
P 4.090770642986881 7.852957406237515 3.722895760919919 -0.12807230489060523 -1.7597085121100209 0.8862060378598092
P 3.454631500124329 8.086611833958454 10.66041772651907 1.0071941822101236 1.456511686036014 -2.088065382389423
P 7.355045242351227 3.129007412270178 12.30239375026392 0.10282535739835841 -0.11617761033554831 -1.9080902179819397
P 8.418164901741504 1.4213484387710167 7.7095042804522915 -0.7364212809927768 0.019549382886837302 -1.053319001592644
P 4.400778305101209 4.947278036677407 12.557373713399485 1.02907735543646 1.3096739276124476 -0.02328725266271473
P 0.8972707750305241 3.080081582650886 1.101317887765793 -0.20442815524352534 -0.9165298856543312 0.6749544319365473
P 0.7703558387426924 7.992687771566589 5.093512427215329 0.595452836865794 1.747441778927526 -1.4453176170924076
Ni 4.080697954423048 0.7661848812301125 10.712800405133358 -1.5169907172576778 -0.13746583029036327 0.4394336690532754
Ni 2.263310569498096 6.340278246533231 10.452387579565322 -0.40459033612184514 -1.3322001337394218 0.6498614935236615
Ni 6.715401330053684 4.74288326584805 10.751237296092382 2.1222253161005837 1.1359920524128435 0.4893866039326346
Ni 1.6275472732237466 0.583989489132951 2.1454723283153605 0.2969045653073919 2.273033372025808 -1.457877198924973
Ni 8.542034541048423 6.8485355877598 0.46605822591963547 -0.43424081199842635 1.8722271855367432 -0.46673827040549937
Ni 3.773114502802628 5.659676452286295 7.600929718052283 3.273152135446389 1.7250970926837388 -0.29443373516939614
Ni 4.630805813245992 2.175080582917502 3.47886232966576 -1.4723224278160256 1.6223416692913675 1.9023538297187947
Ni 8.187789735502633 0.1911959782681467 1.699115980549313 0.7098437876145646 -0.8072178920903645 0.8086497394408848
Ni 1.4223538283944592 8.493108711429132 11.541193534409848 -0.4150997202936012 0.7527359589924004 -0.004495316767192258
Ni 3.8745367046291386 0.07592382966636553 2.4654869058405855 -1.295406104839524 0.7977222938951036 -2.234617491251771
Ni 3.198933670005298 0.6365131102178139 8.360370032257098 2.4460004805465747 1.3199992207978557 0.283350480772041
Ni 3.669117751846929 5.303355094340684 0.8385165571297303 -0.4580366288664434 0.608033758854598 -0.4054310868555856
Ni 2.1739436469881888 1.857819081650862 6.540756695913515 -0.9554193636306771 0.14257255538930932 -0.29145434082609806
Ni 4.723545958885019 8.013660011188302 5.928754420945343 1.4165904243610443 1.1429443153609606 -0.3768296210688091
Ni 5.972737867929769 5.907857350641271 1.5055944515166615 -0.549885175538324 -1.1748038830737186 -0.9070306879146444
Ni 5.928820194098279 5.729151694115572 3.8995154688810922 0.46454074853354826 1.7003818493252458 -0.46831769907747733
Ni 5.940208345720822 3.7249591586891517 0.33864717213537615 -1.5648834271738985 -0.5891734316149853 -1.5532353014120088
Ni 8.41569371042407 6.677393843821681 11.47054847007479 -0.49214076963900405 -0.5127458474838653 1.1643533771643562
Ni 5.737561261526608 9.245572373340432 3.629050626311576 0.5966435147397854 -2.611227025889974 1.507715719713655
Ni 0.24432659159295692 0.3100847106649088 6.075807217429078 -0.3159618390491591 1.1737918968694365 0.6389451037214738
Ni 5.473726352772988 8.78758451328598 12.142028467626046 -1.1466775571511476 -2.7233461498854328 0.4557216075800216
Ni 6.058092628110613 9.487965234237086 8.74618877006133 1.0977206676364708 1.1015912063354705 0.08112370405520868
Ni 7.193985583141647 3.5399110909875318 2.374722773639035 0.5356890865436 0.3506383073854219 -0.35009786150091965
Ni 7.789486313654777 1.9246540011980144 0.20066167459203277 2.3957148449181447 0.666592176014781 1.0661436641611381
P 1.4591492093795078 2.420395651037432 9.232124582414539 -0.054354406381164455 -0.017210193230699392 0.37667638332039644
P 8.826935651070807 9.46532047729787 13.244435370881156 0.4070912481668279 -0.8899325947817769 -0.22737473673736971
P 1.501103084787639 6.3933289924580485 8.189016874613115 0.2893000134872566 0.3349712902721263 0.20098827632404093
P 3.828072670162574 2.1530653690135266 12.947428242252762 0.3531659589032821 -1.2078039921488233 -1.4615227660973604
P 7.985856759826005 8.063957680854536 8.91505288367494 -1.0168949544376553 2.613546932272402 -0.9737981232481809
P 7.066254120140944 1.3562424135295967 3.7639739137775376 2.740730921020783 2.176292787368949 0.9027978807802194
P 5.397974472920725 4.38040742002062 9.155868128517612 -0.5033880604180492 -0.022714925099012493 -2.193772689321267
P 4.199484268624524 8.5382854713311 0.5692863706024597 0.26745129304328136 0.17239529517769667 -1.2250887473711998
