# total energy = -381168.75016911887 ev
CRYSTAL
PRIMVEC
9.17826180051437 0.00000000000000 0.00000000000000
0.00000000000000 9.17826180051437 0.00000000000000
0.00000000000000 0.00000000000000 13.43331389797133
PRIMCOORD
 96 1
Ni 5.29458122352996 8.544915753015502 4.030651982844445 -0.011904207636753691 -1.7210879715243457 1.9206546849105117
Ni 2.954142846108549 0.3006927029155281 12.85077791298675 1.9262925999225795 -2.285631777516109 1.9353932766722668
Ni 1.5616904068135067 8.030345688968906 6.724488313177481 0.8157755518523886 0.7736030322493967 0.34565808056201114
Ni 8.064406218144079 6.1622481935043645 9.495324752231133 -0.1780182977914289 0.23263829912915415 -0.9106400025324575
Ni 1.8562942509160976 3.5916832604351163 10.59669504643854 -0.49288407556293173 1.5857052490152561 -0.5934435197452489
Ni 0.030514966679789514 4.890838669531927 0.7800632155097648 -0.15427955941359237 0.22102205504646452 -1.5568443589195058
Ni 1.9882684759254796 5.712293091838049 6.603803350061244 -0.02682791882612154 -0.8716042287862344 0.07685618702810634
Ni 3.881560299761309 6.838126206959118 0.6134575734473605 0.22434957675780073 0.9409787627253149 2.6672529064362904
Ni 6.900134543016103 3.780571886257016 0.6626603987780717 0.8065792300651012 -0.4404986199826801 -0.06146273529117158
Ni 4.3327452884956585 6.076220346573915 5.356735493948003 0.43972163260733954 2.514628623237934 -1.7906201140872129
Ni 9.070426305010578 2.649534696751057 1.1943396604628898 0.5068698483190626 -1.117325329241276 -1.4609686933661032
Ni 7.718275612847894 8.255662835485028 3.3480251935603977 1.515279648103842 0.9711324034905597 -0.45413600826045664
Ni 2.3792991374665973 1.7115347073561853 1.1008746680755164 -0.6133875669673436 -0.6868411560718043 1.0703065372895761
Ni 8.691253957588113 7.467644820558361 0.8711556272472373 -1.622085330306187 1.0092065846544618 0.630923776078894
Ni 6.526817926559352 6.937728702946448 11.330623729504488 -0.4701719786773967 -1.0800523038224301 -0.8138996749859145
Ni 4.843680760908365 3.877448438518927 4.43019915341861 -1.6399398419891047 -0.0032154216135041394 -0.10162105267761208
Ni 1.0487357168264173 0.5490867528283465 2.8331127803523266 -3.158755014050031 -1.1512343232838946 -3.105507724690116
Ni 5.405858468401909 3.2708387661272385 8.667966871998448 1.1216468394347652 0.3008812905669528 0.8318976542252319
Ni 1.266967245308793 7.736338431876928 4.079482170750064 0.6588516128374137 -2.0206860245035005 -0.2630639626088631
Ni 4.464884722215672 1.52861195164042 4.6166940885886945 -1.6929212792821424 -0.01702018870708036 -0.19216836403956583
Ni 4.9338021125577916 1.1038695348687957 11.959639374362476 -0.4034230552866213 1.8103438177683853 -2.3344246306490954
Ni 6.402323984836892 6.0415540521264255 0.5579648853724438 -2.578782275097707 1.2823176470866817 1.2296290584437146
Ni 7.119091154172916 2.17732231045801 9.998294411312894 -0.6101605753896138 0.26876204143490484 0.26273923227959267
Ni 8.00343502565939 3.254859412504502 12.134795485026226 -0.29192279582208436 -0.03975568263138315 0.4539760856438246
P 9.389269938267475 4.080251309080671 2.8691135940512487 0.24866089980965567 1.2944154587914805 -0.21515068386735203
Ni 6.672935852851124 1.882883675066051 5.069464163118935 1.7925561547676614 -0.47974779529128997 -0.28590718575562374
P 8.733042583116156 9.611659219300742 9.61465225044168 -1.3021807045591962 -2.530645053270848 -1.6437566446320335
Ni 8.200345452208614 2.2530337912357 3.128766617593597 -0.897504493591764 -0.4158674516975612 1.927909566700712
P 6.271965133887017 9.150313894862562 6.023363655259739 0.17057418280855785 -1.3605051513317021 -1.4593198449087705
P 4.032606952586916 2.4267691069880186 2.580190176115867 -0.10203165785246945 1.0512060690146992 0.5305057425704477
P 3.8937306747778218 3.343493885758247 10.701689771175646 1.949868073249674 -0.2576114241347241 -0.40001557226696915
Ni 0.3935170526361198 0.7506009954471653 13.20209974310144 -0.7466360167422496 -1.2582359235471299 0.8341404275128214
Ni 9.205888269466621 1.6009274755884637 11.082873075736963 0.3004868833420115 1.307207468349826 0.8266713728292859
Ni 2.801040262661751 5.129987456432578 3.883624490818031 -0.7537453740935213 0.35690768533390144 -1.0163899897767785
Ni 2.372048310722219 4.1337605748018404 1.33103701894399 -1.970724090763077 -0.03990249262189257 1.5815729720144376
Ni 2.352305869801767 1.456507527711516 11.262476972021377 1.6243116485335445 4.1322366344990575 -2.254828418982007
Ni 4.9099661669183625 5.213509637918452 9.565540289901817 -0.5257445737363784 1.63423199297105 -0.25980894600667515
Ni 6.7417452808291 4.533556476268124 10.748854104582401 0.34345207404962785 0.19984079298315907 -0.31362239228270505
Ni 5.417221156388669 3.4581211961513323 12.395335128648961 1.4107784456649572 -0.748606253094743 -1.2200514420576083
Ni 5.498210137644861 5.8400544947263295 2.887410458753676 -3.1666359594600046 4.9560296573392835 0.588396958460277
Ni 6.104682136111024 1.143528803682033 2.9083800332636516 0.5640226433809706 1.6297577592497805 -0.3631045581732327
Ni 5.23864889671953 8.935184618835374 7.930585326880305 -4.3701981456133385 -4.5726804899844025 -0.1724973679731997
Ni 7.1317846901064295 4.473851883898276 4.7547883785008 0.5307710804166923 0.011289199760574107 0.5127898133479233
Ni 6.474116347867936 1.2716114457298757 7.739133212565108 3.4633857443570863 4.475313327487138 0.07877268732452886
Ni 3.713203445366212 0.04933407447304617 2.5456266781994383 -0.8365690915589722 1.9162107902065448 -1.2293686056934765
Ni 2.1257680144793123 0.5356947511793313 4.584252604777709 3.5640734865871524 0.918698868281192 3.086718359897755
Ni 2.5645531716546053 3.2422851939731117 5.577807694427069 0.8289036045939143 0.7824828512375298 -0.11096161335224762
Ni 9.282159624208118 1.2407449516269093 5.057723330750064 -1.3007982223893726 1.0938591277985354 0.5169467729390903
Ni 6.436861783620556 9.142549085462885 9.894615849303818 0.768193174087735 -0.19849970557423233 1.2200118470689247
Ni 4.45945119128824 4.60125533458019 0.9015338378276708 1.5758106156093634 -0.8346199382524012 0.6578136584912025
Ni 8.816059960208433 8.252377017795803 5.606688930523948 -1.668507112103836 -1.0790606293331222 -1.353981234170255
Ni 8.259370853212532 8.47218720729088 11.606746225844446 0.5481247412037915 0.3345555428909464 -0.18003507111114156
Ni 6.24830357521992 5.583503723639171 6.814276493927136 -0.3271430524769592 -0.5685873799335176 1.0731383503114162
Ni 1.0364919157162902 2.8765314651585983 12.63499881603108 0.7575086977906954 1.4995357550060238 1.306269787026905
Ni 6.154510918889794 3.977757660657292 2.702527226338418 1.4078630717903753 -4.672338248288057 -1.0952110138407394
Ni 0.941891572356411 7.617691042858478 9.026179740998808 -0.27482547402016544 0.4665600929564223 -0.3844688827816218
P 9.410471722798505 6.0723838331825855 5.301765966790086 -0.0026718904052083015 1.0450889003733679 -0.4519960790993184
Ni 3.7059526186218337 8.473114211722756 5.9505148743068235 0.9646640221573967 -0.01716134227063496 -0.5089629834026654
P 7.954267077723146 0.3763445249921561 1.5118652953394172 0.3259343768808387 0.6348971589043453 0.13014281426638877
Ni 6.932607232916875 1.4219880854512557 13.225285867812389 2.027153120285083 -0.4736152000309909 -0.27995019684124045
P 3.3886417550691275 7.258150997216046 2.831621312825793 -0.857452876986517 -2.6927821610556464 0.5721411587230469
P 3.116249304284758 7.328383055757794 12.213890990893349 -1.3739844167650594 0.21228081851872474 -1.48594336103357
P 7.931826227862381 5.9694496281975225 12.801504415040936 2.1905199867119243 0.1477337878752746 -2.801862755335097
Ni 8.849725824130433 0.3436680776816058 7.516704465006526 1.0374223849670456 1.6771156797084534 0.20717640741262386
Ni 8.626960234367395 5.171041821024481 7.110682948627949 0.47871318337918844 1.5738401221465539 0.5670190070051331
Ni 7.784762940615331 5.896555873762268 2.5707604300434954 1.0045066080756313 -0.4412210999710014 0.7662090537781707
Ni 7.446644957784771 7.695082145527587 7.330653757702805 -1.4004788635111622 -0.8991147755016774 0.7819251789618469
Ni 2.820736812273694 6.230360073593009 9.991188601103401 -1.4680569676714526 -0.3835887941695136 0.9386467721580286
Ni 4.310763351719981 8.216903036318561 10.650414494352681 -0.14665418165785066 -0.00029439131196723494 -0.6969178235815159
Ni 0.9646811961618422 7.053741930856496 12.614822243332137 -0.22277580451277762 0.13280184915579066 -0.8397454324044247
Ni 1.2170007886044967 6.280078717231358 2.1623608260579967 1.0548860889694478 0.04009763935183417 0.5291569418520371
Ni 5.020968063939259 1.537468974182603 0.8798685510807032 -1.666955451346 0.4200982019494572 -0.2480299510938761
Ni 0.2770293085960907 3.8520613666519026 5.101153029470378 -0.06491984060183659 0.27127478055442955 -0.690933580973623
Ni 3.37892197592698 2.977473987354383 13.002238505415107 -0.4848015556651134 -0.13206085722470803 -1.3826014690101092
Ni 5.348044597942621 3.06517227791455 6.465064746177676 -0.7429356850725269 0.5004929982584413 0.22806662059807176
Ni 3.423693536508089 1.4943862137546151 6.801944581504672 -0.4111646469052532 -0.6710406987044379 1.0405267349239822
Ni 2.767328507431244 3.8094466975707033 8.34543265971128 0.47749088093631314 0.7704277198452086 -0.4077674482982461
Ni 5.971909402333589 8.404112040249041 1.7622758093481088 -0.2516086695840699 -1.5632507766664818 -1.76098969281529
Ni 3.804472079728358 6.948843577867261 7.816912555704201 0.15488839664218487 -0.37022651392999467 0.5582294337379612
Ni 8.882611535807783 3.589691577645838 9.447608805296102 -0.822616486033622 0.9788469985259982 -0.9137934605597746
Ni 7.804587985891099 3.112082373472166 6.7749577386230335 0.44564545429094216 -0.8971357973984356 0.588386931157948
Ni 0.07261932441037165 5.027356134083672 11.22549500214654 -0.06284033236498854 1.251946233883676 1.0315319876245397
Ni 1.6646246117985697 8.459328462646734 0.9857544850290473 1.2086162036374732 -1.1580243496225346 1.1852729009258425
Ni 5.745757034002608 8.472774616039791 12.791886514603679 0.1367286950140226 -0.967310201530992 0.9834978670344481
Ni 1.665579151015551 8.731060078588579 10.98225821748393 -1.1567146296721758 -3.27384273375551 -0.6175908064154138
Ni 4.17185036086408 1.4918071222164249 9.118224856300921 -0.4718601650130971 0.2656607768017618 2.393250956758685
Ni 4.420838244309001 5.614104048152788 12.150392105136 0.7970967444959627 -0.11965502736118748 -1.5214513241321928
Ni 2.0665498699796574 5.046832405414775 12.64256170367332 1.008922734865456 0.29986364793571585 -0.2448944907886879
P 6.0036019399897125 7.1626970755179045 9.026366977537522 -0.17774524663570032 -1.1177423621740363 0.0015537176403650661
Ni 1.2352563511292665 1.9748223225324242 8.913205435538206 0.7092292939590172 -1.5173660983192256 -1.1017686124535992
P 0.9593945174216374 2.3808594419558937 6.718793201791549 -0.5693468838073613 -0.3971161392319871 0.7700482250186028
Ni 6.6861800844867405 6.8482314730927385 4.789003102472562 0.7083291507422511 -0.6079460842367982 1.169651392338502
P 2.7254848123329913 9.294917407973543 8.510581711641617 -0.6088146028846806 -1.8745926004451265 -0.6210939344726659
P 0.9741990535465511 5.422856609073539 8.776991771448788 0.2722147758701957 -0.4490405960154201 0.3953927287829771
P 4.115688577511106 4.840936460659543 6.873329429716159 -0.40285304171576425 -1.6508901703530212 1.8985863922565624
Ni 1.7964336280973208 2.5644889238226933 3.2159087054946385 0.6882861160484469 1.9328540551901807 1.2702162358374576
