# total energy = -381160.0059819376 ev
CRYSTAL
PRIMVEC
9.33264282225084 0.00000000000000 0.00000000000000
0.00000000000000 9.33264282225084 0.00000000000000
0.00000000000000 0.00000000000000 13.65926612836645
PRIMCOORD
 96 1
Ni 2.4277190374101885 4.250514833670294 11.468921136875228 0.6637804175975988 0.16800770763296227 -2.829447092711269
Ni 1.6479487333617306 2.566103464880543 12.451349779372483 -2.267524269282121 -0.8413647131754025 1.9596521492196315
Ni 3.0895434017250114 6.0273566967725865 5.619285023719798 -0.19856115493978707 0.7663890309994608 -0.9689636779740152
Ni 2.677591215795087 8.322542873749372 12.793952029903872 0.6085742047391003 -1.9753603039835075 -1.9356192766401437
Ni 3.3797045990868133 1.7928006822939786 11.294628432959302 0.6637295097550052 -1.1252695237890171 -2.2128525887708532
Ni 6.420531605384576 1.7569726665765055 6.438964508183111 0.4203020904301471 -0.8526055761965446 -0.9230985400107845
Ni 4.699041646741864 0.6729834053133598 4.828277284473266 1.0872457362470758 0.17633371100015438 0.057590911040591136
Ni 0.9823913119260456 7.161011483235961 3.7488404863690112 -0.8332814219466359 0.30861516887610074 1.3654882063685903
Ni 2.259526148829751 1.5074177980468804 1.6161776174703542 1.1579415601007415 2.0603882281891286 1.5407554237774435
Ni 7.045100059633196 7.626794352848716 11.987808610560805 -1.5732672803622194 -0.6838018550248481 -3.117057634311245
Ni 7.518834340913386 6.9136871163360505 0.44479655574354876 -0.7716839608498128 0.6125797263540675 1.6685999289279585
Ni 7.0764017435916235 4.930061886666408 2.839064601557973 -1.8465817170544971 -0.2958408999295679 0.48258192230597535
Ni 9.161062164237396 8.40741392739217 1.756758949056336 0.688674352625801 -1.0706628921877301 -0.013505490685602547
Ni 3.6298380914701722 2.490975690323195 4.119225081258137 -1.5016597433275622 0.2720229715743638 -0.45775303618775354
Ni 0.07957851190969562 7.5386195436539545 12.284597850840697 1.6073199990715543 0.29357215850004925 1.2730089680912464
Ni 2.8035632283385756 6.700669544376863 2.4721629489626116 0.04584662602046943 -1.1295437256843386 0.8600597184817447
Ni 7.6776665887632625 8.68791583945374 7.605220082482974 0.9005767047591845 0.4638570922029624 -0.9609873446367578
Ni 9.213100980502213 0.6627800269377636 3.509297677037538 1.318798258511219 0.15171796933400322 -1.052928708132761
Ni 5.701115502337654 8.693767406490693 0.1700398185909842 -1.69976658433875 0.41063062877865414 -1.270221120933464
Ni 8.404828785335974 0.6070594830874971 10.990450539372944 -0.547089872181374 0.09608263935788615 0.4318738544281466
Ni 6.918540090593171 5.740900558603241 10.329874882665047 -0.5023616760360639 -0.19211128554938525 1.0879489329616876
Ni 7.506095283488445 1.7053538192377862 8.961270813657423 3.2862642473483143 2.4617289470254247 -1.1351338181776063
Ni 4.313136866872754 1.4575348222693618 8.587635659280306 -1.2101537233279223 1.0340987199104514 2.268546797009364
Ni 0.45993876869004524 0.3781250888292335 5.8715855557618175 1.0166278168191976 -1.556168930119036 0.1676860626274854
P 2.969152309577212 0.9728626836250454 13.29452232556166 -0.5424222915023755 0.5541845742446262 0.4776328058308162
Ni 1.0745791575257329 2.638422113954442 6.053212783655957 0.8709601674443324 -0.7549751327355642 -0.7448964083433235
P 2.701062812442507 4.063096700917416 5.8641278408986155 0.582374663525597 -1.8434714535602896 0.48061245728443036
Ni 8.304680195426048 5.4003710880382085 12.74088568966654 0.4865655895440717 1.0403372446209953 -4.876793657225091
P 0.04053913380400096 0.09444074557212748 9.145370258629852 0.7880256354326299 -0.6974940077999601 -0.6106236310689612
P 5.977455055709464 7.321280958077369 7.271018143737804 0.4705597010341186 -1.2691224885526464 0.5252349810898116
P 7.129317828279843 8.792002804626176 1.5656385569038442 0.3989102550179323 0.8924121666705211 1.336713448228743
Ni 4.075826425699556 3.753570269741143 9.485854932509435 1.1943458097613884 -0.40147055954594085 0.5366185403364049
Ni 5.744680278938113 5.937418018088219 12.64860358437455 -0.7976945259809617 -1.1444903196918417 -0.04121246968256773
Ni 3.1384557826511057 6.338544338367644 11.258540969771929 0.24444454773546287 0.42889625985706137 0.4887011478298357
Ni 2.171155354136145 0.8718069608347504 7.559884903542946 -0.29605661548479983 -0.6596337424190768 0.4969816426710732
Ni 5.144582014116744 -0.03948547843163766 7.347333030459585 1.4846228424499335 -0.12260948200382112 -1.244233952841083
Ni 2.4544570590383628 0.22745423710984183 3.75572424369988 -0.07566370938190195 -0.4791294449810006 0.20025371215086157
Ni 3.943265567337746 2.1785468072354517 6.594734715929601 -2.0096480215217842 -1.115326553643692 -0.9774123229620005
Ni 9.00530035586943 5.829131363654815 1.902844673367029 2.4265937938851887 -0.5159738675028598 -0.14813102331369327
Ni 6.649853304319128 0.009397971301770102 9.518063749348231 -3.277738212155174 -4.534595767297539 1.4133680607690047
Ni 8.96039167870546 3.2715579342954406 7.830857254039236 -0.3206952399690864 -0.38342475778782353 0.307282051886974
Ni 7.784096047279039 8.903975852966433 4.941908743439464 -1.019010201008445 -0.36397590503459254 0.8879978396529093
Ni 6.323509450813372 2.735864237451743 4.0908137167755365 -1.831653377879439 1.5834493631015438 2.0530212463010966
Ni 2.220581030416358 8.635410391048817 1.303467821834266 0.4618811994235142 0.9093750197771049 1.4923292099552556
Ni 5.906293654343032 3.345901766857408 1.8952367029547124 -0.7289018326872801 0.9465398017528601 -1.9777825402717555
Ni 0.3219089816461725 5.67701861862249 10.827673383410596 1.7891494430789572 -2.413171606942012 -0.5187041219498293
Ni 4.2033476569482024 4.66472551915834 3.741054262479173 1.577013120557897 1.2846357536968973 -0.6272380996971907
Ni 8.350391479871002 1.9880955655718744 5.163680334347074 -0.8015987461313743 0.9491379014973395 0.3316738504677772
Ni 2.915013648681911 5.543655152979694 8.941615334651804 -2.1502745089283164 1.303448001307394 -0.16542477739713446
Ni 2.8070443041037794 4.487526630273822 1.3854728208725218 0.010568005323833413 -0.29315101180223063 -0.1592811263932418
Ni 1.2386283527020139 5.205206861759542 13.131800232191845 0.20150943893483358 -0.5173296101998058 0.4875158692724829
Ni 7.519506291195142 7.076504402662447 3.342326431399902 -0.507798530780919 2.303332280119665 0.47695480592718503
Ni 3.799617529326976 7.521074175185904 7.156636340290311 -1.3293660067247364 0.02892799588825986 1.3155974921857343
Ni 1.8827766915495552 4.724053129451639 3.815237573584943 -1.5504765077199492 -0.33808232509728225 0.04039254488443366
Ni 4.656951427704144 3.5725636625933466 11.77598095055889 0.542043568006718 2.456681871519821 0.7950349768709275
Ni 4.936688063055939 1.7515317358228493 13.152971332388534 0.27853429033032034 1.0014508519684429 2.356215758382258
P 0.23447051796850196 5.549590713801866 8.595216565028496 0.3562636239919993 -0.0057315031671385155 0.21155371054471309
Ni 4.431549438746496 8.451557327846363 2.253601787178943 1.104867305983581 1.3825721584340704 1.4355412544319344
P 1.2286704228321144 2.628996144724266 3.422943666453478 -0.24414732821001825 -1.0552555564937247 -0.1672839420930603
Ni 6.830439942540828 2.643508404281617 11.736491739070132 1.2107944422357149 0.1536025879512258 0.18703747057090367
P 1.3839842643455782 6.908255518225197 0.6248484335326848 -0.8039271371542348 -0.5613031875672784 0.5169961381197871
P 8.857984589237411 2.68461869582511 12.740406925090788 -0.1368449088769127 0.0967477837457108 -0.09842182901402403
P 4.62345657268721 4.479108586466278 0.184693934318928 0.42644034211740106 -0.3256757239028133 0.17657436625605075
Ni 2.273021150321667 3.2123236504301627 8.173486569234752 -0.6465967067294606 0.2451775692467455 -0.5245248423966644
Ni 6.238890378526233 6.004398395479285 5.5724892861812325 -1.5431360081944778 2.4210445819321853 -0.8673616514597966
Ni 8.49948978127823 7.343632637588531 10.13006673332803 -0.921142187615362 2.4100952820095336 -2.340131451225886
Ni 8.188050158327517 2.782947420388615 2.85836544013711 0.4031808573688282 0.2393869307068974 -0.22334787496616373
Ni 7.718860874091975 4.28267512076652 0.596059097016597 -1.3249200551382407 -2.0074972937273685 3.08616480138713
Ni 0.4773357481375424 0.8957461228865583 0.38280820898735485 -0.35121989092050476 -0.32210420450147104 -1.4253501728315454
Ni 0.549941842609748 4.864070769412371 6.459248074049317 1.0391720206683006 1.368414893097082 -0.5565409902919447
Ni 4.705079866634858 7.749247959055792 4.67858542698382 -0.5497154827296791 -0.369275462870635 0.7950066947361535
Ni 7.959867041814826 9.20277907756303 13.022976950797318 0.32911071772629125 1.6842839153221187 2.8084087839837313
Ni 7.545497701399143 4.400247754788069 5.823573774866131 1.5610884789078405 -3.6663823093604084 0.4180166368300801
Ni 1.482238327766666 0.32240174518612635 11.25508509214229 -0.06608686432674425 0.4812454628827389 0.3741099081448009
Ni 4.743642346693362 1.600893548353265 1.9413231596403142 -1.6133111836579828 -1.8519275547474428 0.3416756988754954
Ni 8.86932375024203 7.027088059025036 6.295282872658254 -1.6536132257111391 -1.0515485399557825 -1.7403553043943898
Ni 4.183431797208403 6.918829402520038 0.6334624628390739 -0.13275505507825522 -1.7580599207630043 -1.1356166713512958
Ni 1.546474908173899 7.664507562412225 10.196068116489151 -0.5485479447841392 -0.3205299180358157 -1.0412764686058131
Ni 0.4371736531027485 3.0114105161853697 1.291047940793158 0.6709442823358897 1.3731326102877255 -0.7948848244463084
Ni 7.315672039753275 2.0289632084025113 0.4367676831408548 -0.38708163781412047 -1.4330387997250547 0.7783415753756466
Ni 5.765865378099005 0.43864541087264836 11.642584820666288 0.2270736605571831 -1.1389313375468255 -1.0843391041232422
Ni 3.438798893310059 8.846505438590762 9.51411604144292 0.34990837119793283 -0.3591239762589299 0.2184406674725335
Ni 7.464145054092758 5.249807561711043 8.060155621366784 -0.30792379923603097 1.4156234324620847 -0.4092039236344565
Ni 4.7318645514770425 5.152701413354619 7.457644868381057 0.12739816164171608 2.1620126233008508 1.734168715967704
Ni 4.922082477070567 6.774724065011963 9.652197158022204 0.5357014278387742 -0.8225588933228092 -2.2694757365815366
Ni 5.087111599741074 3.781549532862004 5.903889565557197 1.3590205963663755 0.5001872940925645 -2.7084494352792583
Ni 8.12679069097417 3.822734485547914 9.993364981354905 0.16734719123082792 0.10696251949518354 0.2705867533484695
Ni 6.649368006893417 0.804307688503884 3.2060483814099943 0.3903466817186374 -1.8682298914518922 -0.7898719446127493
P 4.65814600598282 7.868556464638542 11.335469944390093 0.2291241153283086 1.1796488698708456 1.4878943141123535
Ni 0.5021839095982801 2.1318649279390725 9.955897220297093 1.1131125767115089 0.4843996922410045 -0.7624940668204288
P 5.250628834277632 6.512626124556242 3.0447327173104646 0.23690427349435972 -0.5402607650746826 -0.3800141894443778
Ni 1.0078600941331266 8.027594030630064 7.532893967294833 1.2024998063270904 0.22182809588752764 1.5858965390904558
P 8.550306021335965 5.34875224069949 4.2636169309002385 2.258810543558207 1.4022431545004368 0.5887936796780634
P 5.5809670589027105 2.1590602490645523 10.034520069583849 0.5169177194733678 0.4200169550895605 1.227530781153789
P 2.3920870071915608 8.196216220779402 5.536237568480542 -0.6414305891474888 0.4841757491556565 -0.10426620360994303
Ni 6.181307972436937 3.2096171840175383 8.060919964812282 -1.0264810554641937 1.8359563761301672 0.4858485088723891
