# total energy = -381172.51258240215 ev
CRYSTAL
PRIMVEC
9.18671992605723 0.00000000000000 0.00000000000000

0.00000000000000 9.18671992605723 0.00000000000000

0.00000000000000 0.00000000000000 13.44569321966216

PRIMCOORD
 96 1
Ni 1.9331339442209594 2.9077990100733584 11.225352470406309 0.3050662751825778 -0.22491650500486424 0.7418779332319739
Ni 2.9116390590627197 2.8946436269327704 8.801644918418367 0.8853742859871333 -0.7365475221579961 -0.4888952661185128
Ni 6.073046663395197 4.3203582747939455 0.3136208431179803 1.1211503594143208 0.7136364218877773 -0.38811933505001545
Ni 0.37617781343629786 6.163131640403997 13.44945831808407 0.12316664005887175 -0.1233335046540392 -0.17496999788340833
Ni 3.0741062035049618 6.600336835266917 10.841034304315768 0.590950578120066 -0.3057033945459445 0.14052364328008055
Ni 8.707531564658765 8.831717646568306 10.529080850890537 0.45348474782970294 -0.8538571892154585 0.3398859539649243
Ni 6.803749191062232 5.659589139913855 10.17404719236791 0.2885446233784708 -0.47921686248848433 0.006123853509550744
Ni 0.719583840366019 0.6757861524311368 5.61586310839552 -0.3864581452975086 -1.5659820595547158 -0.7366308259004216
Ni 0.5395167776132059 2.1748824828693962 7.52429028765957 2.5738462712486707 -1.4609851484263354 -0.00015992261663198262
Ni 2.1266154556203407 4.585836111383818 1.163339166639022 -0.1739199593523392 0.7892301972636924 -0.3221857084716838
Ni 3.442649852562888 0.8674624733367157 4.961205493453935 -0.9663385816463421 1.673813611918414 -0.7879824408995203
Ni 0.8417956961324645 8.730489178114302 8.079906792195876 -1.3062864991974534 -1.0693783690483518 -0.0924329584204408
Ni 6.642908096072422 0.019401434116345546 0.1661399951263251 -0.41150069008843326 0.734174136829813 1.5644591951522862
Ni 1.3079868301610145 2.589460786199308 1.9713001727527828 0.47351826944181036 -1.5640223647251839 1.13796408853755
Ni 9.122808058714016 6.2907168087395275 10.902547663234106 0.23604372526627737 -0.02934682859323333 -0.6380627011165204
Ni 1.482139482532605 0.38186990519182024 3.26679214494626 -0.10366919345589244 0.9610382524793514 0.1344578967019749
Ni 8.459940272045655 4.034164384445675 10.018157739495962 0.3384947300443525 -1.1687594766518516 0.8902958916584667
Ni 7.268836081338337 8.574581351802212 4.632982358784304 1.8228211242997896 -0.5633371872781717 -0.5695309747937095
Ni 5.4263383173303925 -0.11068527809431208 5.727501968033124 -1.1067010167582103 0.28177799407859855 1.1038360365055893
Ni 6.54251561914481 1.11855666231261 11.606362498599553 -0.1648010277702065 -0.11991496589079348 -0.48586393549135676
Ni 8.8913027129439 1.2027713251965249 1.2542886140064318 -1.6466637909764996 -0.8988034149088455 -1.0308161925044377
Ni 6.652131563022946 1.6507341692616992 5.219416634468247 0.4963332104537969 1.4384520003208259 -1.0069998068111303
Ni 5.0635455550364386 0.4470634641702975 3.403844228314176 0.46570751514813985 0.8192887072119697 -0.6653608747108412
Ni 0.574232474086646 3.177796712937791 13.3940486159804 -0.8274362760197684 1.1688304390991031 -1.1279283015681025
P 1.5134753846922029 0.7544906206169202 11.858617888992326 0.46265972946075157 0.1769230078447211 0.8491500135477764
Ni 5.04771683635541 7.415538814140043 4.153630329583124 -0.29859480852562126 -1.433425493640512 -0.01797638197276259
P 4.7570398266128615 1.4271845230724132 9.218326980644363 -1.1688908600233936 -0.9001331894638626 0.3963432656217045
Ni 6.234218480307535 4.9328552753171655 7.983044771791258 -0.6119531485136622 0.22152804814860558 -0.039672635999273606
P 7.463934455470082 2.5499119562969135 13.464517189623212 0.6817408587307614 -0.3842017451631641 -1.064767866859534
P 6.86767038931098 9.066282170121813 2.4487964844997734 1.348646452220903 0.3035616656125933 -0.39886911736735176
P 4.567233003241577 5.8146150410992 0.4715809826937612 -0.657678675575235 0.3017585509655835 0.345317923613773
Ni 5.6732038590579545 2.027472372622282 7.324339487986723 -0.6071986645478124 -0.8360636126774632 -1.3608874743717854
Ni 4.117965644926429 1.1592262720635744 11.382223064981758 -1.2418510544312031 0.9123027349468612 0.3002336296806249
Ni 1.3934325135343417 7.821408106843365 11.941281833528384 1.164331522787485 0.776000843057612 -0.35694033834404976
Ni 2.607733172419021 6.935964466313164 0.364372878146036 1.5427099764006529 -1.1356992037627733 0.4386181151305156
Ni 8.55891799408245 1.613601446737778 3.5289434701986986 -0.3822644189311352 -0.24975541842541504 0.09850050477075939
Ni 3.6599433423843384 3.880057155267353 12.564475850901395 -0.24881156645490696 2.5154693739716745 -0.3515927008788912
Ni 1.5578472426314751 8.838883288223096 0.9074660458825874 -0.4667452123840348 1.2182442136455407 -0.3372693422776837
Ni 6.6235516768844205 2.277084743650846 2.0866238258105603 0.4769452928454882 -0.04480687190204541 -0.25877202010172856
Ni 7.924676027152964 4.646698131849176 12.23297213849468 -0.14515779961798225 -0.7561884363173751 0.7662648467167706
Ni 3.561516823551758 5.885472213000983 2.699626095937645 0.440960390110447 0.5876593089633041 -1.8916117607109424
Ni 2.731349677684207 3.7280169381048367 3.5448364959202188 1.639648278890615 -1.3378768724092247 1.0197535069323727
Ni 5.3728899799617205 5.876120131969475 11.824412055482785 -1.152108241248416 -0.004673494216269371 0.3936618621347994
Ni 2.6428356298074185 7.9858963297010614 5.2202902915469265 1.0034786810317493 0.6973091454826637 -0.7634759711177238
Ni 4.6666516878417434 7.952778203847836 12.836227298627238 -0.37837999627506447 -0.016028514217772395 -2.451451733469133
Ni 7.075363756659026 7.303277094881677 8.691780014426326 1.3348113461100237 0.4930871927126734 -0.883698183836291
Ni 1.5460423073412133 6.665737095446976 6.731546164670159 -0.5419430378731118 0.08250567200439983 1.2616624327301758
Ni 4.985375753958744 2.898851144724942 3.6653359470655706 0.8419038735083243 -1.7716939666066716 2.6192534957388762
Ni 7.358333108262642 6.063198499479897 4.239803601186015 0.32694610597480467 1.1971606535023642 0.7240054238269272
Ni 4.222345158364526 0.41567795372232036 0.9446768555271055 -0.19137852114841877 0.6377346283531403 0.3538696698385261
Ni 2.8458437699196413 2.0708061311936166 0.14090131907734732 -1.826104423036752 -0.9870647584501 -0.13248431791537182
Ni 6.894091396232998 0.327088574740956 9.304191578452894 -0.4156967304476518 2.094056566975852 -0.953205386698494
Ni 8.703636395348983 2.9976818792406124 5.39602581578662 0.8253989338747656 0.0592227902170593 0.06034893340170251
Ni 0.6303743577799132 4.236024184549117 3.338713139032176 0.02192225399438805 1.9715725548063014 0.3176083735136465
Ni 5.632460755546428 3.472515879511247 11.40742040079042 1.048523894196846 0.1557106354331641 -0.38475453234284057
Ni 3.3764779078969296 5.145987180946796 7.471193801669588 1.5459151136015117 -0.11102023450432492 0.37393635868141406
P 1.690292185884164 5.021240709112971 12.07189310745505 -0.1672471753178539 -0.020667812761996664 0.32280714410576666
Ni 8.023010678784841 3.603729802274523 7.611001901058576 -1.079513914820457 -0.44960006806331604 -0.8399639761731341
P 3.2423977284717376 1.7695735800903585 2.4620409788250424 0.5084045397960341 -1.0627685770413182 0.3685444982418814
Ni 5.183055596430226 2.2978467310095945 13.35068637857685 1.0316520581421718 -2.2286705296397167 -0.2022406606739033
P 1.451244542936379 6.608779431011471 2.5866955834581655 -0.24237712368347292 0.18830502442941766 -1.0970606654549686
P 1.7817184240232196 2.4301722469013702 5.619264950837532 1.2991573443518398 1.5172861370109096 0.13057501670780094
P 3.95525964576236 6.952757790601568 6.49759072065731 0.24210535807932496 0.04786699888460789 -0.28446402555119393
Ni 2.037954420222429 5.737951862113025 4.524328264497523 0.30357323557681914 -0.2709009421547786 0.8899943012576478
Ni 8.80389107147554 1.8658963400268533 11.597260296353957 -0.18625019878291793 0.38371297845220365 -0.14441423658373836
Ni 3.895601085626204 3.0572118252957856 6.033109235233832 -0.37303878656780914 0.49664045728157047 -0.07738660561027963
Ni 4.822945356396782 6.7293551319334055 8.637500278891299 -1.2267414524832745 -3.608036008211031 1.9599822788655403
Ni 6.311809518020805 2.9307658102489644 9.214078122611877 0.8296826488517841 0.5075517048774356 1.9422221266686421
Ni 4.985660542280922 8.464478511760355 10.317848758971431 0.7007341120038125 -0.8721127929915368 0.6992858095930602
Ni 4.8853323723938 8.58168268641651 7.816586916150502 0.5880807127714387 4.152594629330119 -0.8287501097351856
Ni 8.241296334373878 7.299482979492668 2.1758764859809965 0.3875992008804873 0.8089850112931165 -0.23994614564447705
Ni 4.382570743109628 3.5664225320692675 1.725835605835933 -1.3216647814257365 1.319050226621025 -1.3869283785202373
Ni 2.952327042253825 8.447427959309984 9.133458223291449 -0.6464660946888673 -0.02437457218962254 0.760131223015207
Ni 1.3597631844769023 1.1801352469434467 9.72852434115339 -0.16341571738690566 -0.07604500398072064 -0.4808865368814234
Ni 8.95676728016445 5.484233027213063 8.385917356407667 -0.152445334418331 3.0997985901204808 0.036709696716207746
Ni 4.404811792399686 4.719934664249151 9.809453832940187 -0.22896496404262504 -0.4944568193666904 -0.012854487365164959
Ni 1.7984566279912015 4.746622086053206 9.808888849655867 -0.18958723357595092 0.04829868710538779 -0.46375527651777554
Ni 3.2542118504820694 8.245623279526964 2.603866481941456 -0.8321429374668184 -0.5654292939205101 0.5194669682577827
Ni 0.541376169755423 7.654246548445229 4.313728218919251 -1.6666428052015878 -0.2797375666098021 0.2124037172498342
Ni 6.9627621287580626 6.629477111329727 13.488182180524158 0.27431716692517916 0.631445452910319 -0.3351150149388422
Ni 8.703967117271512 8.39919767894121 13.073409118728756 -0.3088648229930616 0.19636594706068117 -0.18714160024893578
Ni 6.252288758685704 5.393275311797589 2.5337736451495183 -2.6714021527179734 -0.46442941976666463 -0.8525487548166801
Ni 6.682594726775871 4.276289578616991 5.670667405646561 -0.897134768957171 -0.6396626986137887 -0.2833137139968347
Ni 4.680523635147811 5.004419824664357 4.374610450168763 0.5487122382761453 0.5496044110731115 2.1437526486493983
Ni 2.74585550867512 0.6193824472158678 7.198770804706611 0.3067619177174459 0.9664637943702967 0.07217960748804343
Ni 8.016267626253283 0.6280014279857695 7.108213630286201 -1.209241495926298 -0.8473075610223989 -0.221656860416986
Ni 8.825691158202227 5.437399128294965 5.8280625619380215 0.7314847629231079 -0.5997301240849091 0.35752629275450687
Ni 5.28315409831559 7.647668856874937 1.512949904304185 0.8466362459869871 -1.0170440784210097 2.361854187614958
P 8.570502448091025 7.445680442690509 6.437448020373451 -0.5595404392399008 1.6655881386848281 0.37220574914355253
Ni 1.3622435988958677 4.335341815228511 7.298578087565748 -0.34582391671591406 -1.61607280556352 -1.26440297158979
P 7.878935347923226 3.9411580304545373 3.311042738180605 -3.4129278448168514 -1.3305695401145343 0.9130977200443307
Ni 8.13385764315239 5.0431142896002195 1.4359192565152 1.7473769871278617 -1.5244991098195808 -0.5488423360961064
P 8.461391773816754 2.0877005094027927 9.185774756747467 -0.7495416204248188 -1.9150108563611727 1.1086830801852454
P 6.875111632567877 7.767399379550409 11.365954302409364 0.16757524808123397 -0.08287128287393469 0.15465648313703687
P 1.5187853088928032 6.7609758224151815 9.156382764554733 -0.34374697958222733 1.270962884195495 -0.2332201397745532
Ni 6.099127761674617 6.734196533410424 6.52370213511296 1.0083558066183924 0.290162618597868 -1.5557711804599852
