# total energy = -340893.28023573756 ev
CRYSTAL
PRIMVEC
9.05738130770637 0.00000000000000 0.00000000000000

0.00000000000000 9.05738130770637 0.00000000000000

0.00000000000000 0.00000000000000 13.25639307796161

PRIMCOORD
 96 1
Ni 6.491506638856892 1.8877484518503216 11.164613570934433 -0.16496146460747071 0.16676483636479666 1.9346330014674746
Ni 4.703117659021377 0.40332156290159865 6.153193523944269 -0.01358313800107338 -0.3429126566063901 -0.1743565326691255
Ni 2.988664082108092 1.6777892977231352 4.824107063134503 -0.8422915958650462 0.09356090137729693 -0.0193866320567279
Ni 3.582167101498633 4.33500757136178 4.962252053021852 -0.5157182998486279 0.7812407513003127 -0.4936574633938466
Ni 4.948174165387156 4.389342801317735 2.593706105027685 0.6566520340829336 0.9781710555048958 0.5553425991084694
Ni 7.067547027249753 6.052413854553718 2.6299093635135904 0.7932948542513693 -0.5504461902481165 -0.6062797522779688
Ni 5.083373694900832 4.3670163566033775 11.501883275530183 1.5129417439992847 0.7711165183821171 -0.6305944177639334
Ni 5.654233261234217 7.585629233197515 12.451941881354314 -1.4503101852109928 1.466803040659693 0.4628841867667319
Ni 1.7726834807950707 6.5487130586604945 0.20222505630098364 0.46476854827363834 -0.5542444809482842 0.27000491270307053
Ni 2.7631171748963586 1.4473514046510558 0.5221245151875252 -0.10807709271560095 -0.13654717513083578 -0.295141302759382
Ni 0.3436053427611408 0.1734126208929343 4.689634841333023 0.1362288725594686 -0.6820285651745093 0.6443480199045999
Ni 8.826608206685638 2.4263546836490906 1.2563955420675583 -0.6204804692583831 -0.42754103138074756 0.12144631493365536
Ni 6.854843486612039 0.8296851036341606 4.753212223088788 0.05261634064413519 -1.0738929690892538 0.19387943319340156
Ni 0.7295611886441443 7.471931926706915 2.6417736271774186 0.8235479967089557 -0.2783833665747528 -0.3690733741621579
Ni 7.340355349682386 3.9114391384745932 3.9379310728133454 1.2572861580393506 -0.38754057972841 -0.5952085820654717
Ni 7.742158895491032 3.782262767474122 12.614915870387899 -0.2316833914150526 0.01326843497413199 0.2670851679531142
Ni 7.665470048677052 9.000464639258492 7.0063616998749465 0.40632274543191954 0.12019830145916718 -0.5395621963457612
Ni 6.768372668077366 0.8306180139001155 0.3963356047644044 0.999803546173007 -1.1808272064496632 -0.6215251084728135
Ni 2.0252394988133813 6.559156219210455 9.26244033374858 0.39827930630215275 -0.0722852798279723 -0.966610604360806
Ni 0.07621514577602498 5.027842890623459 1.4843716389232637 -0.46810095508098093 -0.4720607110596773 -0.7661249787047967
Ni 6.291927243611106 2.095062850660432 7.148894085226652 0.7503247784477464 -0.3066014808801817 -0.3569593645074433
Ni 3.4905969773354886 4.075577000995316 0.5756128799991425 -0.014902371033129174 0.6934884861849927 -0.15534091079857115
Ni 5.920773875860628 5.5249300868966245 4.930887247585201 -0.8348503090956525 0.5789162726633514 0.25239722692363625
Ni 5.429193567370963 2.9571353380713057 9.319151314799292 -0.31705044412764755 0.3151156889987799 -0.04055940947960111
P 0.17885248405538579 5.60897352726357 12.371608344336252 -0.29144199953092387 0.016550191049197305 0.345331807570844
P 3.8841492488501075 5.860596635015925 12.52050444573514 1.166558869456107 1.3555886878666912 2.2703733086951416
P 2.406301641621672 8.365986027215719 1.3737465961434598 0.10327735733411246 0.3407243907058196 0.9119294107678424
P 6.25834247403673 7.695178259088042 5.808262180572101 -0.6824075457804829 0.8077094870148026 0.008573857711940072
P 4.781590809936262 1.0174790344327567 12.626488486376351 0.35952326857987754 -0.6528604282509852 -0.12089584174682404
P 4.020562467447647 6.1899683031853385 8.054769879707537 -0.1837336030086513 0.20497271489308572 0.6323641080698463
P 4.891203237495349 0.8533900817706375 3.727353299548638 -0.26983650544600624 0.6385406691942035 0.6987307084205386
P 0.20976351469277252 5.558967725532144 3.5506718697723723 -0.01912617930648964 -0.038433878496166064 1.461508367919657
Ni 1.3190898291540933 1.0293170316910385 2.6582779872417195 0.6566651467090562 -0.1533961283673745 -0.9000941086958111
Ni 1.7576844574900097 6.5506513382421865 4.901776824334919 0.11695305504899212 0.30778573099626994 -0.8789570696068797
Ni 6.345927350461816 5.515927049961099 9.135908718065185 -1.2789032220884942 0.8849248571545405 0.5240574158419427
Ni 8.760444036852624 2.6532601980442534 10.537440642586022 1.2574905607406732 -0.7040837452023357 -0.8378551573602473
Ni 2.2986546657879456 5.283143295152297 6.967798993580486 -0.29443733471382194 -0.2835191451394214 0.29752651516210693
Ni 0.558771585353351 9.10846485295991 9.051756589123565 0.41471791147415027 0.3444964561537422 0.48920431271849935
Ni 1.537680667586668 1.1444816339397412 11.536548590684445 0.2614325976530271 0.9310265366086096 -1.6336010442552702
Ni 3.997049505793094 6.650943720522948 1.462525235413718 -0.24065114213130168 0.8430984080370576 0.5477089938226115
Ni 5.742334408389004 7.866217846100587 7.981064534268366 -1.1883973054874373 -0.09120654221250744 0.7237665683432439
Ni 5.2869473952659005 2.74774679896116 4.858481636351512 0.16717569864997014 0.16490978543392887 0.1375607039970147
Ni 0.5772613233817034 7.750056931917369 6.724186233781629 0.45923424871897045 -0.6882964004610921 0.49686337192565394
Ni 4.985563035075135 4.3913444825679875 7.2593859845024795 0.9253644532268257 0.8913798687512648 -0.45944122252345393
Ni 8.145076499190091 7.302540783076933 9.107764717391383 -1.1631004785938615 0.19399744682850462 0.2623962471178771
Ni 4.6726758007313345 0.33256439505047086 10.35663629287711 0.037721940030806 -0.7868195309396707 0.6643290910122172
Ni 7.922083773483204 7.002288595539025 4.694884499489794 1.6698877945014468 0.7897243632912916 -0.37442178295826484
Ni 7.28687151356138 6.193446337574917 6.958797768121204 -0.0957926189212931 -0.31582479925066254 0.7901061721107424
Ni 2.2670262905577085 5.034128713192126 2.7127481721778954 0.69815349576083 0.42982262832607265 0.06064718136841168
Ni 2.4371510820667432 5.140552942560766 11.264010178212255 -1.5709437744353654 -0.5656018149426323 0.1925190625107652
Ni 1.0858169757592577 3.2252428796492727 3.955999642614835 -0.571093691295139 0.5784591305212747 -2.0724035074824503
Ni 3.6637378767917372 2.4674027353511057 2.6027870354417275 1.0383562096352246 -0.542877376761923 0.6692144441289765
Ni 1.253541561244234 3.311786157233728 8.402935613914387 -0.5946398540461952 0.17700194071177258 -0.4354944818998694
Ni 3.637371840051983 2.599160460000093 6.913355075049856 -0.5271640797917244 -0.02740924525088828 0.9332582541526057
Ni 3.958012192722555 7.0546674311508415 5.88387682197305 0.4181341362445508 0.2831761599777059 0.4981702636625356
Ni 0.614982598960561 7.3947449239256775 11.013463993087298 0.5608079930984148 0.5561054454164229 1.2633524188380887
P 0.3284297005222339 5.9153666192705785 8.082105056238136 -0.08536679560227878 -1.11121176014437 -1.4842448902852243
P 8.560384600402026 1.73149051099349 7.972606751682457 0.22584647301830135 0.0703474393753111 0.3668398568459489
P 1.9453896259526215 3.1204218067570797 10.573166577081482 -0.9122225165282289 0.8795918749774012 -0.0017493785909389228
P 4.134422806800257 6.3066817176231496 3.811000932356144 -1.939012618592409 -2.0694310551176875 -0.9290074492960517
P 7.115143565575898 3.9427776775056995 10.380921849149972 -1.0876910513146107 0.6599404750262182 0.4823147846875177
P 6.067983492875819 7.523885065401258 10.283819476535902 1.2886973253607805 0.286815556502506 -1.0146640082246074
P 2.365172073488651 8.788956672942197 5.756376972236931 -0.03308521258974302 -1.4643687201865876 0.09160763430566804
P 7.03840037447458 3.95258682137006 1.7187839108759353 -0.4202504112566053 0.6697242938858595 -1.2493597041034226
Ni 5.61495139887066 2.8487094274524134 0.3839623162758513 -0.8610030562316203 0.9471964615002526 -0.05997432367110316
Ni 1.5707853959562321 1.1323809726259961 7.119452161823614 -0.7540410509570692 1.2269540827147127 -0.6211677251333948
Ni 7.136872223129546 0.5699520167348532 9.290185809648577 -0.8149281162504288 0.6977835140159209 -1.1659045237015597
Ni 2.8229049483484765 1.6485792432794024 9.315028394866646 0.12499032353117184 -0.6584551487299434 -0.2746586094249979
Ni 6.328346973508237 1.930680438846692 2.595747638755318 1.107028575300958 0.7485311768824335 -0.6208085420217632
Ni 4.011794922423915 6.828133269385816 10.584540836421153 0.6094787188312407 0.48307763099547124 -0.8746363307443389
Ni 8.1219439475469 7.332330509918929 0.06327667669916523 0.4893938030214862 0.09988761492627313 1.0732172831784679
Ni 7.842550908965245 3.8589697290505485 8.10194977849743 0.7005903873370967 -0.05328842701049532 0.7170644737327199
Ni 3.157158544997012 8.433255197557923 12.43607425518998 0.8143501322597718 -0.15996863937856967 -0.4591157208632351
Ni 0.06706085057407737 5.1953500989590875 10.191157032197282 -0.233637686927946 -1.2503871169266725 -0.6446382974515091
Ni 8.491820224544954 2.46257515115932 5.6125973854908375 0.707281169093711 -0.4631911764841894 1.4591015582503775
Ni 3.7045685513444035 2.6473729002493926 11.79348385252401 -0.7451020965962265 -0.44425371614973813 -0.7301243922404715
Ni 1.1568902462150634 3.671074355582256 12.816784065868703 0.5369358144665075 -0.6975989088089405 -0.2563906643537455
Ni 3.1702736330077173 8.477083865295356 8.10494505446783 0.43193350402148845 -0.25102194384266446 -0.5170807274137933
Ni 5.68875999845577 7.7410901245067345 3.549836779223624 -0.20439061713737058 1.3267851333714376 0.1812681721872943
Ni 3.1510357552903563 8.64837705898214 3.689254331172787 -0.08937617387198801 -1.6902097938882503 -0.93858557990279
Ni 3.3924693091669917 4.259423725056989 9.22422271367871 0.4411444810967951 0.5721545284594856 -0.42777140222399873
Ni 7.177711955063436 6.052422911934941 11.574620386916628 0.2718226826380996 -1.3227425878709478 -1.2877172208356984
Ni 0.8660993991025588 -0.14032963023830503 -0.06349948827724766 -1.4387782733119931 -0.5013296352271237 1.5453134754617708
Ni 4.694386343522537 0.2318309183041558 1.5517005879815378 -0.5256281027631722 -0.9323156877336782 0.019025906283199494
Ni 5.877017667172977 5.598050325508797 0.463501520960667 0.6132952643638534 -1.3013828912482492 -0.10882734061806418
Ni 7.673051076760588 8.69747712259128 11.308644047140401 0.37907136591513424 -0.1253201960667648 0.918489066263231
Ni -0.04959640810015302 4.952259044318668 6.035675814053867 1.092416481814738 -0.5946444820318856 -0.8679280654862278
Ni 7.935244148400025 8.82841968293021 2.505272551982018 -0.24809422867290817 0.4861146180495821 0.13255348059041044
P 8.477373701494487 1.810407473588295 3.4592022825408013 -1.0154119421342254 -0.933171093755438 0.31536405756416014
P 1.8784736934781099 3.055733990063392 1.7224168264844257 -1.3182920082987617 0.959348009261122 -0.6963043583672331
P 4.725435046354511 1.1553052045010623 8.33581860757673 0.27257678719530476 -0.5487052962976099 -0.9594189717083735
P 8.489601166145352 1.4304050443830794 12.355157422821167 -0.033521785906529364 0.44940055045800015 0.53217387430149
P 6.421610827960057 7.761269969871273 1.3296688504223972 -0.6473526110588786 -0.3647462075417138 0.2914846798434012
P 1.7868311102651826 3.315961609977468 5.857827793576097 0.3676217293172959 0.40546399697605007 2.571703256763739
P 6.915917408197804 3.954099404034278 6.1460218894920065 -0.8399279807288761 0.9001822975342432 -0.4916075228433533
P 2.4320155469133797 8.602012324502304 10.204824620462581 -0.23720354990233342 -0.33455245756715285 0.7461940441088246
