# total energy = -340884.60417048703 ev
CRYSTAL
PRIMVEC
9.11865883251122 0.00000000000000 0.00000000000000
0.00000000000000 9.11865883251122 0.00000000000000
0.00000000000000 0.00000000000000 13.34607892954115
PRIMCOORD
 96 1
Ni 5.704487100061406 3.082425856270712 9.928935618850836 -1.49855642181189 -0.252916589762216 -0.8962677929711854
Ni 4.452221675351962 0.2054707406610202 6.5133002889252785 0.15473644444535287 -1.1614688565277094 -1.2608761893834544
Ni 3.257422038937274 2.9622054575277623 3.8571635287463466 0.18913857607430654 -0.8918357253417608 0.04762145853270508
Ni 4.741392585920562 4.54880651026438 2.7493321895837077 0.056962790538288996 1.272076428974648 0.8477760160183851
Ni 5.27979468114043 4.733422878054866 12.093122555903069 0.14425174286394513 -0.1056736254804309 -0.11975967125985182
Ni 6.080476761876337 5.795053620109568 4.96851831770224 -1.1405621882820292 0.030504082126128117 0.37761123642984
Ni 3.8071130338570636 2.327327951302099 6.62901059898359 -0.09604432992078298 1.3146546686564906 0.05141177881307274
Ni 5.590531219972613 8.43813337263073 13.047273489409273 -1.0807904675400353 -0.5081949948883893 0.14362773612670104
Ni 2.100829583251725 5.292314599789858 11.97068541118512 3.3422438480377283 1.0446117036266334 -0.11367078475329455
Ni 8.147102255649541 7.553915257847177 10.005194963108066 0.7422052346644057 0.20464309946780884 -1.561780876989175
Ni 7.586824497763993 8.93096041074219 7.585630865315916 2.0333785323695044 0.47379594858322915 0.23911002289642688
Ni 8.461449783400278 2.645213518700307 1.767541689130465 0.2768571597382135 0.6892775334274387 1.2823366732500754
Ni 1.3460417126852098 1.3107069095049209 2.6995251628866606 -0.5892281961123207 0.4878673390746307 2.6873080253149526
Ni 2.0041535617504542 6.572364578122616 0.7720184883960569 -0.12187337516874493 0.7215739315672992 0.302165299485699
Ni 7.818985552982099 4.047562950001849 3.984405294830928 0.5720704533861115 0.20184728189022655 1.3938837267921478
Ni 7.654977354272247 4.581004494788147 0.036357916707212515 0.5764863230656201 -0.7394736946658554 -0.8159413880062915
Ni 4.689689790041275 0.7670424362423836 11.052088128672448 -1.7831063222086712 -0.6416748439478109 -1.2664518836990188
Ni 9.40106375091164 0.33366905406266295 0.7650208295675268 0.4587061441296422 -0.7720233464671027 0.3915026496999516
Ni 3.6156941465381918 4.20282635484076 9.901175685606512 -0.2685329561432343 0.7533134287624251 0.47596390276882544
Ni 0.16684957281849214 5.094284684779191 2.0721523129235466 -0.3992558112828092 -0.6696206784284596 -0.8211571278792762
Ni 6.107513585471061 2.1770342155556413 7.321378513882999 0.9970002723962572 -0.03697297767992341 0.4106396276397186
Ni 3.3515174799740235 4.36362478562301 0.8009091353421497 0.04004673150924071 0.306108343293847 -0.6591071804916455
Ni 0.3990288653543682 9.04036608004725 4.959870181615482 -1.2592049723286185 -1.2735568701749163 -0.16507202204340604
Ni 6.877401955151527 0.9891100479404216 0.6670453991751099 -0.7368311148366858 -0.08403033617904238 1.4097772580939527
P 0.30205466370755013 5.863753596150936 13.066158231960598 -1.1130547268903799 0.470982390393834 0.17086626012767991
P 3.9463184803990745 6.22618381220352 13.07102941953709 0.17731998617282366 0.7146517505261692 0.43147147678340525
P 2.1723016315942036 8.65049781940899 1.8188970641062248 0.7857738632839758 0.4765971654774501 -0.9918665507141178
P 6.094090919591993 7.748297709303751 6.4295134917582875 -1.1639993362590468 -0.27477559461883644 -0.1125101887862901
P 4.449942010630653 1.458538607352365 13.514240010922203 0.6759749027812616 -1.5303889929414547 -1.389627265508639
P 3.9694981112853442 6.306455366370252 9.302804730227892 -0.41647603181583753 -0.5386116595070336 -1.943787414273233
P 4.762383738674375 1.2942294928992997 4.4450179348326255 0.37924851492294687 0.6156876758554299 1.0384366851641729
P 0.06695466473073301 6.208320359447344 4.326292084280965 0.9165106023806215 -1.7329528412827315 -0.4925158935902356
Ni 1.9150642644416995 1.4624413933552458 5.1858588166341715 0.9497482813878287 2.0942529992573737 0.752831089809368
Ni 2.0370901576439264 6.505688944353771 5.822601088601866 -0.1370976483176671 0.8575505789066457 -1.3591977453741884
Ni 6.952904450721279 0.9751584998460107 9.682673469532602 -1.3114685576190253 0.15622742716858257 -1.2530160699090873
Ni 8.53402518946787 2.43366975122172 10.72829914151194 0.641086832654825 1.2303589946312037 0.5080026763719252
Ni 3.34093983566715 4.566296098006262 5.710360428249386 1.3635452237096064 0.34039271839801377 -0.3461908131370296
Ni 1.7239827675015815 6.830121708831578 9.827826105399565 0.047827146785607955 -0.6361176615750076 0.7485347764268593
Ni 1.3427407581687545 1.3249776106603148 12.093802807855909 0.31570318607113373 0.3752769318697085 -1.3113587715140382
Ni 3.9126432731358984 7.342818304653966 2.0403354883411815 1.2791521048745067 -0.09826190639739206 -0.42313904565831
Ni 5.55330885440308 8.371457738861887 8.371154999386896 -1.5739308820881475 -0.20861725362420847 2.9425144395526095
Ni 7.1060523266988165 0.8521313778981852 5.573068988207386 0.08180427506200105 0.7726365545710693 -1.906913681175335
Ni 7.76374471745534 7.478932525833883 5.2583020021479285 1.4883941365669078 0.35115484201052427 -0.2271057993466992
Ni 4.939942264487688 4.552636346996179 7.882994890892901 0.27150026630167434 -0.9543585264663307 -0.9722307787610611
Ni 0.5187468259927416 7.5676661954461135 7.674021673354061 0.5032893300566558 1.3823854963445612 -0.5362696416374183
Ni 6.333948122909239 2.0537225914505965 11.863422626718089 0.9823205588968953 1.250236193171105 2.2493198304589517
Ni 0.6127483448429728 7.624521033595559 2.8229361803735546 -0.18365415592096757 0.556881404350499 -0.14614124657717412
Ni 7.169253751432386 6.394322763388386 7.799501714542015 -0.18937177513103517 -0.2168103309579621 -0.8723783879480976
Ni 2.135991131913195 5.727894697419806 3.0928867817438546 1.6511549939786339 0.16578678872224353 0.9348880764465448
Ni 1.0494208578073718 0.7680372819267628 7.553827718721879 0.4071982060583374 1.2087311319487828 -1.0857398411255108
Ni 1.2278547748736675 4.135229736524506 4.705320083236457 -0.7944773045952447 -0.17163476286258827 -0.14726404732770768
Ni 0.6208657749826099 7.917868289933597 12.144825351782357 1.1679845461590401 -1.0893147029609627 -0.5824571959370742
Ni 2.3741705019955557 5.069253966139218 7.911942985389971 -0.4848480926323327 1.2363249824066513 0.680172485802377
Ni 6.404088847054473 2.2080467744243286 3.0061911323924746 -0.15449784607198552 -0.5238692110905365 0.5081363737363119
Ni 4.179108723080262 6.608948637570182 6.994773684858729 0.6107835536855932 0.7256249617082213 0.016710370776145414
Ni 7.7953043958571415 7.752373749825451 0.25959727607200334 0.42819923379003677 -0.8142645145245009 0.8839650643444324
P -0.059266723424590634 5.903319457053974 8.76559809118788 0.42284722544950404 -1.76613267046881 1.2613531290198727
P 8.457866150458381 1.8586653592365157 8.349867490219312 -2.180826413573244 -1.4852525056141324 -0.6933154509422381
P 1.8768753210303317 3.273534709187486 10.917907063176202 -1.3610787644469848 0.22237419819898477 0.22080351127775522
P 3.9853554590867697 6.490880242324148 4.097139274629099 0.639869415307956 -1.3968237832570782 1.0456236898309155
P 7.215430640027222 4.180248555440916 11.033510684925558 -0.7843823822530879 0.6234680911317972 0.4915543010079147
P 6.303373259667043 8.432826313159524 10.879763713059262 -0.20413839191724845 -0.8676275035266734 0.18762265365041236
P 2.2955585437459374 8.61791685121204 6.245097734463277 -0.4225266088852917 0.01802163338840122 0.7783032659385436
P 6.885043391297355 4.431850591402345 2.1396030326976363 -0.07451262649659425 -0.18696727945460057 -0.28816898520660694
Ni 2.413836668146332 1.919404746071072 0.780778783987103 1.0253222592694018 -0.40242649570130695 -0.146902807333547
Ni 0.6308370284736152 3.330115987570375 8.85229374053926 2.0415484697748068 2.1907423871353755 -0.24089925358636574
Ni 0.3627685182972277 0.4070487258439332 9.745213791496992 1.2333769555219212 -0.5358397531888514 0.3766241899262223
Ni 2.645204400041422 2.0163908019744405 9.252502560353376 -0.3171525169231506 -0.9291028372233353 0.11279506701656059
Ni 5.390495200007193 3.1500589492225064 0.9206754248726149 1.131940250940973 0.4096140145886817 -0.4964723071348223
Ni 4.250334567632839 7.356368631757427 11.15095627576973 0.2752761884043389 -0.3201162275371648 -0.2540838705974398
Ni 7.011154443680167 6.510439765632979 11.612262845712594 -0.14626208842575453 -1.023348937593115 2.2867550924872746
Ni 7.368943262360167 3.952674185642084 8.501772492990792 1.3827868455480379 0.2898481726812428 -0.2514711155649411
Ni 3.0924381437267012 8.735638737420436 12.844119799970994 -0.5095350538560515 0.0793432151160182 1.060358939158561
Ni 9.301214436118306 4.930112350209404 10.966593406696255 -2.002387740414945 -0.09960556490948007 -1.425164024962668
Ni 8.762985595417259 3.0680639685264657 6.3348362802846605 -0.14212724032177457 -1.1389745320799354 0.09872007698073319
Ni 3.7437474732635594 2.8691313062861594 11.96602760022654 -0.2677513407822034 -0.12657360885789168 0.549219516929867
Ni 1.0860049172549382 3.627831081514441 13.257994753856414 -1.4729394925747343 -0.08461191971412525 0.2533140823109508
Ni 2.8744292470984814 8.278392706279169 8.380870930429115 0.5487780585170743 0.6776995987818523 0.15888389095482314
Ni 5.7022256726578675 8.275830363132417 4.333031685063044 -1.6013794652174034 0.3134516710327957 -0.8573783149948396
Ni 2.8421765506214025 8.409208986646762 4.175307154191007 0.4910197686606834 0.19547814513908918 -0.8404596848626299
Ni 5.373534494480654 3.4351811752460626 4.867634946991322 0.4502166186013924 -0.6316264585728735 0.9381680327493972
Ni 6.085391719015479 5.632732373293485 9.650723512530513 -1.2122512292868994 0.46204086492983 1.1835248078864844
Ni 7.801295354744742 9.128962969776202 2.940421893316822 0.36544117672620935 1.103673542785796 0.3172638456900342
Ni 4.244398320698551 0.9148750459557163 2.386412301548985 -0.21158379245170011 -0.6947483267340229 -0.4469042663987078
Ni 6.017120319941718 6.025263282326233 0.9006937076573974 -1.9871673239207648 0.8622122460483731 -0.36767032316704423
Ni 8.061715133848194 0.3265455577415167 11.715362050532626 -0.23467872659795067 -0.577455886067741 1.2369569595636956
Ni -0.019987188410548536 5.633972510901877 6.520307066412694 -0.45482223569420377 -1.882831957635783 -0.46564632289290125
Ni 7.5432190709747955 6.662611945109796 2.6202356882818694 -0.5518158169021335 -0.21080191998035308 1.158835275559604
P 8.671543684116113 1.9202801373240543 4.1755606529080165 -0.02211765783464578 -0.2558435336010239 -0.049443342232792266
P 1.997150431726593 3.6067396235128903 2.312542045919689 -1.3556033431547105 0.08416249088153248 -0.789573439535724
P 4.556876523377814 1.4017658371328863 8.640251182419648 1.054482939993758 -0.5696731567985286 -0.15563735899306744
P 8.512869900854124 2.027506447155543 13.127763891389252 0.4037758106403498 0.6372026671090704 -1.8124878606945818
P 6.026576369205707 8.265644821157608 2.0792119786324963 0.25461840294467114 -0.3734051687682924 -1.5185151243220043
P 1.9438336332246187 3.2781761065600707 6.88402757269754 -1.304213675828825 -0.6235529375361196 -0.7134762421608293
P 6.813170121963926 4.1425155449738105 6.376422835996667 -0.3345578568837915 0.7475790973818093 -0.43650055456688047
P 2.4080007264597807 8.769377775295808 10.683056003586952 -0.7772295732583905 0.7118371638955096 0.386700857435934
