# total energy = -340888.57851555187 ev
CRYSTAL
PRIMVEC
9.08820600869008 0.00000000000000 0.00000000000000

0.00000000000000 9.08820600869008 0.00000000000000

0.00000000000000 0.00000000000000 13.30150814366027

PRIMCOORD
 96 1
Ni 6.300335050116188 1.9695686953290978 11.839392906510978 0.3507882026997249 1.9557525570549095 -2.3968556433908073
Ni 4.585599645285887 0.4517456278233106 5.838231594148032 1.0190058301330709 -2.3281459967292357 -0.0735147813596992
Ni 2.7171281512231453 1.656561799534908 4.962167634770893 -0.7118667315818644 -0.43956453820418495 -0.8938309013949187
Ni 3.454390669951175 4.216654842821936 4.874603680754243 0.48228933076622105 0.6081124346113334 0.7078426980241358
Ni 5.234052216982739 4.763928419400274 2.629375162525954 -0.22332370659644762 0.16328150580188652 0.09819968570088894
Ni 7.528242535112355 6.408330199581139 2.7176579936210086 -0.906874107732122 -0.6565003389964177 -0.17722356980427542
Ni 5.187638749986399 4.297694373898176 11.725093268685862 1.043055671993423 1.6199808823686745 -0.7318439460347396
Ni 5.5409700148941115 7.789174011699766 12.75860675818338 -0.5491287569882736 1.085186282614886 -0.9838619352420862
Ni 2.012092410245071 6.24435170241745 0.37623081705000255 0.047734844182117785 0.288920775770967 -0.519787327711679
Ni 2.220866673773543 1.4183599256414172 0.26413506913023543 1.4164492707974894 -0.6504474479341185 0.3046831808115463
Ni 0.6331425802141737 8.906141768553322 3.9980871287285025 1.7544673183157395 1.0945751800289536 1.4719192788403361
Ni 8.743044827351772 2.2712335102908163 1.4997711643346832 -0.2079677929656676 0.5225774888623065 -0.8985316493046976
Ni 7.104241381940782 0.7165523153618151 4.868072896069777 -0.6885653378517625 -0.9913708420246217 -0.12493735880604932
Ni 0.7063471690743293 7.141248555939038 2.169396529072727 0.6079064892481143 -0.6452962427504823 0.8996585638202892
Ni 7.444167543300502 4.048795681783677 3.6566114282806934 0.4984885662339028 -0.8577071590891681 0.4873569750971155
Ni 7.907620597829252 4.141704409628513 12.644253499944073 -0.4938459252555688 -0.8754341440552859 -0.5478354920981469
Ni 7.763209007742738 8.899652789615514 7.092523958208967 1.9692158816486667 -0.04838816149540053 -0.7267107385732323
Ni 6.876445503682852 0.772725606561673 0.3301245314095425 0.48150051631633844 -1.1048845323747616 2.2318990638793434
Ni 1.919056447519101 6.521641949436309 9.359685952303511 0.43976277025792004 0.012683766115255575 -1.5316133522668591
Ni 0.042552797174517466 4.862544540484527 1.3537473265400903 0.6437034443420655 -0.3081045477882694 0.3726253531794744
Ni 6.431214301773577 2.0587694352094723 7.240090973347593 0.25284202777053877 0.12836361087877893 -0.6379889104557916
Ni 3.5832523399220184 4.3175884563839775 0.6078855474885956 0.30122658972151345 0.7450882126391556 -0.823540283399472
Ni 5.848587604651718 5.718571732544877 4.801046469509232 0.1392450336779731 1.1227830099217375 -0.5182953165471847
Ni 5.276830401660978 2.7554258504443268 9.316309763683943 0.5049186381299626 0.9954090166497374 1.075456971142264
P 0.23464020604233254 5.8947102490626095 12.27761074000806 0.5759674744476725 -0.9352696281556796 0.6237550262445967
P 3.976335416978152 6.225520940009694 12.438412909246308 -0.21160564682857105 -0.8027197471096951 0.5766202775403231
P 2.124159075906293 8.586473217911212 1.439901699837897 0.3788615638971733 0.20966035017674217 -0.5490238559792932
P 6.20136448900592 7.890998269429741 5.7482201863107205 0.8720516007362982 -1.2551989364930187 -0.5084644464996921
P 4.76451006457117 0.8787958740391896 12.930209351188703 -1.0240451923291913 0.13521045859728326 -0.2137808001030189
P 4.096481497591351 6.130776394594217 8.442280653584364 -0.6703187329367488 0.3417230071736631 -1.2148598705543399
P 4.665076004965345 1.1619180227168604 3.8345321419548735 0.8187660019392802 -1.034423964460354 -0.5344878671466473
P 0.12112488037734749 5.363940854208445 3.720218871821065 0.9733047285515302 1.2144572357992827 -0.6943184382854558
Ni 1.6785825221767976 1.5533652227298491 2.6321552446787213 0.32681138016915334 -0.7192110877620774 0.05135521454352446
Ni 1.5816022781356895 6.51289909546128 4.908389085798084 1.201141492526983 0.5919077998270129 -0.8974852103180544
Ni 6.12910416472789 5.5249202434597 9.105945972961882 -0.9004741177430492 0.9680226542169844 0.26973006177512904
Ni 8.59598856937884 2.400022474615298 10.183993488497283 0.00884768019861702 0.8391857032462128 -0.1165211097178961
Ni 2.4409375771055113 5.3914690295622565 6.8715851312235525 -1.8010371956554792 -1.2895671295602438 1.6654688394981445
Ni 0.5063257565472613 9.046890811704351 9.090436949772288 -0.281760767687418 -0.5410112700874619 0.3328416455236332
Ni 1.1089701357537365 0.9491994778732492 11.373440595388534 0.8878206906450968 0.9642603589610748 -0.44329469467057847
Ni 4.0264023427041815 6.984249800826102 1.7770150615039866 0.22974246563859788 -0.4204324453604243 -0.7927891182595442
Ni 5.947076490854837 8.02643071219055 7.917350430953647 -2.354811164725248 -0.8719508134923757 1.5337077729020425
Ni 5.551339657706491 2.7749836693157044 4.977969298187094 -0.3601529317440765 -0.07922880102534097 -0.6174033729949561
Ni 0.8570859680354974 7.6465709745665045 7.056023906094086 0.1909758863933614 -0.3848918292516533 -0.22375590903785983
Ni 4.905977075980025 4.5954149075447575 7.069459000721203 0.8071721264540936 -1.5537371807490918 0.4748647561673757
Ni 8.240176224289025 7.021084298914249 9.27005988439192 -0.7467234342497334 0.8119978299775112 -0.6637086838193988
Ni 4.643546045436398 0.6389772083347238 10.606688666496078 -0.5243212110262905 -1.1276297964910773 -0.2209806602855678
Ni 8.376144871191752 7.386730082674524 4.886189325502027 -1.5589354371205797 -0.9259180117374506 0.5690411796414845
Ni 7.49767889902293 6.102539339188376 6.979553924891698 -1.0399456656095316 1.3657684566131703 -0.21021982222463795
Ni 2.4374295296685453 5.04459039076917 2.790350007674312 -1.0916538926171007 0.25117929535613515 -1.0491548429126254
Ni 2.257155879513975 5.111915819300379 11.434760537530241 0.9743673654880896 0.9503954280535244 -0.33048574369694694
Ni 1.295769117669296 3.375868571880219 4.1057096617558475 -1.5983327079712797 0.5786349939775067 0.7744098444214083
Ni 3.871630198011082 2.808228326114727 2.883793122019909 -1.0400137998433059 0.7640254158632906 -0.8155940319692019
Ni 1.0626475508153495 3.448474247978467 8.393185257057846 0.4135321186961652 -0.12861120811321078 -0.08345698017407563
Ni 3.9250234070581733 2.353009186036472 6.869750222473492 -0.46569671651486244 2.0192469780641287 0.7846703458071519
Ni 4.194643208385842 6.566065099363489 6.259210918892684 0.7066751600785959 2.9602146850458504 -1.4356942350700308
Ni 0.6659937177022622 7.578991076273029 11.022480443372801 -0.07933910135096015 0.24549124383242238 1.456277715648337
P 0.40067718181864426 5.619473936553477 7.917176846222957 -0.2421110145062798 0.27544382433045467 0.5408305215352234
P 8.612838102923233 1.5215201496232948 8.07477360527722 -0.7523695767919172 1.6477387692082335 0.17710324217632722
P 1.9543641270336456 3.0747581374720108 10.628210446639807 0.8782993814182228 -0.20829869394252512 -2.5929930193804505
P 3.7257644949973265 6.3227920066362495 3.942168307290911 1.0709032903333104 -0.4392071548647662 0.11180262119630423
P 7.059663732515083 4.051385820435323 10.32536234728355 -0.8269747630023175 -0.5183199991375331 0.9734245419588462
P 6.4535531116183 7.921998139397337 10.304532179600836 -1.3615114811090294 -1.4703280230938163 -0.49592080550672657
P 2.397314189288313 8.685898189311244 5.662079445321607 -0.9282433174365173 -0.7411346273080461 0.6475176758818333
P 7.034107697818841 4.054421281170936 1.4684068573146973 -0.045097920779902975 -0.29151990395671085 0.060321679708192896
Ni 5.345855324675899 2.795150397975363 0.877790718478235 0.10487298395600649 -0.25774640705069163 -0.728173696272004
Ni 1.55175661030409 1.0278578990311342 7.220976658919024 -0.5019927227324193 0.8198381519575364 -1.8687968196989557
Ni 6.831786060404997 0.7625677189443225 9.4325251952907 0.2850083280904382 0.13157723272007016 -0.6758808004055586
Ni 2.758924809675498 1.6117296803469419 9.044945935664167 0.6540140822394543 0.12530605499937775 1.5882357287465938
Ni 6.603835682648547 1.6290608887984828 2.651868471869197 -0.07337234224456396 0.6401254971828202 0.6340931749458112
Ni 4.092319099337127 7.1892433707437515 10.250660930928914 0.9458900839840032 0.716002865237425 1.3060489292653505
Ni 8.06991777692082 7.032162821778658 0.28543964115545944 0.004194754807637937 0.06836948971333386 0.23479725445368596
Ni 7.771415657575847 3.996047735348048 8.153265712269052 0.0818803797155751 -0.8132011062569932 -0.12777225715168317
Ni 2.8988650025107505 8.302730344777727 12.393533531388208 0.4865398785124588 0.241777542426261 -0.08732700465244314
Ni 9.110744545621774 5.056595910624695 10.230349699797113 0.1424033768012967 -1.0567704504763542 0.10899909030923809
Ni 8.54794831354515 2.2150138692414028 5.989841952044963 0.9207585790236982 1.3546052409074993 0.007812554065883317
Ni 3.89066998915213 2.566082170906098 11.86087469854921 -2.32881448355117 -0.5520225335963009 -0.026385174861748108
Ni 1.230588505705766 3.3026630741994834 12.532281351623123 -1.707678125876343 0.12535182063564862 1.3287448282009697
Ni 3.3713517335999796 8.37480890493985 7.712134199994014 -0.572823272391736 -0.1659402835809723 1.165645099392586
Ni 5.667723221120457 7.997230306970413 3.4462340052499383 -0.16059547432929117 0.3473645217301566 1.0342550429826576
Ni 3.050219981824837 8.42757502778707 3.492457528745157 -0.3304152954703278 0.3143204467909942 1.0673104307757297
Ni 3.4533455262847212 4.22441617057108 9.191435089595478 -0.8170215084443477 -0.2304618603031257 0.45654204659878794
Ni 6.996718819177184 6.101339696023404 11.54689263827319 0.3221988210978064 0.5740928831327791 -1.3551446583507372
Ni 0.34481016315408625 8.969422945505643 13.299339553050876 0.3656561209504928 -0.07051713218395597 1.4478349841976226
Ni 4.4695159926631645 0.4288169934224755 1.7978852172921977 -0.10173340988576027 -0.03725091393165842 -1.251444354546593
Ni 5.869045155896825 5.618065264655213 0.3983133394912999 -0.04867612504946456 -0.09730648446265822 0.5221558279438556
Ni 7.737607532017519 8.941822064505471 11.600204962288704 0.6343135184867333 -0.5559853748987909 -0.22604650484424943
Ni 9.050616976080404 4.814386137975499 5.818664687070858 0.3548538881286663 -1.0486097690424327 0.1359069704436756
Ni 8.266877372915467 8.838525517436665 2.3510016013763013 -1.6084556553378946 0.9850086472520198 -1.0584303546772804
P 8.660523918730908 1.8517128425763019 3.7852895164944727 0.2852929492103925 -0.9707400531481477 -1.065789623255829
P 1.8476958556148013 3.3553564914003404 1.3540799548721965 -0.24338268212985179 -0.3877336695758226 1.231169406347641
P 4.768863315147094 0.9820442536172812 8.228565132565013 0.7193568693113225 -1.1301523058026148 0.4264709382450204
P 8.411779726114927 1.8367263912199352 12.323966951307888 0.3304656890922889 0.025515113551968963 1.6896806608576578
P 6.442665441075591 7.917463124705507 1.4292203315667404 -0.6866017863674885 -0.13215136005598532 0.6390479478479253
P 1.9761667327364492 3.2549409055686285 6.403825175968433 -0.22204638254592082 -0.11807431313762892 -1.154356413852644
P 6.743103348254951 4.184109977869148 5.9727497634058375 1.9900284475186434 -0.256641604022287 1.2895943832537533
P 2.3938879357035043 8.79724688671464 10.10929207214265 1.1950883443543676 -1.4207759231973014 0.3285833844679116
