# total energy = -340872.61965484434 ev
CRYSTAL
PRIMVEC
9.22679677606045 0.00000000000000 0.00000000000000

0.00000000000000 9.22679677606045 0.00000000000000

0.00000000000000 0.00000000000000 13.50434974067661

PRIMCOORD
 96 1
Ni 7.741107186714016 6.297897768848924 8.50430998623572 0.0244686745653256 -0.3835360865547072 -1.281841735891528
Ni 1.643467815111801 4.730062006917701 7.3868655460959864 -0.055779311753149104 -0.23709556356955938 -0.5222255048395265
Ni 8.965272449094549 2.6733628713538597 3.8752887854629336 1.5023225737225416 -1.1632274910900289 -0.45171557174442206
Ni 7.744133576056853 1.8724953647090092 5.970799518989297 -0.761354811009663 0.7012645305859858 0.08284402918042506
Ni 2.523030671467174 6.336179748676448 5.974405351169725 0.3493810379395531 0.518969202685758 -1.048942469791503
Ni 0.13737500917282866 5.478438266698539 0.2688716261190688 1.314045574317582 -0.4121398663343289 0.23171270199109126
Ni 6.8122455551794525 3.090644755590977 13.063756525911987 -0.24088099875392063 -0.31787988200747835 -0.3438228271254853
Ni 0.08124748169902411 7.991845389127365 9.003161367379377 0.07167592837874753 -0.8231132231643825 -0.6905566572501785
Ni 6.394050218061418 1.2293414953723965 2.2296895802956596 -0.9016545112043955 -0.9093719344533113 0.7912909364474631
Ni 2.290118640426874 3.92039213614765 4.735908105355571 -0.7521181229027434 1.0072306918750138 -0.4891912000923768
Ni 0.14313714376002779 6.660612376947218 6.648042711697992 -0.476542915200747 0.5760739181185498 0.374302226661265
Ni 3.7310674930816154 2.527477987513659 1.207176884154831 0.2147735030335914 -0.9666651117478253 0.5720383145965955
Ni 7.124305048972345 5.890580825130902 1.5117442189648482 0.8527058492198346 -1.0461479377655014 -0.22704177887798319
Ni 3.781888689729002 5.110907270682683 1.8093536263253749 1.258640100964084 -1.1398705615316431 -0.7437111297859708
Ni 4.144068143614233 0.5226463673517081 3.0696334939705294 -0.7016131721746562 -0.31437546839864566 -0.5700467380878634
Ni 4.286483751866305 2.9830695319686322 3.680583074516588 0.3438840193807239 -0.5079399414547897 0.057201388911656326
Ni 3.1855700408321375 6.28141870980531 12.29473807638178 -0.9579768399452083 1.109773742146263 1.5242450848272457
Ni 4.574027646622866 6.5927585134496 7.417939552281365 1.4800987293273349 -1.0376805237244386 -0.9415217797129785
Ni 5.982922607274519 7.798737759382784 9.183876486372847 0.31670848740719654 -0.39508033974888085 -0.6268537197745785
Ni 7.413223736448671 5.28939965433259 12.6877553304549 -0.9551913067802711 -0.26707591198173364 -1.1812902621290107
Ni 3.06452369391546 3.892997776516915 12.937099363875252 -0.7300819690383105 0.41313539747837885 0.2555694540040308
Ni 5.08854151529538 9.035146981086317 6.38605888937291 -0.41790993604888665 -0.5073655570085585 0.009178324065158385
Ni 8.17613220115319 8.614451182041732 10.988867683182086 -0.04676528117999688 -1.0256984116618981 0.2741377039245214
Ni 8.68082875805504 0.003255213902904482 3.3130354702665326 -1.0945774940217987 1.0131568275514615 -1.2856335988337924
P 3.979840387781476 4.5390027260576025 6.012514789897521 -0.2684087718605442 0.06451206364045664 0.2933122199704432
P 0.5743293468180606 3.836289883525841 12.219640254734585 0.363259081473226 0.29954071737865834 -0.8340177858920282
P 0.6614838238136818 0.8082710883786671 0.44238061682975044 1.1614526585777933 -2.1315741043053356 0.9317009369678149
P 3.2473526720505284 0.964624695841984 7.404219305474056 0.7849017450916677 -0.6133207182851502 -0.46217867605927504
P 0.9704929385921178 0.4639731666471458 10.7779569490564 0.2959216325688323 -0.6094851465891439 0.7332878775701178
P 5.049493711335369 0.8241679365456572 0.4881326113278858 -0.9815515419413547 -0.7481586240343632 0.008509580132907925
P 2.187581247844738 6.264819702403593 1.023633751949227 -0.13704468359254462 0.6859505259367348 -0.5267372766669509
P 0.5378825768694694 5.6355521622162765 4.648953849850009 0.16345711214780234 -0.39008340075492176 -0.12873950616095892
Ni 2.897269548739866 2.87717358535969 8.122582640698862 -2.5423078343207575 -2.168565336817704 0.5046602422622534
Ni 7.74842403655813 4.575476253716847 3.9012040895703253 0.18222565100455715 1.058965915465776 -1.225699127261689
Ni 3.6651973908910396 5.881769234208924 9.648817544001895 0.1040116643969757 0.9479896468255095 0.36095485882008155
Ni 0.5014459563973327 6.27212732545093 11.457576041935157 -1.619399813054224 -1.2275084125562858 0.6911595809415
Ni 7.749033005145408 8.692426841603652 5.577067188165964 0.20978067780469034 -0.4838335353248893 2.3203851218368943
Ni 2.8201519812782 8.448682551147225 0.9631059650924996 1.211694585452481 -1.874868222704016 -1.7471792692947585
Ni 6.812928338140946 3.42239423370586 8.006229042622936 1.2208849937024973 0.286999390378538 0.3773757233802662
Ni 8.040572102906387 3.947897217339709 10.496607002976196 -0.2036573385157718 -0.3290286995354462 0.7436638214878031
Ni 3.775706735888452 9.052973152459366 12.271713527704604 1.6055562223029123 -2.1610062935235237 0.9734636227268977
Ni 7.726704156945213 7.003803083065506 3.9467005017977397 0.6404574266009421 -1.1024520116738692 -0.2232036360788156
Ni 2.8518275746134356 6.720485061232782 3.377207841850151 -0.2480492343675857 0.2712426417649135 -0.6076807463905535
Ni 7.826962530723444 7.534260856568572 13.332668749936875 -0.21642055171871116 0.9035987794149599 0.22305734030893845
Ni 2.4555366530438567 1.303128189197587 4.717204465609036 -0.31304132296825443 0.18226653154482156 0.20212881768638735
Ni 0.7931142293131875 8.327423987904679 12.593170514014808 0.4083222923604516 0.762268581073184 1.1523509533868415
Ni 4.573658574751789 2.122347794631771 12.018318007819497 1.6404558623935745 1.0085882343441726 -0.4344079337039099
Ni 8.194022960103677 1.868057275459301 1.0790314397979757 0.5046900670589243 1.0085635517538243 1.229447538560528
Ni 3.0746454899797633 1.0348037121273908 10.186898497002069 1.6835652919885389 0.4285794999475909 0.15811050312390834
Ni 1.750415616553314 0.3393892658461892 2.3920387603046325 -1.7256884464108344 1.69549161111248 1.6631111378992451
Ni 4.531538247465058 4.216738395029414 8.131495726385387 2.411006995190525 1.6760625558535909 -0.9093426238772725
Ni 6.0185288160367305 5.327100345963167 9.67389505496194 -0.37232556255086846 -0.8240886997037744 0.13473763272592276
Ni 8.317292965043597 1.545885212398882 9.327819129491504 -1.2109859894212307 -0.399755376627047 0.08036574284326159
Ni 3.5668120568585273 8.296495765108375 8.496477358451775 -0.4171617450289526 1.002109054377732 0.4586251543800618
Ni 1.2688875463583622 4.549465913602652 2.265354840557244 0.21279066827560775 0.9881009130240983 1.8853238708197015
Ni 5.455389728349743 7.022431985758148 2.6340502583263508 -2.4703696534195583 -1.8631632755622622 1.3501729161677585
P 5.1581946041645015 4.99834957680079 3.5904012854984524 0.9579768399452083 -0.18589692920855724 -0.3677623686602182
P 8.417412936870175 4.006450469686171 1.6808732492455163 0.3167509106093577 -0.23511709968694988 0.6646993298674424
P 6.8154288000674965 2.09385544618458 11.110474096663124 0.03016521072947063 0.03457208154791465 -0.6978547335734885
P 4.318925169334026 7.9956191490091335 10.540699096734162 -0.8855594054147459 -0.7665908625976218 -0.12840037765398532
P 2.0574280525092203 6.672874789863772 8.389644891969972 -1.309862646584486 0.4244883605973528 -0.9980685657597714
P 0.30678268871616043 0.804092272118391 5.201902863176544 -0.3680824710037983 -0.22567112378270168 0.15986502392116983
P 5.468694769302091 4.650333255968162 0.25827188198171996 -1.1195650172050717 0.8061696533315085 -0.3872369324450622
P 7.402511425390644 9.142436174008576 8.08240732217271 0.6475279602944783 -0.6707712470931351 -1.0899345959331488
Ni 0.49043654248308777 5.277801570783976 9.303362581954547 -0.3937258826035155 0.022205846673077883 -0.581528770585534
Ni 1.146530994299359 2.629415638305294 6.332878400789659 -0.42755980043382497 -1.6020134992569763 -0.7671603619478465
Ni 0.46002686566564843 7.438532840007818 1.6484216823013402 -0.3037336724140834 0.7191748352075034 0.6445089709624965
Ni 2.46408989365608 1.4805502644213688 12.503623528614927 -3.470275786608701 1.1563101951449055 0.9442057543030449
Ni 7.011175293690282 0.7233651817575862 12.98394657915081 -1.5410670414805911 -1.4777947637845066 0.8994225365500833
Ni 6.30912678052646 3.620613508864865 2.0301767082285274 -0.7712946958311941 0.20678688528368902 0.40141733771050225
Ni 1.3333828558291736 0.6009163617308136 8.790318542008599 0.3508041435393248 1.5545684184011357 -2.665425109198932
Ni 2.111718524744736 4.437424920340268 10.724074301238426 1.5180942347345017 1.5073693921178297 1.533142901537508
Ni 6.072994597411008 8.704643120536321 3.8882801153248656 0.4830218380568714 0.0783944780495037 0.9691817075220921
Ni 5.164081300508189 7.497095319151057 0.5194003802455806 -0.27277836168314956 1.3414609902160575 -0.644866097191599
Ni 5.972302564184261 0.06665714795564866 11.034390853120154 -0.7281567269911394 0.7946428836388315 0.3991653084515319
Ni 1.013766615475967 2.692573062243449 10.054704334219492 -0.13343048387872505 -0.7557212668729694 0.35973332770815464
Ni 4.7597169317587875 4.826159095349533 11.635361652951952 0.9509716122719687 -2.0640862458660068 -0.03499965600363649
Ni 5.165299237682745 2.225023589165561 6.654538376628958 -0.9519614869890638 -0.577151981674077 0.034271262478044205
Ni 5.857862603759871 1.1547612970243892 8.915922926533085 -0.5869957072373762 0.640551271866329 -0.478020528187538
Ni 8.537877995589906 4.423990704233043 6.192716898990195 -0.36140197365982923 -0.23468952523122805 0.4630435951627316
Ni 1.7652153985835262 8.611987627302288 6.7872187916016795 -0.05666479968189596 0.032573048840014864 -1.056608470977193
Ni 2.0754941205984694 7.666148689698154 10.754418467798748 1.2960828191915743 1.308464480685379 -2.083653883585289
Ni 1.1200039535656559 2.859024476099449 0.6873852877259082 0.5656262404226646 0.5571891653989048 -0.8544909661447154
Ni 4.813702919700663 6.6413560520737445 4.947952812805143 0.6271823067585909 0.48886261310836454 0.9883315409776655
Ni 0.9092436162274339 7.79253735194868 4.432316965644554 0.07520451035729629 0.14494259828338263 0.3166663213153514
Ni 5.74171568593175 6.95521477123814 11.91579261007317 0.2513947538010509 0.5213163627616958 -1.2913445331756406
Ni 6.151044071347145 3.932783724219081 5.417323655566799 -0.7351264734407533 0.6800902105012159 0.2309560263307248
Ni 8.910003936400678 1.5266381143221848 12.09784469191962 0.7775414480718544 1.9272811890880939 -0.5990138147441748
P 9.379038923759653 3.0822945045078463 8.090415259095417 -1.282983562805455 1.0473730684218543 0.6264264024291728
P 6.788505007072385 6.283310203144581 6.488043596828106 0.30336960420644526 0.05747803961181069 -0.40472120527275457
P 5.812928103456174 1.3939936838568934 4.593410378612185 -0.0917431314422678 1.5652775772885235 1.0184913523904975
P 3.0645329207122365 8.445268636339756 4.809547170432331 1.1575240129473485 -1.251370049665232 -0.25796186549560735
P 1.9889744472211015 2.5169963463750546 2.855872602320446 1.3006496126266502 0.2527299276727067 0.5501530844877299
P 7.168935064982405 8.008970323945366 1.949920184503347 1.4735951238808622 1.5465195799547302 -0.39332890427541295
P 3.8950276718078416 3.3429791938467366 9.974096269537108 0.21036380400166993 -0.249969334208434 2.007350226626543
P 7.578521800707554 6.305888174857754 10.768287266034166 0.7838421934789017 0.6507708927118083 -0.5734940732065156
