# total energy = -381174.06585445255 ev
CRYSTAL
PRIMVEC
9.24672446331680 0.00000000000000 0.00000000000000

0.00000000000000 9.24672446331680 0.00000000000000

0.00000000000000 0.00000000000000 13.53351592529414

PRIMCOORD
 96 1
Ni 6.641080779584405 0.8053591925682204 8.280116333928415 1.2659505185825681 -0.4470161093862237 0.19512564689567685
Ni 4.513899541113355 1.1568854464036842 13.20719558936848 -1.137330568718609 0.2944501902296284 1.2021514218487361
Ni 2.958850136350887 5.747051971459057 10.085663204959411 0.19989221504638477 0.05611175539190337 0.5460640020200208
Ni 4.157392076772368 1.7908223868858386 10.664857686865725 0.5034945040889265 0.027379163343901235 0.5877289858589749
Ni 4.630463750566928 2.1622910515200107 8.299780418318703 -0.5821499491093006 0.2885248258841289 1.1225981476044409
Ni 3.890827501956598 3.162768152460647 3.1915411851876567 -0.7436365677942935 -2.7084183249310065 0.9628215696320193
Ni 2.896490226105377 8.109479128755137 11.94916114797894 0.6379793973740948 -0.47192238570960016 -1.0362422486160152
Ni 1.0440106800384803 4.564978447429517 10.170355804295218 -2.6693306149009257 -0.38039111316782226 1.0061991652867057
Ni 0.6941469872739153 1.9091249805514747 11.126593801056199 -0.21172905978031276 -0.017268300162144454 -0.449883917852322
Ni 1.8250075274815754 9.051110074772518 6.764240677646833 -1.6118430837528888 -0.5911395542024206 -1.392832145599182
Ni 7.606078198494789 4.769867369615164 3.4807935233157603 -1.649355993096682 0.27952750748152505 -1.369368515259603
Ni 1.5235920479037466 7.0290178606105185 1.6846931060669126 1.9534280226867906 0.9264427738926689 0.6620379809851954
Ni 4.569962431952402 3.731765346552794 1.0183500947890267 1.6398771070719693 -0.2371313019035013 -0.535294936428975
Ni 1.0641223058961289 8.480226548875793 13.361356056097737 0.19167754044607635 0.4949291310174186 0.9743776499007349
Ni 3.249095572693755 1.4850239598797221 5.476986586735376 0.5557046104335784 -0.2962643606202317 0.21179076625618362
Ni 6.267198719847315 8.521355979595253 0.456281471388897 0.36034139360579875 -0.05656529798955419 -0.4825076174246142
Ni 7.23261224136165 1.847680496034658 5.889380329476844 0.31424691324058135 0.09195884699749969 0.8024605799110373
Ni 3.06745291598219 1.6041680054777934 1.390392981016652 -0.8274681576989684 -0.35729849301441685 1.0256351625241305
Ni 5.942407520651952 6.682395144794508 4.603154474333374 0.5015216966332717 -0.2851484532127283 0.42536973476104156
Ni 6.635431030895198 2.2992720287407966 10.19444537104664 -0.9119463800487069 1.3921443755035379 -1.0850973224455056
Ni 0.8644087754311837 6.3793707351480675 12.050743814345358 0.2914486843991432 -1.4403265916357195 0.10082606758014247
Ni 3.1149255997307734 7.122622453050509 8.188291735960883 -0.24777206944679908 0.5767670875308324 0.9229609859916557
Ni 8.469648296010897 0.5992783675903662 1.5520238764955159 -0.6085549214653906 -2.5134538862035423 -0.16456860004442625
Ni 8.899768934353146 5.630811397364114 5.447172372826035 0.07705339064057697 0.8230854552502406 -0.4905376868179423
P 6.280772911460661 3.0739811035019606 2.3469684832230606 -0.3759898987763331 0.8693915374056318 1.1515014609023522
Ni 4.344471807508897 5.277882415417106 12.074129705359878 -0.9343121493384166 -0.38934060905162626 -0.09418105145979909
P 6.597066370810883 5.891226900365935 0.1645611824831348 0.9473728391771168 0.19315309655033833 -0.4499569371821025
Ni 2.4845116612954077 3.5731100470284085 0.30425792269904317 -0.9000390870881596 0.37514323450532167 -0.2640846905638936
P 9.06593257419772 1.1578193655814415 6.833248058158579 0.29492070210814364 -0.5738997932853666 0.9683059897853581
P 7.084535194702162 5.070330436566171 6.48806228333488 -1.4102225731614875 2.057745134139327 -0.9118707896157651
P 8.191109212925861 6.470367751269962 10.117656871841005 0.42136189915322914 0.30051696524899857 0.6965504129397682
Ni 5.0662156441493185 5.8115941086941785 6.960747444043993 0.49843662995004484 0.5364642741467277 -0.7243301541561977
Ni 6.882401796427126 5.03000547088102 11.57899164814155 -0.4851615101076935 0.842779077024426 0.6045404009893589
Ni 3.7485573983033635 7.04351672467709 2.9556923799231223 0.10480973481823884 0.1492805635371042 0.8543228159979673
Ni 7.6259494095145985 4.524218885691349 9.445149069317466 0.01207775710014049 -0.384927310475279 -0.7256180197296859
Ni 8.675397163578044 4.138870887534266 7.308315175107199 1.9786675139798695 -1.7281042549411787 0.2520544988722369
Ni 5.089933492574546 6.453316791232489 9.43985716886766 1.0948952823725338 -1.3563031974352127 0.7118716166778708
Ni 8.651383419967784 7.357683437384895 1.059003319195074 -1.4117143272156656 -0.10803004152774943 0.41599394997309647
Ni 5.48234598827427 1.5751240437219887 4.2374659372043135 0.01571226852893423 -0.24455227695792078 1.1123607861471487
Ni 3.3183812796139214 0.42079346730656586 8.113491282529681 -0.7479290245220603 0.3196763117862688 0.7410369253879173
Ni 2.2945931861274773 1.1623595073267776 12.512994046419823 0.5831709341746473 -0.09263581845986628 0.7638330973468265
Ni 3.582708147092886 0.0005816189730786707 3.5005796644698743 -0.5483579402605201 0.9884135591685106 -0.2070902754567208
Ni 8.823464963513 3.3805377619197214 4.795898748518361 0.1504614712190828 -0.8594146286985781 1.0572571603047856
Ni 0.4549286755898285 5.518463694297248 3.082907891365397 -0.6690324100251576 1.1618257256464959 1.0059127443945386
Ni 1.6180565857252363 7.477271325760514 4.334176504414687 0.24297439094783962 0.11934469520962028 -0.2813761306544896
Ni 8.89753122701634 2.3480762408220244 8.91037215337428 -0.013636102726195871 -0.6615677262169961 -0.20725276917651403
Ni 5.1427507831027715 8.103191356073205 7.768076188937584 0.8197527913325817 0.5606856085879376 -1.152274848733267
Ni 5.380881679981865 0.776853390180193 2.0825509978436796 -0.2387924916560081 0.23741155214808146 -0.9535810248703578
Ni 4.511976222410647 8.78117969222701 9.813382305037804 -0.2540689581991044 -0.013737404190750535 2.3894614078092657
Ni 5.346890720601305 7.353078568567834 11.874333879046596 -0.19901855419217984 0.8759810176976914 0.5698549337920314
Ni 2.2971082952002497 2.364276502202531 9.326920449448089 -0.47749550892200343 0.28386598695587884 -0.6622498398856852
Ni 6.615097483648776 8.676072174468898 5.840591836827321 0.2991835911495557 -0.028557757033034686 -0.6891674902121357
Ni 7.765519469604415 7.267583353542627 12.399596840118548 0.11006172724579755 0.02065984234219668 -0.5933828417106425
Ni 6.558424308990601 6.771357881519307 2.211092489583879 -0.1376604627996726 -0.031328634909952496 0.21250116205964692
Ni 3.886241126588601 8.429859640348615 1.046227119908861 -1.2179837608953026 0.39718992989271595 -0.6551435678582073
Ni 7.155633259630649 6.980546530612451 8.011354737363781 0.2700506783393414 -0.494746068472335 -0.34869455339548977
P 2.129946009106192 8.514088054112902 9.75679882360759 1.0406917997469367 -0.3086933304122038 -0.45846805997690726
Ni 1.7552502376102639 6.369680167838267 6.627308708066068 0.7872370780930635 -0.8251014572390049 -2.2071066874260117
P 1.5259314692104065 4.674431925717788 8.201067010574643 1.3532798372278565 -1.218326746057018 -2.021380993687996
Ni 3.9481479473320302 3.8662866950480006 5.619901187088509 -0.3026684643743626 0.7030936133749246 1.1405845568795323
P 0.7842452217712754 4.005505379605591 12.34593624831298 -1.220348661583053 -0.5972240698336038 0.6586166140084722
P 4.919183477361975 4.139360963934476 10.231013392554338 0.09589494882711226 -0.23151369860640775 -0.04217869025057897
P 5.151340990193233 0.8277991436630904 6.71259679646175 -0.22958665678702397 0.07091976693901335 -1.7428449035854632
Ni 2.5796234698341545 5.017402185343559 2.5424063282642924 0.8134705578682958 -0.6074064096832442 -0.45199067978267965
Ni 0.5756862746187776 3.3065824591107673 2.5829393452514204 0.3820073086150066 -0.932868989133987 0.05104333973006048
Ni 3.7225925958167996 4.309768850339354 8.106657028427893 -0.7871746002862443 0.14884733265442754 0.7051710647292436
Ni 6.157939422774221 3.5546998184846936 7.669253669844043 1.1301193956821505 0.47090500018867937 -0.19520483687304443
Ni 4.936336151369303 5.068906440988204 3.1576131035339166 1.5176664031684637 0.4796608920044384 -0.2197892110806279
Ni 0.6580403773203765 5.110285533270034 0.7412303839196909 0.917205314454801 0.13810757763942022 -0.509906064042225
Ni 9.362401056150794 8.93090265585324 8.693646499114896 -0.4080433276674521 0.45198965134141517 -0.7058590919352037
Ni 6.7212868681771605 2.043008305053956 0.5190297440647612 0.32593926197684514 -0.6633623562235736 -0.3945216390319335
Ni 9.204309806822875 7.867954683972706 5.999055729153889 -1.1188132266407118 0.8642303049196665 1.229873827464669
Ni 5.56540006802296 3.211979220421294 12.34101051815465 -0.6826633705450307 -0.4799817656789669 -0.558099078807684
Ni 2.6510174299476748 3.4450429122567137 11.471265457995903 1.1482909243848547 0.014679456389045687 -0.07098070208393582
Ni 1.9001279175815933 3.714326024084966 4.749899067987766 -0.7301837847234973 0.6354509745252863 -0.45373543038792824
Ni 0.390290372419572 2.2043266612436296 0.5611143614284012 0.769108743923469 0.5029365747029274 -1.5416859060115127
Ni 8.017418739312033 2.917868653223944 12.047697943284433 0.44538808686449743 0.3741271345359815 0.5032571912671397
Ni 6.047135922704242 3.8181390004085625 5.052278056261855 1.3741443393816914 0.2915823817635301 -0.4345519154809419
Ni 8.385281181378627 7.5840709941080275 3.8270214039942436 -0.6737393285825236 0.18969881945315073 -0.8573644310377687
Ni 0.17697491016768355 6.313829951663463 8.176922888148479 -1.0136245112164997 0.8408772320160227 1.540751310012385
Ni 6.865008707581959 8.209066351967495 10.241636954369444 0.481177585759281 0.4036282293188919 -0.646325712456261
Ni 0.38896994015636627 8.365641138472123 11.055028776538832 -0.521508938388476 0.7334154042869175 -0.8100443057955662
Ni 4.543951395843176 6.162507304693153 0.7302563712448139 0.2473424381085482 0.2810868815488449 1.2969024868793921
Ni 6.114100701766812 0.7554453735431224 11.935316027336798 1.5652132997094914 -1.1666519433905456 -1.675856867600688
Ni 1.5998960187438929 2.443197296085304 6.968529487410336 -0.3344161890996047 0.6823013592199216 0.3288680055878659
Ni 0.3536724185993996 0.7787313999326934 4.691190689260043 0.46043495389529093 -0.17971933964293563 0.11981109332307753
Ni 7.924156275679736 1.7314769088378432 3.2920956157860877 -1.1198100433363423 2.2252954425198967 1.0504249678743007
Ni 3.9568768552904765 7.79378670649951 5.639889831509878 -0.5751951150580223 -0.11648254317047682 -0.24056938105077275
P 2.0114399875008466 1.8800995122447348 3.56667710077132 0.25348531778149247 -0.9159997241824741 -0.44388990505241616
Ni 8.401083833604247 0.44358849262347433 12.812558331746297 -0.5877459551398394 0.17157279927640132 -0.8636610626797577
P 3.0822014416111325 5.838853452615258 4.836539952182517 0.5844863105519612 -0.32996715218931555 -0.4416723285758071
Ni 1.3503454170674671 9.31607496624421 2.2419219938468613 0.3337016795310833 0.27968460188467964 0.7837619750602696
P 2.564939671276938 6.28191950530266 13.428346725988998 0.10290557581699052 0.6001047338155084 -0.40590622671979126
P 8.089552437388132 0.7826510864619152 10.59990961842364 0.533247824091959 0.129435503786719 -0.49688599763347324
P 6.815067148383265 9.18494716565234 3.4392859015629336 0.3252124111131496 -2.1003660541336475 0.7285922718666612
Ni 7.971536492182997 4.0782216213272235 0.7300224291141478 -1.796122789072997 0.2186738665292621 0.42390240618689573
