# total energy = -340891.4007699442 ev
CRYSTAL
PRIMVEC
9.07360559211184 0.00000000000000 0.00000000000000

0.00000000000000 9.07360559211184 0.00000000000000

0.00000000000000 0.00000000000000 13.28013895816523

PRIMCOORD
 96 1
Ni 6.288045111100444 2.208370473070964 11.243868939519706 0.47319919553949474 -0.9908609922677387 2.1830830708179048
Ni 4.57280696583435 0.4612866935424005 6.200165424244337 0.750739754497978 -0.9644030551865261 0.0314168237483846
Ni 2.8793636216904206 1.4116171481179625 4.865099566146086 -0.5639311121084288 1.6965275085761622 0.5411567945263906
Ni 3.6119937744825883 4.602595613662852 5.118816638776406 1.118051408774023 0.3685668668393846 -2.2413054447949077
Ni 4.964169731030489 4.499782586387571 2.7848320744252133 -0.0921100278633833 -0.459967270230253 0.2727248827373948
Ni 7.369491891510972 6.264435588819066 2.4527090667504643 -0.26635291777278 -0.7415822563684261 -0.07263597829917169
Ni 4.951630007820319 4.549369842063099 11.740958266812244 1.0089037087020625 0.7761515097028633 -0.9249147672839167
Ni 5.626415923662533 7.812456252869366 12.36853693377924 -0.6871049512561521 0.6768182246181634 0.6265014786414823
Ni 1.749336755847728 6.542314766323743 0.16879719598488996 0.6116533578850563 1.1551123181820624 0.7722202929692571
Ni 2.6876111104020506 1.3919455707520803 0.3295297711382319 -0.13068403148183944 -0.9840115734460732 0.8156593379894985
Ni 0.6438485495199303 8.975883061647396 4.802988012390242 -0.0803559726512487 -0.5982491686640085 0.7035219591615948
Ni 8.743108778554989 2.5033261766838466 1.394188566104869 0.025667579969433217 0.07564699721135358 0.5351717805875492
Ni 6.915348847811818 0.6026516571240287 5.010848896048377 0.19524828851647022 -0.024371486865828997 -0.5442405756580369
Ni 0.5987291373383872 7.63187335031596 2.595310762802097 0.5669722129275977 -0.5884866899606058 -0.194312149855446
Ni 7.734631935956464 3.807974586071927 4.068184731009915 0.3445627906153033 0.16599247697514638 -2.5338234509988298
Ni 7.473121543307899 3.9031657844785093 12.650236099324061 1.2693361472253495 -0.12625402073494385 0.5594743618886558
Ni 7.960564720278634 8.862653534918225 7.162590087985481 0.1496279195741939 -0.39210711605316984 -0.5688570886551364
Ni 7.1219004101535806 0.9278306342830446 0.30911415809707193 -2.2522586013723016 0.331849456813693 -1.0181509383319431
Ni 1.7548535081717394 6.42495674895736 9.194530647875899 0.8365140699513206 0.12707548819497472 -0.17610025483310962
Ni 0.16827909309393427 4.979123033382414 1.2496795981149025 -1.29588253025531 -0.9822873916661147 0.4100613865387454
Ni 6.428087142957005 2.18533258795474 7.222895086827329 -0.40608954637519096 -1.0192626833388831 -1.260361968751197
Ni 3.6368463807580267 4.205643507296335 0.5452865065601081 -1.302741976379305 0.8984519451066978 -0.2109764978850044
Ni 6.101664174443348 5.6623927706439545 4.748154397843424 -0.5979226385625251 0.07486126808526462 0.19845316860701306
Ni 5.437839174402788 3.071397414758469 9.337983448151205 -1.1435112436080241 0.05862398029079582 -1.2263529587956041
P 0.20397919509857595 5.322323099013007 12.454499367730637 -0.037521908204857964 1.2938261619469136 -0.942814530382473
P 3.7566905661125336 6.294178868618587 12.569983685500132 0.990553488329649 -0.16848824681380659 0.4699976578830616
P 2.312399363522919 8.546583550617886 1.4219710396918592 -0.7528184914038777 0.04648683070762962 -0.6648831637434742
P 6.411654842860321 7.773439747946261 5.905372138175203 -0.6332722217064125 -0.5788694785858159 -0.06297737216348508
P 4.652827095349902 1.2083683782859702 12.646716447635766 2.2002904358351265 -1.5714703363627969 1.5188786783090098
P 4.065937198854228 6.160225226251191 8.09470981572833 -0.44731512868388124 -0.5159353009554405 0.5411863622127453
P 5.051820763020536 0.9368044304153589 3.9293413224790146 -1.370600330784175 -0.03316774500122029 -0.021953364342639607
P 0.22141231391456734 5.626869603952336 3.3915350965371878 0.9378476732955009 -0.44336745689004287 1.040012771402041
Ni 1.4721380987777566 0.9410055098989397 2.6940225202575543 0.03992948920508607 0.5547530451535865 -0.5616135197188458
Ni 2.051242841500401 6.525637478870565 4.8623901874553805 -1.3090455499998295 -0.21965628504718945 -0.9927944618450256
Ni 5.918250306881567 5.526597186299955 9.067532831711771 -0.015367997815638051 0.7787205559816203 0.9786899041228434
Ni 8.466499905861761 2.444402180644161 10.08918727200793 0.745828947459922 0.5579530401481229 0.7364140819039252
Ni 2.381222663486118 5.246785330760714 7.012989012422759 -0.44877602950012385 0.01475710370451652 0.8264204331607444
Ni 0.362039593344975 0.21743535249414936 9.278395264167248 -0.968651546050235 -0.280625111421078 -0.33161342954348694
Ni 1.3514228472668268 0.8443734228919418 11.499272795467515 -0.16264747176231345 0.8464596111998067 -0.08655618792468964
Ni 3.8429442628099855 7.150246354660506 1.5747324521533528 1.17982524754771 -0.7163980437933146 -0.763624066659814
Ni 5.665468723008822 7.924415474787087 8.19546585656964 -0.31394686550165934 -0.3825346418733863 -1.5672866372987522
Ni 5.354008130452887 2.9978286189639247 4.899760740287078 0.18833844877051434 -0.7008423554469027 0.02715393470697259
Ni 0.9576102085057498 7.556834630382452 7.12367883688961 -0.3092841699186673 0.08440083214458369 -0.2292130754976891
Ni 5.146195336905471 4.521786080443043 6.89492869796776 0.6005569908615785 0.2636134073544299 0.6492914799528043
Ni 8.288575569806603 7.077349005694872 9.057360412253797 -0.3056332034296414 0.505267279718633 0.7826335178827811
Ni 4.633273474859369 0.4452173376775586 10.665173416418464 1.1719792691407298 0.08876245154738907 -2.502082154031491
Ni 8.135830489835543 6.966941370368278 4.68070484179775 0.5236691792645883 0.9938239315508046 0.6261543797147088
Ni 7.2534586205908145 6.1278143063476245 7.090784293797114 0.3865429917018311 -0.11546155810513019 -1.2432314797184976
Ni 2.2070820210479223 5.301063640632812 2.343001913791328 0.7423926680848634 0.016527822451694117 1.1432155667444763
Ni 2.317770938154193 5.132267352008501 11.467227541877532 -0.6890229942144714 -0.27648949198614964 0.7437687224967836
Ni 1.1576741427033213 3.1165567508055148 3.580404923264146 0.2016999576790849 1.003408489915446 0.4725314800485088
Ni 3.698383575266981 2.148847619048738 2.633557825953696 0.07574212802832117 1.0845820733719838 -0.12962550831033806
Ni 1.030144613239542 3.4322274964508277 8.226103793900654 0.22037130883634307 -0.24351637949423868 0.09085790062383708
Ni 3.614697709009817 2.6818675179331373 7.244395903121699 0.29111624076038894 0.30431911260390815 0.17198726110600057
Ni 4.138144953779362 6.871940717683414 5.98542493267162 1.3401296729991437 0.9743881914236961 0.30685884830662635
Ni 0.6367493603450842 7.274128294594265 11.314001560799278 0.19117514688836107 0.13816799856371045 -0.2802350750715109
P 0.28059400035886134 5.562056837751 7.786503925571444 -0.49426038708516823 -0.5778523501752112 0.1934685709082281
P 8.491588425887898 1.767574703497831 7.957592207019841 0.4031176082310606 0.12901744241269394 0.34897120409564414
P 1.8871466806784558 2.8857695873824465 10.552464714661989 -1.575695687298054 0.7953910746587657 -1.0435773488248479
P 3.9487334327863777 6.286656849413645 3.6093823907344786 0.018797849432793435 -0.5561650950097646 0.5455436107401767
P 6.921990727254542 4.22013405575266 10.543713221871677 0.22438300109889742 -0.08880256075670512 -0.7122292571276055
P 6.354990174663856 7.725322416409695 10.165495389392309 0.17146532716425955 0.4785270355103114 0.7403321860114088
P 2.5233788454931636 8.42036062038874 5.932942289386565 -0.15218616721967337 1.2369623588803342 0.42278166231889125
P 6.998816947529876 4.116903642610759 1.7683305348606437 0.46821742605418715 -0.37931047850913385 0.2661773114268642
Ni 5.555904933021265 2.9771226505372907 0.5944128230611961 -0.1632892191113704 -1.6358900973997632 -0.034917637812791474
Ni 1.4430390449897568 1.0965906284841707 7.093692384454754 0.10072785143938136 -0.16349439314364098 -0.6032008562423289
Ni 6.8369528937337645 0.6770552246518117 9.163947152179663 -0.2764570960863174 0.4711525974231112 1.040052109280409
Ni 2.6673588222652196 1.4149925294741008 9.149883063195754 0.052204192807381054 0.5348141401378145 0.9768549077966338
Ni 6.603988064919639 2.0304461370158062 2.855216941945916 0.009128187553513311 0.4661754559234939 -0.887781095656413
Ni 4.002612504003448 6.675733065949173 10.261164766824342 0.3216969417607234 0.9364111979592904 0.6110787163285089
Ni 8.30442715913234 7.372295635701957 0.06480006315322123 -1.1731414077696312 -1.5871921179734279 0.7176877091390156
Ni 7.554729553837763 4.001696069818045 8.15290338650143 1.5410945522844168 -0.06226286259496373 0.959124066175774
Ni 3.2284887519058474 8.469421606928098 12.019362806092513 -1.2489678679816425 -1.489984106761847 1.797956499847626
Ni 0.12409154022764772 5.039353628656734 10.286981897395902 -1.0156366565505217 -1.197750721677879 -0.31643183670704217
Ni 8.723028888928283 2.1515334063643747 5.71048651080545 0.27882173966375207 0.9027639422184904 0.8567699919868793
Ni 3.571951952104526 2.701865745107678 11.822657013400068 -0.48933363920751205 1.2097266630928327 -1.3059165174525444
Ni 1.1291467260804735 3.164447242197178 12.684671340680731 -0.1666563358113904 0.6413120612917536 -0.30959810161466034
Ni 3.2999796919730917 8.382151666381485 8.226010335760954 -0.2981320099565898 -0.7834902094561217 -0.8994107094755414
Ni 5.618050059118556 7.841782146802268 3.4569929961106243 0.15963233908507346 0.24163870285555158 0.42697718845747756
Ni 3.111611635646656 8.466028078360365 3.7974555548725424 0.8818657586132426 -0.9136533354374845 -1.4620192461178045
Ni 3.2278626731059186 4.24186534163425 9.56309507114883 0.8346795878457431 -0.07918637782317975 -1.568967624545601
Ni 7.134703267931836 6.262121819341068 11.506829294374484 0.7739267341374025 -1.6832814421995335 -0.4908094524220903
Ni 0.2977576330827094 9.228038566720212 0.5439717410802574 2.204001051917495 0.7939882807739681 -0.4903921623790135
Ni 5.002179065710231 0.427528343178118 1.5821555690551183 0.008555088658862686 -0.15493724760224928 -0.5329102382468823
Ni 5.669070944509863 5.453273377861904 0.6481957140568279 0.48864072690554555 1.9640374227715205 -0.7287421671809644
Ni 7.892358425509568 8.872997445525746 11.42616584620799 -0.16750839939904055 0.20220646500185818 -0.5161373896639175
Ni 9.44480700918835 4.73003440706867 5.476915565124147 0.19274686225085513 0.26401835610233243 0.9462204707402284
Ni 7.778502819980468 9.025606421409865 2.219296909170593 -0.16856872234275486 -0.693842784200618 2.05430011301352
P 8.669285921798155 1.4552611919970644 3.6921971908352194 -0.7134356187308809 0.36381623952827663 -0.8597588994118741
P 2.0380225978555258 3.1590847411717 1.484201457683633 -1.1672080730043317 0.20679794102728255 1.2098305356605485
P 4.74167584330503 1.1339466635465951 8.308346956836242 0.47823187286739577 -0.4505228369879015 0.8282397457576705
P 8.585545613906215 1.6999218986823248 12.328431596160605 -0.6861716408086053 0.35595817693643855 -0.12218242176873151
P 6.294904757082274 7.724832441696708 1.2224596880872687 0.20152255156095614 -0.41213420990737415 -0.3131673070231574
P 2.178645340483035 3.3339512720735818 5.8511228638416535 -2.5751055975770685 -1.421956316658648 -0.38251664415125736
P 7.158467041511747 3.929216106719029 6.013247330124113 -1.2747501191520691 0.9545469883280528 0.6812893730156396
P 2.1093411394126442 8.435477247644995 10.071338582046478 1.1974316477755635 -0.6547828420846789 0.5340500082782803
