# total energy = -340857.92075604113 ev
CRYSTAL
PRIMVEC
9.39148636867537 0.00000000000000 0.00000000000000
0.00000000000000 9.39148636867537 0.00000000000000
0.00000000000000 0.00000000000000 13.74538960654841
PRIMCOORD
 96 1
Ni 7.216202029831798 1.4530977099336981 6.418230921938495 0.4904119598733554 0.0266440849500896 -1.4006961217282907
Ni 8.230313498011219 2.9914043746079257 2.7597990539149744 -0.8488777337229961 -0.35063779316478966 -0.3252201244226334
Ni 6.918839400718012 4.476348614413236 0.3624493854164174 0.1638828868313113 -0.6924484749562526 0.3351993471225324
Ni 3.123814939237786 8.341067295350033 8.761242390146824 -0.1791300427983689 -1.9132627633218144 -3.268317433061907
Ni 5.344873262754929 7.120793921024454 7.894403513586894 1.124957391865237 2.811091730132533 0.456126299217608
Ni 0.15773658559853554 3.5256108954445624 0.6884250556861584 -0.48123543558041 -1.4514692385161 0.09766592468460598
Ni 8.73958562285578 7.701732477437954 1.168827751800157 0.5211510408284251 0.666647968953381 0.6902213853979468
Ni 3.4241546694926233 3.4762868096628736 2.065052588834365 -0.12162989169937116 -0.7220094764428211 0.18598511804698936
Ni 9.371379077309614 4.111620854432721 4.535703746657876 -0.07068939609576214 0.12892591114015217 0.7913737259692565
Ni 3.1521490532521343 3.8554305010361705 12.091324420176765 -0.28384387546869183 -1.62572189861751 -0.8131720527912705
Ni 6.679581897029075 3.863948579064348 4.831092285362046 1.3252995499648466 0.31579651711588835 -0.6628890161315809
Ni 6.108823711709892 1.7783530532081124 13.682023369190349 -0.6413303161241987 1.039486723695242 -1.1462646379834451
Ni 2.810533740931318 3.413748902728322 5.1861768672617075 -0.48458558299956545 0.8323190580333666 0.5114299568859192
Ni 5.975793308987572 1.9669904460129484 3.5160982590225762 0.18181915959475783 0.17218832137321313 -1.0087381296584756
Ni 8.989511854924 0.5935597747840271 2.6986463912022045 0.38830034071256997 -1.3108337522485038 -1.001938847348455
Ni 0.9510852039599 7.006537099314625 9.199747787805135 1.4186845878859116 0.3947985468424039 -0.5608668713608083
Ni 6.084330715571536 4.411368921053849 9.541898414842166 2.5771542525759807 -0.15729700608367747 0.10573096108092758
Ni 5.582055247982755 2.840342318286817 11.392371508405063 1.3498355874329977 -0.48601614479850497 1.248244873772689
Ni 6.89429005566216 8.944338806064533 8.105545724891094 0.9137530942401425 -0.34035698006407183 -0.9954830644207824
Ni 2.6289399628135093 7.319930995456085 0.3290870696641572 -0.14858610857324087 -0.07430719535400751 0.1151746229923307
Ni 0.5931794195909277 0.44245170018029656 0.312540210041393 0.8358635808515152 -0.39175821735418337 0.25344932233723444
Ni 0.44616133724879753 4.220505746007912 8.224443819105362 -0.8084129408397303 -0.6190979870885596 1.1837839750851418
Ni 0.5451184887097792 2.7787435599772023 6.36572312231827 1.6268565264425854 -1.4329691228293837 0.7404795102225505
Ni 8.154458463575061 7.086317775003018 11.717710435907096 2.1985063473515103 -1.660246671867257 -1.1606396757581945
P 4.227943803117412 3.919433479825624 10.289207150163246 -2.2852419982768577 0.10669846720051945 -0.2981168404479382
P 8.520660686896726 7.851620597977891 6.995482380850492 -0.6178540873791295 0.5307070599479763 0.744851156927685
P 1.355548342261497 4.172327421548646 2.9274652579249683 2.2427048962455958 -2.0036041293205495 -0.7949185058977213
P 2.7823217162382123 9.047917507908828 10.523511584004266 -1.3637349711229094 -1.4555889171114287 1.8847908811343668
P 8.216047830398425 1.743397941387959 0.8035637379548037 0.06673632498528506 -0.4939163734821881 1.1144577778854934
P 8.143620688443288 1.160336909082102 9.398945906897387 0.721697601629357 -1.6769043350285957 0.1325892189243523
P 4.719888635831886 7.576543965733857 4.587510002255273 -0.13005693942080182 -0.1179627272604291 -1.0561934949269616
P 7.846135970008259 1.0362659842416815 4.38891669487748 -0.37650283385700967 0.023275682698488946 -0.11463032045308647
Ni 4.762479025972776 3.956295063354399 13.54285093446094 0.49542124016248873 -1.5313469859793498 0.19360869603051817
Ni 3.4742394656605113 6.824379832021854 10.959611822034116 0.15979946079055704 0.5112342959353453 0.3287821307422789
Ni 0.7980612661612981 0.2659734646225192 9.443934882626367 -0.26031828154292586 0.10598678584547554 -1.3395465468021641
Ni 2.3229277748640533 1.073944627074152 2.4534281111907923 -0.2355567583275298 0.3798236707001265 -0.4363048936163067
Ni 8.563438906762604 1.7464595659052535 12.50049738883242 0.35491867992833065 0.8033352692065068 -1.3863550225152703
Ni 0.9671540369325713 1.5719375769332198 4.521875722304304 0.03292297598026588 -0.17257604372993504 -0.5871363465802986
Ni 1.5976984237152405 1.1142341030839473 11.404109927068149 -2.4138269811378237 2.8524636082111003 0.8766531040640516
Ni 7.1643892001940275 2.654963771210512 8.262560105197053 0.41105151836615655 2.4735606495530305 -1.6867714576306627
Ni 6.353039920138496 8.670135582041691 5.700048002922584 0.24066734008121773 -0.14071133381085443 -0.2996458754979549
Ni 2.6342649355169017 5.874628219109365 2.5315023538276753 1.3699773524881955 0.5649960630378335 -0.44497028260078847
Ni 6.0712295922536645 5.405692527705845 11.958516595678555 -0.11107062812628614 -0.3589733096136785 0.22125885364761894
Ni 5.040157099907884 7.16912250926371 1.6743254383210961 0.23500885624385978 0.3472835319805761 0.7269223403634062
Ni 8.625366367090948 4.362148141620902 12.121770679448595 -0.8951737885760583 -1.4414545345925756 -2.0073016327767945
Ni 6.669561181200997 0.23165697386732298 1.46356827795312 0.026333238577890137 -1.3566569812302056 1.5078663863589064
Ni 8.035853383731773 6.805390246825628 9.383303447400438 0.08845726160214443 -0.4644031945144196 -2.227447970086525
Ni 0.5628233185870906 2.9559984714478027 10.469808248184497 1.5765058419041753 0.21835042175157232 -0.3622203557960665
Ni 3.3293757902639864 8.37553404988522 2.886559700417214 0.7155320962485935 -0.4190209097248784 1.134983151532355
Ni 2.2234625439969804 5.014095725565885 9.969833694726812 1.1893373008032033 -0.6959282059747369 -1.535340680519775
Ni 9.166729200449604 5.369751309829509 2.4519160819046437 -0.8251083992175402 0.5991716804782777 -1.9236140246491515
Ni 5.862165716856451 1.205594481317814 9.290041293201075 -1.1004807468801112 0.5631003886770173 0.5928434242674048
Ni 4.36606439138689 5.351926268928205 8.539529121920335 -0.09970275260897668 -0.9888976978937809 1.5664044918041153
Ni 6.651642225437199 5.4388726486248675 6.814194765184412 1.0671582214685813 -1.1992525030343861 1.71614991079278
Ni 1.051048183598189 8.573055788681959 4.648993245284021 0.18010989021313498 0.7521196655646402 -0.6573691147546162
Ni 3.7607831026150245 3.1688565072897625 8.311837233547495 -0.16151901458482504 -1.656294114977412 -0.9591451492216966
P 3.9572717779243334 5.518240098918289 0.7718608978228071 0.5945123273293954 1.9602399034023015 0.9145048848045025
P 1.4134750294476082 8.27035879537853 2.0052739005598785 -1.5441292253456826 0.7465563125442497 0.4483775085101246
P 2.7950659630786068 6.137862187192942 7.653735408663301 -2.431247747717432 2.321869162581588 -0.5188637874561453
P 8.211915576448703 3.797090588455087 6.59645315649278 -1.676262587679539 0.6235999887239713 0.10215558502484343
P 3.4283902297910895 1.804855827403833 4.202941788424341 0.06595393829330577 -1.7580802324779787 -2.1264298411002347
P 5.3103313763297475 3.4700508627932924 6.311704232560521 -1.5312523693830145 0.4826698540340914 1.2067112733052767
P 5.500030007080762 0.5710915830810355 11.763552158587519 1.22162598563358 0.9267399934181135 0.9619761909125885
P 5.729717586281592 3.3231774093394026 1.7487567234418493 -0.08011994538104265 -0.2280403953458266 0.8172217973806118
Ni 4.435364168420987 4.4812134042904095 3.9309061194278536 1.1921937964153921 0.5436553925785281 -0.24829837426391432
Ni 5.015889499439514 8.634729678881568 10.23544934372323 -1.612312052969507 -2.1702656073382625 -0.6626103085488975
Ni 9.124674125024926 5.845570960653815 6.351359783248484 -1.1857742660422932 1.2957866281073942 0.12061533439192776
Ni 8.79141723546605 5.601476841546452 0.1220489378509314 1.386080685807961 2.1800591963899163 0.6507148426628921
Ni 7.781691591365086 2.9805196420449063 10.392490020190689 -1.1398307094326434 0.2995494591294067 1.475656120174949
Ni 6.481553017974869 6.400138223679084 4.779972547409478 -0.476378878819057 -0.9267996430114555 0.26351776231683005
Ni 3.487725639914606 7.924836624777976 6.31485225875131 -0.03654694588609835 0.2066215633504183 -0.40321016794486686
Ni 7.405449869242844 7.758710624512878 3.1785522776936115 0.3990550081259127 2.8389336920454658 -0.025505086249639947
Ni 1.382793043870918 5.12290548525108 12.086802419547693 -1.5093288298370457 1.911001992312096 0.3423752960456813
Ni 9.40585522333105 0.6246230547024417 7.08211978064955 -0.7650134908081728 0.46505522627612167 0.3107985496806647
Ni 4.984014795109155 7.6054885263544145 13.145059507990897 -0.4914758823614955 0.8550190707340436 -1.2287834226139678
Ni 7.8016297166724975 8.898818272213838 13.12499084102462 -0.8191269848231248 1.0618931164149001 -0.30682465263458125
Ni 1.285271850657465 8.24011820965556 7.019124508334655 0.411514059824872 -1.679413217493379 0.28337773446555065
Ni 1.701840614734499 4.805510815967388 6.487865035883071 1.520162687227756 1.3419407580659533 -0.5861320736855002
Ni 5.032211902540919 1.395856601243791 5.559143778128793 -0.11266856874102531 -0.4135272336001588 0.836228934610734
Ni 2.7499492631366356 9.236827253814896 12.603505088312755 2.050471226185733 -2.2465137284687247 2.523804633310247
Ni 3.209080242895812 1.7820157328453665 0.07951489662753687 0.15386046959830277 0.27320233659444565 0.40336494835517633
Ni 6.747613823419507 5.771819619137516 2.5053310990965576 -0.16266032727811985 -2.3054755517149133 -0.7210561113906163
Ni 2.092582791625767 4.672658851483806 0.4754693483872049 -0.6023909587465238 -0.07011912541458892 -0.37236695731176517
Ni 3.8476637419079416 1.4326994018000674 10.530920527506394 -0.21924465143106758 1.5941973456466674 0.06142802539849421
Ni 4.497197713886836 5.744030211325631 6.130416616894442 -1.2679672919022809 -1.0390308671047461 -1.3549058028670538
Ni 2.8700006318623257 1.2205739018855581 6.491754989487559 -1.0838698777963076 -0.5027326862222374 0.18628799399938883
Ni 7.197212444635574 8.747812564810227 10.490962570961202 1.6801740069188031 1.727229051425077 0.48575106406257634
Ni 1.2284533588487794 6.329410940735083 4.206432603863231 1.1297399008555447 -0.012429226902288272 1.6504003752007963
P 1.7889842156423987 2.1852955438795427 8.16975062063491 -1.3920297043025445 0.061541411047906926 0.687614543902719
P 6.975977203059176 6.864490869792911 13.369068055456735 -0.8440761985692946 -0.9399726900583038 2.4518463978043905
P 8.592327118465665 6.292089174380088 4.238610653199446 -1.792917394761822 0.6044085033971849 0.37639304775202276
P 6.094388997344611 6.510225225494193 10.125348254678746 -1.6247549067185503 1.3398491656442475 -0.24206113510495084
P 4.5286873672809715 9.482114091675928 7.4785231454519385 1.7678972185684005 0.5030666725228884 0.3451520874598701
P 4.391543493581429 9.318232656624431 0.9215593103405072 -0.06319205927745247 0.07047188076831734 0.008048067115457108
P 0.6982175583983761 7.152818889134804 12.93957942374644 0.2335839508718751 0.330005975847051 0.1432983778117403
P 9.442388104841097 5.222295584228157 10.083507305140555 -0.688600304854756 -0.09084555932866291 1.7436535155296873
