# total energy = -340890.9018267716 ev
CRYSTAL
PRIMVEC
9.02906991731283 0.00000000000000 0.00000000000000
0.00000000000000 9.02906991731283 0.00000000000000
0.00000000000000 0.00000000000000 13.21495649636335
PRIMCOORD
 96 1
Ni 6.248233619329147 1.7744469544246713 11.34106233282928 2.370289462866505 1.337473466323219 1.6210514897250343
Ni 4.567056955040167 0.4610685419893571 5.975460005856416 -0.7807319299846941 -0.3092132074714159 -1.383240902366321
Ni 2.479210990875918 1.6067771298535398 4.773255625890777 1.1267916168604981 -0.7425723881958373 -0.036694527207556164
Ni 3.4203921886933735 4.126068161185637 4.819296658171505 0.6009205448485845 -0.14087845551633804 0.5033834324323588
Ni 5.235695683569546 4.320346654201094 2.9030219796013914 -0.8214954850553013 0.003920160990012604 -0.530706545727344
Ni 7.2213506367216205 5.899530947011587 2.7022208866252355 -0.2166969453085494 -0.776588597240282 -1.6538379401274357
Ni 5.013851440720181 4.538335484282991 11.452517169367031 0.6110447777667799 -0.18624171414248572 -0.7498486101422763
Ni 5.566809728086105 7.779825685682212 12.527871246027214 -0.0649514651707204 -0.3948844216879909 -0.4936636340414337
Ni 1.9734025055514821 6.3067419910696385 0.5201114346568606 -0.5801136354055623 -0.03978576453837019 -0.2559900864812172
Ni 2.5290424266221794 1.6376746064115588 0.2955792377539247 0.8023531077988956 -0.07195283618921802 0.32595674547834186
Ni 0.37084736869575907 9.175340642390069 4.9677264380911215 0.3299324422966382 -1.656715518785547 -1.5192484029436029
Ni 8.425205530630802 2.23376475979667 1.319861284489276 1.1229894695055886 0.5076226673246871 0.48331160138314827
Ni 6.709736459571701 0.9091099421967417 4.696146467634454 0.33002577334139294 -2.513559044322839 -0.42203912772591184
Ni 0.8801275313248583 7.347956252237851 2.647299764281734 -1.1306333592040916 -0.8501434878092973 0.6358065580924921
Ni 7.510461448933125 3.7307122856608053 3.9407266413721462 0.7664427670555316 -0.875414346560944 -0.9130501546358469
Ni 7.458472065525447 3.5224567927295647 12.668689520178738 0.13262135771386838 0.7700083729196029 -0.5126964823031686
Ni 7.98102947516757 8.917416236967401 7.155502534211401 -0.8957846826871798 0.7102993870947444 -1.091672661670178
Ni 6.876376970195546 0.46644715881741433 0.498915693505502 -0.6433152077647115 -0.022144140197207025 -2.4142998070091837
Ni 1.8181386227660659 6.69597615732903 9.116602029371895 0.495145875013915 -0.1377964741569046 0.018531483145284213
Ni -0.028570685292968804 4.802155872228272 1.3078065735153979 0.4012918678762315 -0.8191814922101441 0.8835835126352977
Ni 6.234085067088815 1.9934560693841412 6.887860141056589 0.9751597794823981 -0.003276099648110487 1.530119798440468
Ni 3.2314047305297575 4.1470246319896 13.183980334515809 -0.8722362059432784 0.12295400982743339 0.5137753171896441
Ni 6.14193438159754 5.530765681791654 4.745107501060379 0.005124465710758916 0.4027378562941386 1.9807488219889304
Ni 5.581518082648646 2.9321994183790765 9.336247693746135 -0.16162083027001198 -0.053804704525281535 -0.49158361158395336
P 0.21992195390745833 5.715337924865595 12.561846732450409 0.29992458308063835 -0.9996150843112849 -0.9228571134239395
P 4.059054405775463 6.0523118356259165 12.598940859552485 -0.4245960898198107 1.2222636192175789 0.39551099952839625
P 2.1898563937821622 8.3283958451676 1.3791660201784577 1.3045042104860503 0.7536888098239729 0.45586481802610523
P 6.4912149143767355 7.9015014291351235 5.734670066028182 -0.34652325677578383 0.5471364091485932 -0.2832041850021638
P 4.798101819927118 0.8840795551382554 12.724958682630398 -0.2223495156086364 1.2212228366578903 -0.6673797049130828
P 3.852433174462282 6.326660118856602 8.118462751083676 0.37135805643127656 -0.019737844748559552 0.3581222744672929
P 4.479158961383734 0.9973781277114094 3.501844329481668 0.35834698888358935 0.1568349788455944 1.426269599322021
P 0.23313690033946197 5.364143229307236 3.6017491800425 -0.3261092118958061 0.7784225651252271 -1.3174381449388988
Ni 1.3933028346281626 1.0088540753166817 2.5848583297742422 -0.36486653516966194 0.3362506712051822 -0.21102714861728175
Ni 1.8027079426264827 6.260937520415393 4.878248357234908 0.36968118294948593 1.2458745737682997 -0.4595630928132988
Ni 6.254535909988848 5.568155059473349 9.280876923730924 -0.5943922568117633 1.6729551205728608 -0.5055418735362583
Ni 8.560858273999498 2.4243774505086333 10.255044021931024 -0.9522643629414632 1.286738658972513 -0.2660055617356903
Ni 2.09723619666581 5.431391740529949 6.929817325106109 0.4533513075756321 -1.24752753599069 1.214513800068831
Ni 0.9413888664208555 -0.024981630082035862 9.1283632955801 -0.8594974182203714 1.2339564821744748 -0.8308874677931626
Ni 1.3749196486924153 1.4600908632955107 11.252640653129488 1.2911439871290602 -0.47672829173867576 0.42145034510197743
Ni 4.058277905780141 6.726575674586519 1.6050227816082963 0.40558792414842415 -0.5889852268635791 0.66138749188539
Ni 5.500942664529488 8.101070957002422 7.703725074512836 1.0039193681135936 -1.003392549075846 1.495160508756464
Ni 5.475986315842648 2.7489725066923794 4.855980865508611 -1.9647966695350485 1.1650388332671548 -0.8090333480325484
Ni 0.6571113152267416 7.478471454939828 6.907483921170908 0.9375944196341143 0.2191333226641839 -0.6764045341195125
Ni 5.058346696266036 4.503537449608939 7.330441662808499 1.3673787385230838 1.580414175819646 -0.7296099144978982
Ni 8.280577891967345 7.5469118033646625 9.152242476250175 -0.31043782390713637 -2.024360130920978 -0.9771156176571881
Ni 4.909222580885487 0.37253851345301126 10.332760836579036 -1.8185561783758486 -1.7164687275847792 -0.709178900337056
Ni 8.116582898769423 7.094609585159695 4.396338013626942 0.2592456173040374 1.162109832545818 1.3484474488362197
Ni 7.297366374635695 6.254698433243683 6.860055120875286 -0.2494918803513832 -0.5762613515390075 0.8541649502638643
Ni 2.3785729798543866 5.195543410555662 2.9223161986711843 0.5658797511943673 -0.13907559797964436 -2.3856633742194138
Ni 2.3337887940777144 5.6097068382927535 11.315914567864523 0.4890459327637642 -0.04428853750473018 0.3603686472993084
Ni 1.088445324837119 3.334552822931513 3.760025160484186 -1.0761933350876562 -0.3179210196580589 0.7354442617914883
Ni 3.435515880462714 2.725849059157287 2.629154945786411 0.7307602260522577 -0.3247755806860471 0.531656054124807
Ni 1.389456450930408 3.4234259561169544 8.365991988545723 -0.39614169113385966 -0.1898785395641246 -0.36636651675395615
Ni 3.7464048088220667 2.771716733299524 6.967810747551605 -0.8107310474499457 -1.4159656462928518 0.24017497382583156
Ni 4.185714195709972 6.797625424158421 6.001083602795048 0.0010726642388884753 0.5752915314265705 0.04314696770111924
Ni 0.6001062835934708 7.344787048768574 11.230559160239281 0.21206741695633796 -0.06148510388867476 0.24625537569195657
P 0.09894415754336483 5.7275452271176235 7.968420379313311 0.4782951220051634 -1.1149977095493635 0.9987385952436025
P 8.650381500204277 1.7869070706286647 8.122202591758818 -0.0050964406863009005 -0.25821074828161983 0.28874748341789624
P 2.2446267306614556 3.5780848912315966 10.517519078489062 -1.0935313121454715 -1.3728937548040419 0.44685464410769493
P 4.188540294530153 5.996710824333023 4.016699039751598 -1.4242453698031408 -0.2977741123965388 -1.9026592767743555
P 7.020444806536793 4.162491428408035 10.614213191859939 0.6480416667061033 -0.9999850660561939 -0.3924503583252016
P 6.58497277427693 7.816935162202801 10.281117266541367 -2.6528423874379152 -0.3257916806553873 0.3254528092587298
P 2.3266287417952745 8.227541136472956 5.6337738236128585 -0.006248294902556981 1.477705803615126 1.3275970877497716
P 6.830617644889865 3.8114502270347983 1.5393444256086806 0.4540285361483149 0.1959841382412302 0.7316071474335851
Ni 4.963387970094007 3.015889865549233 0.7559877547472587 0.6752251690994306 -1.178723786953415 -0.9902148740433075
Ni 1.2795546143832992 1.1406423768481966 6.883630924803001 1.617882347968433 0.18674950701683968 1.2267910747742872
Ni 6.932700307065482 0.7517133931451061 9.125548031643575 -0.18007286632761244 0.3556149346644069 -0.49347285818686626
Ni 2.735347640495404 1.5053084444184095 9.174721248207755 1.303931625812032 0.6270992601264812 0.22007897440690485
Ni 6.264765845973721 1.733048669790388 2.354429247441721 -0.2752553624687324 0.7211052194609968 1.4723676792316645
Ni 4.21283752112794 7.040724097112279 10.230265545917533 0.04130117274163209 -0.07174123439904419 0.3054167165434611
Ni 8.100664648865335 7.068416253922169 0.6336239961822137 0.25463691488743245 0.5957279449040515 -0.2710114995907139
Ni 7.797667127435177 3.8585097383791567 8.230882795173752 0.11832910946091235 0.13389842465407908 -0.1678344152798916
Ni 3.128157318361158 8.346444955523966 12.62424753614419 0.3150755797894638 -0.48842295446778466 -0.6938553826061082
Ni 0.3935798575122769 4.883417499645621 10.150077474889063 -1.4469975758979918 -0.05485191484287328 0.21939197564220927
Ni 8.477420640781306 2.0488674702130605 5.780922378540195 -0.4207193804732238 2.6431503569611317 0.6120343953735587
Ni 3.9750930865139145 2.3925951251187363 11.315015272521103 -1.5265958444476095 0.23711278996074003 0.37503653372412826
Ni 1.0119781334373932 3.4792526941526734 12.556085283066519 -0.6291132052327165 0.5617965822639293 -0.16839234466589065
Ni 3.0952463592571315 8.463786745514618 7.842138004492807 -0.3039252195995992 -0.023096476808147318 -0.37356174895081473
Ni 5.406137432542579 7.771943307822729 3.7362245327206156 0.8088626267826393 0.7608858417930444 -0.21253021552536946
Ni 3.0056689586340735 8.288622793081663 3.58776766559186 0.26313929593148877 0.05934054674184619 -0.35799731885365443
Ni 3.70246935559842 4.476459269539535 9.259971015717353 -0.2827179893943647 0.271923469882022 0.16063506931797497
Ni 7.3135735547706 6.2040453521535355 11.570183102960382 0.26279682499040546 -0.6565250215867661 -0.18427430600346975
Ni 0.6533091739705809 -0.07637509488865295 13.24957923470195 -0.6886234447832075 -0.12861506476795267 -0.12319003709763945
Ni 4.497966513595994 0.031713704460077624 1.4330433820631316 -0.27174323555041585 0.6087480113128032 1.0636034142377877
Ni 5.973442911682523 5.4638331880088975 0.3757925901775904 0.029971092440793545 0.384979246759137 0.4933077933639118
Ni 8.135796759118769 0.0945894372207662 11.113276059201764 -0.050262752810294076 -0.9300050373226306 -0.10289092052897117
Ni 8.928341411320178 4.835229354587134 5.612616907461265 0.3590177896983688 -0.7607860829903865 2.002464873509784
Ni 8.022039509804193 8.93924852753353 2.308969687250513 0.5500808364888978 -0.9209814936677816 1.72743139724387
P 8.446405786317017 1.6528976179477424 3.570152853488692 0.10160382628643148 -0.27311106243221994 -0.1721839504978389
P 1.6434351528884776 3.164147190237331 1.689532165401426 -0.46879566715516036 0.32429041351951243 -2.4797618932677357
P 4.74058664585506 1.1082912200663784 8.15983936595065 -0.716300856093818 -0.027341368127430335 0.6572557291052036
P 8.487786012811874 1.6081676065893478 12.424807123973789 0.20593507880635503 1.0260334264038136 0.8500437290066392
P 6.196280352200321 7.487942949068806 1.592441675870148 0.3558136809387743 0.5409590766932877 -0.2931271005428307
P 1.8661010410817285 3.3197902939506947 6.047031635657732 -1.3802761633110423 -0.33077602124385613 0.40388611096596894
P 6.887067388735784 3.970732045842517 6.181718268567132 -0.04458421436827805 0.3451330612964766 -0.632961118223897
P 2.3191526720728786 8.560307500747003 10.616261887777828 1.4175108792927844 -0.11533711671212395 -0.594731385318737
