# total energy = -340886.2030452793 ev
CRYSTAL
PRIMVEC
9.10377851627393 0.00000000000000 0.00000000000000
0.00000000000000 9.10377851627393 0.00000000000000
0.00000000000000 0.00000000000000 13.32430008260435
PRIMCOORD
 96 1
Ni 6.480178726218171 2.5295121459260277 11.555739121196197 0.17706133319479828 -0.631193741910829 1.1386338609110649
Ni 4.641652466310763 0.5222473529643102 6.00663476705661 -0.800808389019595 -0.22572511694908867 1.1948122078748455
Ni 2.74325065572096 2.1409992979829098 4.953841056718369 0.4223366043616727 -0.6673069426936185 -0.6612530231900546
Ni 3.613071165064038 5.010428322634688 5.0381575213306755 -0.25106205305198054 -2.0390267317942175 1.0913055081387464
Ni 3.7936719214023915 2.948495340248038 2.786964268570535 -0.5615831807015426 -0.24413704379737308 0.06266549735002111
Ni 5.284779789164209 4.7473382300133515 2.868241891945532 -0.04126877684179989 0.48393817922355364 -0.07664021436255833
Ni 5.609475150368146 2.961167799811653 1.0495309161517468 0.13631706139790073 -0.25618163366673297 -1.3211055664881568
Ni 5.697654348164964 8.29830341868157 12.85004787967315 -0.23147050407329814 -1.1895162495832288 -0.5772023752960381
Ni 2.753829246247483 5.396747159978071 11.54188134968202 -0.5448620112921196 0.5767105232612841 1.0958589318373837
Ni 0.8945217913358626 7.845080913713904 11.75676238366893 0.6899051397091086 -1.040616209313995 -0.5561882349382163
Ni 0.630423000065353 0.580626242474106 4.840078420799661 -0.6023395366832982 -1.828800481811676 0.18720253539385825
Ni 8.407521448411948 2.574994622923024 1.6269234965303097 1.4751485844109111 0.012265190520598233 0.4057375623524109
Ni 1.4113678725623189 1.6660642814784454 2.870241081687033 0.03269209091638241 0.5123828077174918 -1.0580158928476813
Ni 1.9489186770542415 6.013464421628897 0.6850138073736975 -0.01167846477919279 0.5824163153968098 -1.6732145448818343
Ni 7.567060624480263 4.4147498929174205 4.240578224900781 0.35782839737595795 -1.0267219678304058 -1.0759267116898308
Ni 8.043388519083313 4.049251396825466 13.048526636076899 -0.48356305527232196 0.6330544492686516 -1.192875652973765
Ni 8.443881939429962 8.769232772680295 6.942306547238373 -1.7909643848005092 1.9615390818296994 -0.0036098288384453963
Ni 7.030538546950041 0.98889793110463 0.5339930478845514 -0.608437679161236 -1.1581055964824314 -0.9732314521114335
Ni 2.256098368573988 7.087646548992106 9.628978130443594 -0.3677001479637151 -0.3201601934012228 0.30656882787003326
Ni 0.15675613989509232 4.928740118852852 1.842324356265124 -0.28209269710553997 -0.006875644073910739 -0.7165757070217594
Ni 6.405782648952469 2.6101352076324726 7.220491614861456 0.37775933197193007 -0.7677203482163746 -0.5603930170481833
Ni 3.975601829390377 4.474734688940882 0.6113068861345499 -1.377952400273872 0.14717483004801105 -0.06954576940962218
Ni 5.9044193636885405 6.083272194569843 4.9349479853589076 0.15453024197181772 0.4118308197343424 0.25367892184953733
Ni 5.4808387612633505 3.4419929609552398 9.261907411818136 -0.11984194656101299 1.149785249542194 0.9850366722764776
P 0.07245697246178827 6.084983704913205 12.7220551277028 1.6882007338780216 -0.916903466943666 1.119519508679117
P 3.9388680834570544 6.4579472993113125 12.990392638206657 0.787464106502205 0.1414099025397758 -0.7064419610218672
P 2.186208661627242 9.064677693813906 1.5911347227972046 1.4996915638575978 1.074537287541472 -0.3969027376696003
P 6.590525624472894 8.157103815354226 5.734019391072191 -0.5983741242776469 -0.2557949397512756 1.668608413568391
P 4.9313255919247405 1.2215449886823406 12.77407320722905 0.5014659036946719 1.5591156714521859 1.1866936925327691
P 4.079339384510628 6.741174949802416 8.469550953069021 0.7671696179192271 0.32527308914775593 0.2379190879121193
P 4.70851971882136 1.4128244771098608 4.1495468133243065 1.1568604112214207 0.7137305242634804 -2.270234469124432
P 0.3100082354755041 5.81683191148916 3.7313237845005442 0.0076323197342771775 1.7414727058282846 0.7859846937432012
Ni 0.9514540904543806 7.623704333822798 2.399440090964061 0.1164401199683156 -1.1766694755275475 1.4323548862841524
Ni 1.9184574344537713 6.784436104864412 5.152693068037423 -1.1677613744046405 0.46930757379457244 -2.4813924868926236
Ni 6.286650604520384 6.053411801345234 9.434749928185143 -0.8293412063519652 0.7973991062277299 -0.4577630634900826
Ni 8.817218788743379 2.8934721034646422 10.515590559086304 -0.9658107341673302 -1.2903122352563843 -0.0691521335156293
Ni 2.4901929269208183 5.634792758160109 7.291269850582202 -0.2726716609019562 -1.0235320001381985 0.33922312356994483
Ni 1.0712780220465477 0.5040525414098272 9.228689545111441 -1.6148006237193155 -0.8537898263126329 -0.3216072102603945
Ni 1.5214689687996437 1.5195298639957284 11.855935304288321 0.48940331610318294 -0.7605338577702644 -1.360439073980457
Ni 4.201284496475153 7.0839686225095635 1.7355698089757767 0.20188199178290392 0.11890375101745974 0.16740761215511812
Ni 5.795674730436114 8.511277211089043 7.838325910124678 -0.6022040395466983 0.4593841440332734 1.1611248429247292
Ni 6.83601811340424 1.1693712345450737 5.159955152084762 0.2623731071894256 -0.1325329117651201 0.06768300516927053
Ni 1.0967048751795763 7.547487500872667 7.128740094411791 0.16374301881933737 -0.16218827273770778 0.9718116889457714
Ni 5.0633485866025705 5.184310490497505 7.324780858954088 -0.6254702091634905 -0.31480252863373526 0.2646197371317572
Ni 8.91396464203543 7.424158614587977 9.572270694652103 -1.5089243953097755 0.09952714626306085 -0.2803898554818204
Ni 4.747729692485503 0.9131544946324504 10.678346999339427 0.010321436530666094 -1.4335237097812732 0.15840000933986914
Ni 8.331040605887576 7.336452813269109 4.754257101614176 0.4743646766025057 0.9091199663435052 0.41510280561739477
Ni 7.160931965290309 6.632849090357408 7.376239056107376 1.157197225735549 -0.46913968075814044 -1.4846881484702303
Ni 2.4888091526006533 5.305827724876189 2.893398362859423 -0.15281068817754972 -0.09524857349236499 -0.46085841458595467
Ni 3.3477051278371674 4.618392312442203 9.453244254049714 0.49260099710487415 0.26236925053468363 -1.1255130072583905
Ni 1.015881530347844 3.9368470446473403 4.255488393200557 0.15664368877039475 -1.926949516780288 -0.9729905397452211
Ni 0.5240444388248401 0.10935549678455167 0.24602232883551434 0.35663283440596 1.1212372627011722 0.8954915769267933
Ni 1.1372166891580857 3.5292071582393123 8.21436385049594 -0.25892448651919275 0.38243205485725107 0.1296141954564284
Ni 5.209309466044693 3.3551064996943643 4.996612428501253 0.924947163183749 -0.46101782298195443 0.03850869759815948
Ni 4.005935619092937 7.191730047692398 6.063369514183367 1.0263316743705226 1.4338985766221886 0.978110891690922
Ni 8.331923672394524 7.514622860768752 0.8355202033819927 -1.7796767277018317 -1.4021590794270624 -0.8015938610353679
P 0.4320789795822545 5.810513889264197 8.287181332583247 -0.08928669948197526 -0.43709936449314396 0.004162873128437992
P 8.618965806044502 1.6686861696640207 7.990516505141068 0.039980654157995656 0.3266982516300567 0.37487866799002534
P 1.793580905837318 3.48361543590125 10.518988089193446 1.93261237149302 -1.1477183397108364 1.0498981488365533
P 3.8443617596568505 6.670201893223437 3.8838739787646093 0.7970304100344016 1.159414802212158 -0.7088325727412308
P 7.083213008900525 4.302145257614009 10.531100666384098 0.15953592271652522 -0.41146726574733644 -0.3971799025903869
P 6.765318170177925 7.875032344722735 10.580892872086135 -0.24079152436390788 2.1945959565535107 -0.2954554915656912
P 2.353162854110812 9.031430695016262 5.782479713991068 1.378016163632272 -2.003491515002085 0.3442995096515877
P 7.1369435091479785 4.3617385911653175 1.7502396375252083 -0.959034077565129 0.4396691821028493 0.3539722568546613
Ni 3.1650560213538323 1.9152802157844453 0.5001579450008371 -1.1924213390451657 0.5383504354258469 -0.044459772975271816
Ni 2.1030547495194427 1.4155282993012355 7.172603919605331 -2.0345764093323475 2.10928906765489 0.06151775689882309
Ni 7.009171978993286 1.3211494283989413 9.439839850700961 -0.5730168764597808 -0.23429511800628683 -0.8705421060703071
Ni 2.816290270001765 2.0334472597037836 9.481065400907767 0.8960837019848373 -0.6879259044955508 -0.4569716779370388
Ni 6.555667256894531 1.6671931500027903 2.7033142005387294 -1.3351432755281456 0.07757763857516319 2.6924546025128984
Ni 4.460314303920216 7.4356020640646046 10.79324214529385 -0.1492628229252913 0.9001905250643594 -0.5514507202532309
Ni 7.439889943701431 6.12560476423278 11.560108934838823 0.4793698431265809 0.2568105254999835 0.8569188588599177
Ni 7.778404840550173 4.313424839079036 8.29446981758801 0.7092210664289013 -0.025173928162466323 0.3009273133135398
Ni 3.074819369633611 8.623572317926103 12.778896389037099 0.3383867437115785 -0.14787442721819696 0.6862122642385536
Ni 0.6264419177613525 5.055273535142135 10.565716873456433 -2.473666321892959 3.569263001207892 -0.37021751506893014
Ni 0.015028517419263735 2.631747577606626 6.071070400350654 -0.4827580428725234 0.3969132791925616 0.9115792265172753
Ni 3.737756514333626 2.993131165851776 11.597417129190582 0.3694757518068992 0.4470809011858881 0.3310765832034105
Ni 1.3917128149489253 3.5357709824816728 12.900081335503375 -0.5650276876067172 1.6348266891322554 -0.467717346489317
Ni 2.9819517259493913 8.691176976488894 7.980602490439361 2.2698899413008196 -0.8200199289510393 0.5196127498070277
Ni 5.564821117207564 8.201311763372123 3.779890621626961 -0.41423840073457047 0.898728595806852 -0.0850531210166019
Ni 3.1517554010790905 8.975542599282763 3.6599456097817793 -1.0147308569068008 -0.7440044926566736 0.9054900829004018
Ni 3.8892615948348297 2.990117815194049 7.111765189165873 0.44820035950231196 0.17458587507111223 0.8482568123095455
Ni 5.125126826975192 5.306929282065268 11.375687322696699 0.02554828078274955 -1.7831595440441095 0.8469098113633478
Ni 8.15004838707707 9.026769560464128 2.70920343480001 -0.07584831458888228 0.49703203629303433 0.6906145070713073
Ni 4.425046266312858 0.47147740145973677 1.7820582534884193 1.228801934556729 0.08952375519344581 -0.2801563993147756
Ni 6.167463937417766 5.8253075292001695 0.34421568289668386 -0.2524702462534168 0.31982594999025565 0.5510521992632316
Ni 8.462553788973766 0.3823413965507513 11.049335984197773 -0.9679550342038428 -0.20602840985110968 0.6248464595365626
Ni 9.087855913676668 5.291716868321877 6.001770618245661 -0.05013625453475882 -0.0437257230227247 1.4581895879590694
Ni 7.087145841178888 6.4376549772083695 2.7783029337797136 0.5577401528063685 0.05457449281177053 -0.6980503945240624
P 8.475198937202114 2.067194966314645 4.072305805301685 -0.45139906894526777 0.9396021940927625 -2.5139112854559347
P 1.9132409694178867 3.5305454136673666 1.581474703513475 0.9030943289747156 -0.09303871032523976 1.5287437440285478
P 4.756614980225509 1.5593406870357334 8.674452425149585 1.3139198473729952 -1.2703067386687348 -2.9550187426672077
P 8.62210660960014 1.8690148138431453 12.746292116996056 0.11354017271270123 0.9451645186718884 -0.8518239608355137
P 6.243562421248409 8.232128053331058 1.6941849426465845 1.4225810947268405 -0.48180210671715734 -0.5011339742765498
P 2.103746636679525 3.7639480848541145 6.118105071568624 -1.0162935734082303 0.3488699026310895 1.3390261555223197
P 6.791100070669416 4.602351454862397 6.266231739897372 1.1609134982448717 -0.7240527321250949 0.0680136490358119
P 2.639649657277041 9.117980316475519 10.648421058910179 0.18156539171273892 -1.0604337582605543 -0.33461339271207535
