# total energy = -340862.5553417972 ev
CRYSTAL
PRIMVEC
9.28878789528025 0.00000000000000 0.00000000000000
0.00000000000000 9.28878789528025 0.00000000000000
0.00000000000000 0.00000000000000 13.59508000981232
PRIMCOORD
 96 1
Ni 0.4501067889800931 5.735984357484371 6.400278517020943 -0.28641729262282284 -0.8991739108743868 -0.9023471663960458
Ni 4.685050909165083 3.3041704304608785 11.966484269399336 1.2182683820152567 -0.10019486175404681 0.9632673989201863
Ni 6.023713847453774 2.0811621886988227 9.574810909845944 0.017512297852150485 2.3250177355128994 -0.0895425242465232
Ni 5.302290856494203 0.9996593398278395 7.498556916604889 0.02712668101346296 -0.18698733405925863 0.49344200494893087
Ni 2.955218540298154 4.7181375712025 11.34615487125785 -1.607071630506174 -0.5704948813688755 2.961420018207861
Ni 7.451948566210406 7.4224287986767425 9.703909268912373 -0.05605673378425184 -0.8079429431818472 0.6083952559590747
Ni 7.86929380072504 4.2851407292950965 12.988983809475295 0.3779693911002071 0.5118948123374797 1.5667770446521856
Ni 2.565433139097674 5.303154713756831 5.270676467318362 -0.18214388992402825 -1.6604911837778948 -0.6222897545529799
Ni 4.677499124707919 6.823933625067866 8.743893546408927 2.160965155872943 -2.6185001625126194 0.6407767576135739
Ni 2.297293702535602 0.3404535782317781 5.876078783513152 0.45416891838092105 -0.9536990385054607 0.8718086314875566
Ni 3.9317580873659908 2.082471907774419 5.898972858730339 -0.830364248299841 1.674485184064142 2.5285997407060448
Ni 0.5232977922153046 6.375823925458364 0.8328382847478906 -0.23720714944675922 -0.2414222159693713 1.945402324168837
Ni 9.32046253648627 3.1837041418692857 11.714581633859554 2.4750966265815824 0.17793499404900323 -2.019735230554457
Ni 3.812536496335603 0.3713898859003956 1.9956486796076771 -2.3993231310946936 -1.7770426325130946 0.11598143516434219
Ni 7.575192202345287 0.5527776179615563 8.539042336440266 -0.8879189067858578 0.6702133177071361 -0.08300678001053446
Ni 9.079985109903824 5.33247941674732 10.577610788818882 -0.25259160232262945 0.22901355789237335 1.200194041012049
Ni 6.801547646541708 6.022348395651556 0.49402882195143616 -0.6113813351705922 3.104983733865846 -0.7463976754791984
Ni 1.925073399008551 8.607854605120611 0.5725339406699733 0.9705042829882575 0.3848347507614727 2.667784610570044
Ni 0.9143241754618817 8.89143200695674 2.7762514663299047 0.7282055779512039 -0.35336984738397204 -0.3425200491536617
Ni 1.5966961737567968 0.6449957740652249 10.62462320148137 -0.5959642292845736 -0.7930225744265891 -0.3103786885344268
Ni 0.715917526448179 5.501897616887814 3.4229424441631893 -0.06090017791948221 -0.9337971573752112 -0.37433745077457464
Ni 6.682391077025712 2.7865898871181263 6.214338350073612 -1.64678463282508 -3.1820672064134103 0.8192162021028213
Ni 6.0993338686908904 4.523574622568102 7.796438122728333 -1.7021497398589462 -0.08145614769396294 0.5895943212024878
Ni 5.439690605190853 9.228039098172882 9.727605895392905 2.08817851092852 -0.835485114466174 -0.0038219448492514824
P 8.24541539511557 6.694290014159325 4.9449112491875855 1.7735564737367069 0.3067588323936523 -0.04239003493043667
P 8.20039264079346 5.0518094054832625 1.9461765959436457 -0.23109409457048588 0.6021934980237371 -0.3374652603385736
P 1.911130928565496 3.8889460645331857 2.1619031186336444 -0.5794019540505183 0.33681708523161347 -0.2686342576077889
P 1.1381737430569117 1.0977768050443557 13.270986761784378 -1.690676449112024 -0.07908739035147025 -2.155503104317107
P 5.11234443538159 4.03199339619411 3.125576765760991 -0.5221514570684814 0.6315503539192995 0.9082828151541907
P 7.870919338584823 5.575176863606843 8.288648200034364 0.4265285309558332 -0.763488312412898 -0.07443883583586536
P 6.140947637901341 8.305653183805251 3.9442728711287676 0.4938973473187946 1.4794528682132198 -4.280171739751861
P 8.105925669170627 2.0354427752939475 10.24224746628517 -2.5859710795366624 0.8303544781078281 1.554639123738071
Ni 6.86518513155528 3.860763882438429 11.00838482381288 0.1835857645768774 0.17593853244426474 -0.6709365690264057
Ni 4.5028327594772675 6.714335218167395 4.101376925322321 -1.031610920491591 0.10982724263748828 -0.47896463726836225
Ni 6.755791077985752 5.691045202252192 3.6886714402988976 -0.7069752078175179 -1.8649879874758266 -0.6566072968879273
Ni 5.016056861355802 9.386227153899217 5.311121707027324 -0.5872438186924402 -0.602099395648034 0.2756916786752026
Ni 4.621580622331376 4.2550636344952215 9.852776026111322 0.10479585086116791 -0.6262829348727731 -2.299678228306846
Ni 4.534860499708882 7.166959268633209 1.6409804694511774 -0.5556066514031335 -0.4758633726352191 -0.6953669341546281
Ni 2.456930809154086 0.8150158876532272 8.12485436088872 -0.09175418718586134 0.3674592355975026 0.6507333546056535
Ni 4.887583637706304 6.220951966965987 11.059801050757212 0.5473055877366058 0.8524610801988802 1.6688274715577323
Ni 1.0695388902229783 4.322240147649235 8.44503237317573 -0.9812355533628327 -1.5714528528613 2.0840274648746235
Ni 7.572229079046595 0.47561194243948063 5.99806750442028 -1.732439391981423 0.06455962904894043 -0.7101381789265317
Ni 3.671421232530878 1.727342973744518 10.010750439718942 1.0927630665208794 -0.18362381690366442 0.09686348338796866
Ni 2.5529768746978494 2.483292388845885 12.317019897876879 -0.8969473355367132 0.9059323126441431 -0.35125100126875636
Ni 7.566943758805358 4.72843883683964 5.9674247224452 2.1634526981814868 1.862377289325857 -0.21740271312632237
Ni 2.55594928678431 5.951883651626895 9.703379808009473 0.23882488755584033 2.2014703150758406 -0.6127352780953254
Ni 9.0606737201296 3.0108955341926724 2.286583730236573 -0.1885438799131011 0.845982414453072 -0.4557953982407505
Ni 0.34210326693976384 9.112217203466383 4.985587779712024 -2.6865397796903605 -1.342313825134656 0.4801285756694763
Ni 0.2818821980680685 8.051028933448807 12.806171177370187 -0.19181252336204385 -1.1702715424210037 -3.8478584837934506
Ni 8.068296789913589 0.618099160197863 3.042416106612035 -0.4796030421833095 0.5670238921011396 1.0707855338085235
Ni 8.2854779367684 7.661271398611637 7.300191138257374 -0.7506204553112944 -1.452182719643357 -3.0609764750469606
Ni 1.0187477986955797 1.7840324455059875 4.115557188732293 0.4168555266424434 1.1232969734436784 -0.36285284717374283
Ni 8.103296942231664 1.7028577291822975 12.760981224868214 -0.5592668738635401 -1.2113793682049074 -0.4404569681114672
Ni 2.8034676144965616 6.887608265232517 13.10397157104003 0.9279718089426856 -1.3678834460736442 -0.9681021013046683
Ni 4.704204389547215 8.405516941122563 12.996801253262687 0.8765895978159677 -0.8992405024462643 1.2879020831529946
Ni 0.255057107866537 8.813173969992889 8.653417966890947 3.2005380115240882 0.2827706970091711 0.966238308623052
P 7.37288240471055 6.1865555858529735 11.73648273766411 -1.3785884911959743 -0.060993251853920766 0.6993806832997117
P 3.7646342178047334 8.250932935051063 10.004945876241349 -3.5199366441689377 -0.7029025804100412 1.3827073984603542
P 0.3297575391144044 3.735290937238704 5.212938291417639 0.07199423095011472 0.24936949584090598 -0.0016298222939391286
P 3.20788285643509 1.030349494620547 4.148810120070796 -0.9767628623034598 -0.357294636359675 -2.3116006907760447
P 1.9747684135790673 2.9745392188601487 10.175495450732255 -0.6758568891461587 0.7665165577162605 -0.11291642308577327
P 1.569851577100948 7.42568916318408 6.976124839409765 1.076212875471682 1.8617244862332065 0.20298782325257297
P 4.565392745109497 5.5879303692153135 -0.05843297722593375 0.6111378517012185 0.08553391730776236 -0.3558224226895227
P 4.25938292080836 3.1166205165929743 7.770308762730788 0.34540534112125676 0.22897679111716693 1.1378393900342276
Ni 5.6194286485440275 1.081261340388958 11.937975121975068 0.32970695654939347 0.05808944794356447 -0.46188711296078516
Ni 8.39017186372621 0.039991946865775695 11.110755624949368 0.06592771304106065 0.06467070070550797 -1.4000191502659243
Ni 2.9877478750693593 5.092893713790812 7.629572481467086 1.620997496558647 -0.4266509154663104 -0.3126489726258422
Ni 7.8382506719970655 2.8497164888043365 4.195087789620659 -0.3230012623944437 0.12875621833150727 0.6580075196695635
Ni 2.9970645292028597 0.2816862046461175 12.345216013153289 0.9174002040744266 -0.609731458271995 -0.3932399441060324
Ni 5.634987368059096 1.4618601304847199 2.007517892620426 2.8030709167105856 2.3562265570155354 -1.1978291403242982
Ni 6.193624353346088 4.065786006102061 1.3530568438173773 0.05316424272780522 -1.6137264168185306 -0.04820792716379439
Ni 1.675836645558815 2.879570652697727 6.800272295980861 -0.2606730937791833 -0.9491844384645589 -1.094620174334276
Ni 1.5809238121230142 1.6898069823651807 1.5572894205205432 1.1214558064698816 0.0843985181517385 1.8821117916403072
Ni 1.1302875622400204 3.795175751993118 0.2262191373552054 -0.35232495105922546 0.7566700039394839 -0.65443342916506
Ni 3.7491498085918273 8.216425088484808 7.437908563495764 -1.1570257331546914 1.1538177677403547 -1.9519596656713802
Ni 6.276034478443212 7.237275392053547 5.599745707258996 0.1604383799261366 -1.4010015687838515 3.864941664527982
Ni 8.633110819067758 9.100067469062974 0.8228175405014098 -0.1257074042028545 0.3663983984331561 1.1491147058377307
Ni 3.7042756748740393 3.672823839484176 0.6833556809197783 -0.04468191628840692 0.03253885316796977 0.49323040315875694
Ni 6.935733474669871 8.376331569948627 12.674502610727744 0.9969611916282056 -1.1339271994640148 0.08442294363177073
Ni 7.911121212054205 7.307164231236456 2.646064461336808 2.4424245902698583 0.17608534243477414 0.21407184898087647
Ni 3.0462115052949343 3.4772019690439766 3.811203555290581 0.5105244143525143 -0.34576349579162385 0.7243514943124364
Ni 5.009963416578556 2.0893641882999003 4.01726416542692 2.5369542833183276 0.7943477209959159 -0.07612290840650762
Ni 1.6550204721658195 7.27653909795814 4.600452345669302 0.47791691273013814 0.9444430671248315 -0.11371732172051383
Ni 6.432587707521994 8.615945139268447 1.7000107157307343 -1.5117356395063255 0.06378187034265145 -0.7444199829275373
Ni 5.377632214098213 4.491686214153039 5.343165238198147 -2.107549202145648 0.1442869669772547 -0.3042491785979212
Ni 0.36222649676510327 1.8614266252072096 8.992493089017628 2.9654314533601 0.3117683697931018 -1.391958741855293
Ni 0.49060497477934417 6.460036075382906 8.71736941293115 0.6148610661890765 1.4001281650399628 -0.5794312646265569
Ni 8.12269193109582 3.298216317500187 8.213481471640433 -1.1089309345299934 0.9471324410315367 -0.2758570006084733
P 1.084930411558183 5.709371980522777 12.536852064761302 -0.09136029418155234 -1.36014931065418 -1.4852532769450808
P 4.119428755474908 6.331507119006788 6.2373550372893645 1.0888544754950924 0.27519776975791954 0.274332850654463
P 6.331878670517595 8.09920987561278 7.842267143828895 -2.070261521438783 1.2835211804764797 -0.26049003123409975
P 4.57288879684004 1.65015314737424 0.15519892382188727 -0.7162237229989794 -0.35666291631294705 -0.8498799497352653
P 0.5260630643344902 7.679783952637624 10.49949394142914 0.2213465282654188 0.3048960681533007 0.9246972519564719
P 7.6262526687180205 1.7361115893995773 1.1486932952066518 -0.7312564489623858 0.3997682321428534 1.5731891188261165
P 2.484146957320742 7.345378304123018 2.4740054588332487 0.14175005948801395 0.18746427369567714 0.19509299388552853
P 0.07183948461464887 0.9501501010127273 6.92128197865701 1.4190483989832334 0.8721786132324656 0.3830380638723661
