# total energy = -381164.52625348634 ev
CRYSTAL
PRIMVEC
9.29832488119965 0.00000000000000 0.00000000000000

0.00000000000000 9.29832488119965 0.00000000000000

0.00000000000000 0.00000000000000 13.60903835272597

PRIMCOORD
 96 1
Ni 5.997214805044833 8.342531219366652 6.530705249242877 -1.2905179235092872 -0.6331863468608256 1.2184658427380435
Ni 3.3526318134128297 2.608524088826072 3.8514125417046703 -0.07707293102460275 1.2849982792426384 2.016284295891379
Ni 4.081164844291507 2.972981219919748 8.12590257212285 0.6479869022087679 0.29394702534096473 0.9611824913666995
Ni 9.290560500796337 4.525020369160286 8.57072698241514 -0.6258327347092318 2.136032397187005 0.7721531871767476
Ni 3.9061889719341036 8.74036933578093 7.814745297311835 -0.22660340578898394 1.1600580922231118 -1.6957476929873443
Ni 7.827190174958936 4.498482950746637 1.941056874937511 -0.30685062077651026 -0.3146791156819935 0.21377951455143826
Ni 8.754772440589178 1.4439089324457532 1.354631068781197 1.3401199028071307 -0.4839464067536697 0.06479668476041098
Ni 1.4865882423681933 8.327533021783886 2.947826462374394 -0.7735937762780161 -0.5042982309371444 1.3796174466811209
Ni 5.63217187950124 5.696488390772159 5.653684483300055 0.5136537040101155 0.030841153750572697 0.5473194716936768
Ni 4.072396524191973 0.21379172840778027 0.05984215747251462 -0.3480227241394458 -1.2895745857594112 0.01497796146607098
Ni 2.3677253766122504 6.333925735526622 10.482619662238983 -1.9897677376580893 -2.7982668104537227 1.6444600984569615
Ni 0.8578104273154239 2.888505940912042 2.7365731765829158 -2.5333192576689014 0.6904371009531787 0.09789526708659269
Ni 2.089147571541158 6.018768321471895 2.0618104972117517 0.5256581846701592 0.04274047629131994 -0.6926207388680587
Ni 4.291474350135899 3.745290763023883 5.9952305425748005 -0.30117696743050065 -0.024893935028202287 -1.4776929480993197
Ni 2.542152647818146 0.7425195707447636 4.8618019669090495 -0.7590958397721571 -1.3114582732063802 0.07457921806847156
Ni 0.45049545846695177 0.99684548558934 10.464030451694986 1.3155537834319924 -0.34632065384667454 -0.6698261095710465
Ni 8.24998499460455 7.017027152400714 7.142581499666885 -0.49090535457000617 -1.045789011764186 0.5337646158273774
Ni 8.199178948980101 8.907571808771197 5.869197331591636 -0.6468962402477505 1.2772644009334906 -1.4620403291637272
Ni 1.9673953092046796 1.1817333719723042 1.6029130726345784 1.5126676644022916 -2.19404676891826 0.6123601541440938
Ni 6.54507209058518 6.66471363323704 1.1989994309254588 1.4131842268929726 -1.4191322169462914 -2.9444929034352194
Ni 6.500040304538473 3.1328659114483677 7.408610285855335 -0.553232494744002 0.35733757378246844 0.4747698824607243
Ni 4.649645813798733 5.399936924245713 10.361268157692846 0.3962460779222079 0.24191175401128015 0.31733789346107927
Ni 2.34097409673276 2.2313654463262833 6.739726007297454 -0.8105675252888879 0.06531784737120364 0.0374530026401355
Ni 6.303297054288165 7.696641697549118 4.508197840290639 0.15548103592086127 -0.8349156151159493 -1.3991411185363454
P 6.722902548595347 1.5719561605376764 1.270539810579547 -1.7664352893108932 -0.6813297393352717 -1.6109074593124963
Ni 8.248618140888079 5.674618731308636 13.092262339514658 -1.9643950632212555 0.18628516578591145 1.1536807279418584
P 6.844431651141382 0.4275016315590644 7.830014076140515 0.9086044601596674 1.2758562077320543 0.8258432205010358
Ni 0.8424365774187436 3.130708700140741 11.454033300209835 -0.09025909069757358 -0.4333545527387311 -1.8506211772311933
P 4.116005666574598 8.36760880081781 5.059744701032995 -0.27316531270892314 0.865917205703786 0.8684163179765559
P 6.883493912793707 3.365761047750626 11.647186467331373 -0.6670480326052771 -1.0500377597382111 0.40859071553048987
P 2.2466518919717067 4.890277156169721 4.561477240259175 1.8837966355418976 0.010383657227169213 1.0513726764995506
Ni 3.4953610960510564 4.7248599615030065 12.439259599376717 -0.31235535264482334 -0.2880383731660136 -0.14619241153008372
Ni 1.4521286513937788 8.155486121676061 12.305101512356465 2.6059732336902024 2.3172584032824544 -1.6053186523708094
Ni 6.242653381234971 3.442648893883232 0.09629530924156374 -2.30124994366934 0.6141149320516713 0.9166625545774535
Ni 8.656879679181019 8.485055938863638 9.491119783463242 -0.39699555449372276 -1.4522122873297119 -0.9877335023823506
Ni 6.768334162599932 6.701256048922266 10.815143557152565 0.144619410616009 0.7018864804407009 -0.22062224850488454
Ni 4.510524281106019 2.5752267884268867 11.034575649263822 0.6333835504732962 -0.9913435883311121 1.612010205458372
Ni 8.141454949851886 2.1632831135916195 9.417822020459406 -0.7989484529927208 0.6668747402522064 -0.9505527795669951
Ni 6.2999124641330955 8.50225783937704 2.3629776520705517 -0.5998406815208444 2.028381336265229 -1.3397383510979959
Ni 8.429916873974733 3.1414761600296703 13.309258270580232 0.9713663738782367 0.711642274275884 -0.6671269654723284
Ni 1.0736961384235384 7.176149381311983 8.2349654108752 0.43044252129825866 -2.4345904389374198 -0.6590943249758392
Ni 1.8699860606758159 8.42085100748794 9.860428780334157 0.32351188348227505 1.7003949619513683 1.0476378920474667
Ni 7.526101126026791 1.8308215174528704 5.849682007917296 -1.457904966839115 -1.5076424432735585 -1.7547208290874425
Ni 4.746645936045116 1.6856839687427676 2.314761189847716 1.1469634638226827 1.3967564203542526 -2.018552008879633
Ni 3.6379416054956537 6.9726462490761385 8.979556648341251 1.5909474712508018 -0.35863212422417595 -1.9569308936337266
Ni 2.6686749506753675 1.0277066249428433 8.919799105622614 -0.8167358588831288 1.5807216797577357 0.3973925328218253
Ni 8.65106822630487 7.955841794149978 11.788529369771465 -1.4690185602537733 -1.2060972938703616 0.06013810294247707
Ni 5.607726584123006 5.830505143258463 12.618299769417584 0.05667791230801851 -1.2510355491439487 0.7802989562123336
Ni 6.033636342510236 3.6157372063464623 9.72462396002692 0.6136176807002788 -0.49847751049030925 -0.39581644658395704
Ni 3.2925925314587556 6.626423132526668 6.259381997026139 -0.2610479606200988 -0.3572622404598428 1.6466640480868158
Ni 7.004790557224695 5.40123868968997 8.63565625327732 -0.9866078734183396 0.7202665256097853 -0.4995458038538236
Ni 6.956504357567345 0.28286247304762 10.582047577038908 0.26397696134143567 -0.4082215051165292 -0.22045924056445904
Ni 0.318455529790999 9.170184390500932 7.493122758161449 1.2458185237193835 1.6180276152970456 0.5185609115037456
Ni 2.422985319720979 4.836300381856045 8.04849401981254 -0.49588712405531366 0.45688940263587763 -0.5770861614331481
Ni 5.017171392011015 4.537786968838611 3.0216281945716488 0.378095118044794 -0.5519914232480494 -0.01670805678330026
Ni 6.074660550653548 1.1329729577602612 12.45671999331405 -0.4062363563657004 1.2736275755118518 1.4603058629711236
P 7.530982746442756 4.88233638695975 6.471642291371998 1.3310099700860625 1.0183995640076398 1.7258882211264666
Ni 7.308780683432612 2.0780267753173587 3.268019849033476 1.7723133453582252 -0.21896825784122934 -0.7509950650418937
P 1.2802398228041851 2.9404835754363217 8.835559074227335 0.4450389310551948 -1.8394026828075547 -0.2917567025578653
Ni 8.43717886548877 8.862335459583251 3.1925983486905807 -1.6021916767060536 1.247101761307181 1.0289323452181633
P 5.730696926982325 2.721768384151867 4.462280853741838 -1.8400842822556114 0.9060076459667686 1.1317566741752572
P 4.27717352689827 4.376163490609447 0.9017663972056968 0.9522265677249925 0.8611516659943427 -1.3708448426948134
P 0.5741873513153736 0.9353463666727778 3.38666368145556 1.5659501778755158 1.0908295969435924 1.1037226508561766
Ni 8.584687486972342 7.019295943603563 4.730909451488963 -0.792036813474552 -2.1513222334665403 -0.9136024275948911
Ni 1.0413658637829446 5.206671247396491 12.265090821594752 0.9293182956682511 0.7102878171305186 0.47508355704640115
Ni 5.932321797648599 7.944414153214319 8.966967646662823 0.4819157494768862 0.10027842260678858 0.0046791506432242
Ni 8.15710403015678 8.581916586240993 0.5294977436140156 -0.14967239965888418 -0.14197220280114906 0.486670233442736
Ni 3.824317223814912 9.008328454156722 2.8685126833531682 0.03474357412877242 -0.7150201896091815 0.8957031787169671
Ni 4.603340157281575 9.035665528486128 10.922409959591839 -0.6017906061583636 -0.6265575286903984 0.6217127990035872
Ni 1.2059090159370853 2.0287456549276124 13.31800892386302 -0.5968954828495914 -0.2604113554773644 0.14083089010785424
Ni 5.726159344576628 0.6037504445544601 4.153914006143834 -0.04009095448361483 -0.9363767451769294 0.2503174615764721
Ni 6.2719617003799675 8.066817298272925 12.854253124681387 -0.5099407739349024 0.4356924568432884 -0.7669158500372083
Ni 8.599527613036877 0.8743781820909804 12.340158055770319 -0.5517165723201078 0.6183819348581414 1.0077672811047742
Ni 3.82825041512149 6.436309587717469 4.034304077795619 -0.3052920180401387 -0.15706277858568435 -1.1137216710504174
Ni 4.915531405788315 1.22282266838783 6.151937996586971 -1.1237772555142067 1.0287582815341443 1.6859201653739608
Ni 3.591356999240441 7.155832542056966 12.15728046716627 1.0644264243597152 0.6796040148934166 0.9909612652910289
Ni 0.6624061358077801 5.523093233597068 6.162444173554589 0.0822364775034132 -0.7508009467532166 0.1983878625867164
Ni 2.8948566966150984 3.7052986689113743 10.080513614832462 -1.1500660140074064 0.4409994708784986 0.7585826475811646
Ni 2.738542561733585 3.3865056099373283 1.8495092902376462 0.6036181462854056 1.3915656201819322 -1.4448242223957566
Ni 3.3787508072193946 2.404714111878366 13.367014813844554 1.9242786548163442 0.8752958187052087 -0.008225216123269706
Ni 0.5310682306392661 5.0867135617081685 3.49209273495351 -2.0977311876139613 0.9021875008897301 -0.41682647317672084
Ni 1.2449247859664012 7.728637232504045 5.479501758031188 0.8348883614224395 1.2617385373837495 0.727544033107805
Ni 8.914489762274965 2.9886395985492453 6.948815572954085 1.5040254153462613 0.44848395218100184 1.334281955969115
Ni 7.697013630533191 4.027383334794472 4.5652058684245125 -0.35341098503455265 0.8311800593329168 -0.5814153849361212
Ni 8.718071953385719 6.91031028094541 2.3713201089033213 0.029211331456633557 -2.1075049791712734 -1.402099686944037
Ni 4.420795448698273 7.028770936372837 1.6858606369102023 -0.7896171482894659 -1.1601287975600474 -0.8391594779939677
Ni 2.5457603977636594 1.2302427314200977 11.476705405086497 0.34529478368532146 -0.6346608745238231 -0.08343486868688857
Ni 0.650563789594878 7.034712565793413 0.241126013239806 0.11111407976971185 -0.9460176107008028 2.615227662408935
P 2.632058148393326 8.167546048684645 1.2332098268005445 -0.00021211601080608632 -0.30173283993397065 -2.294259885504752
Ni 8.264164939622354 4.834087380600808 10.87412468976695 -0.9883315409776655 -2.141230653558493 -0.7122092025229476
P 0.5224607715553439 4.449936398000437 1.0532398242994927 0.5404903645869852 0.8649630693206329 -0.2841585784956332
Ni 0.7108996881037503 3.3100826800348147 4.97562740752246 1.052471308880368 -1.2837160700961052 0.7229998653805485
P 0.18306262526362316 6.35641838273847 10.414397854635292 0.9832271298715648 2.2030106629797674 -1.1093405112635863
P 4.5700149619085835 5.213533410952649 7.779293575102404 0.5405356160026239 -0.015053551899012784 0.019857915266191607
P 6.603744518822782 6.095916520693352 3.141183262804713 0.7363734584739768 -0.7959508038169775 1.6122971405711715
Ni 5.076838740981016 1.1256365796494103 9.188822882165319 1.4073905030293312 0.23257659265328331 -1.0648169749299146
