# total energy = -381164.992912801 ev
CRYSTAL
PRIMVEC
9.26345328026527 0.00000000000000 0.00000000000000
0.00000000000000 9.26345328026527 0.00000000000000
0.00000000000000 0.00000000000000 13.55800023987526
PRIMCOORD
 96 1
Ni 3.240309686019675 6.469021528368352 8.030918512874273 -0.47627089248628307 2.1322143089924954 0.7242118834107786
Ni 6.081281158929894 7.5711501614359396 0.8521460056545077 -1.4034065786809184 0.052246101788910024 -0.6225144689692763
Ni 9.07349703568706 6.837512441618046 11.010927010725975 1.3849892525159955 -0.3345570855528432 1.1977774611507566
Ni 1.1179598749475677 2.837442097160498 3.9161740259470648 0.5597489557062811 0.5404104032786693 -0.7793592180068836
Ni 7.232033658953605 7.618449354554242 2.8478986833712185 -1.229865599934553 -1.5759407134293248 1.1019624736319602
Ni 3.3471543576660703 3.8048893810806135 11.840133926697982 1.4642648476188718 0.9137890896844004 2.579329405850429
Ni 3.050760902316836 2.68564188610887 5.624644781089936 -1.6843085979124668 -0.590488550881983 -0.16968689510759807
Ni 1.7805746974607177 0.6278527872417556 6.486852749839841 0.9534748383097966 1.4505477551430954 -1.602688413836814
Ni 2.8081788478340757 8.392920377009322 13.22033846233922 0.1176660219556167 0.21372243606125774 -0.48827151649158484
Ni 5.060809867683268 5.20398580360894 0.19998313762537243 0.547931908466695 0.36451917913257226 -1.2073545633162301
Ni 5.9750200848484125 3.536462291580215 10.237713965244154 0.21578600345850577 -0.5618793717857227 -1.8442070461747335
Ni 6.440582726395538 5.833391145642435 4.424097513598907 0.9783453762992312 0.7756583721165287 0.7850593537154544
Ni 8.986087089297657 4.116271104049396 0.6263752664226468 0.6244870193146148 0.53267395386636 -0.627890388569209
Ni 9.494854477555272 8.985475701372508 5.302127460775381 -1.1804505398365348 -1.690265072606218 -0.23839037112158296
Ni 5.51610860285063 5.81766180174998 2.3898551869580777 -0.051787159874620486 -0.3567400494077856 0.5572920095253564
Ni 7.754807388769167 6.090405660540063 1.120388752432021 0.9734163144287299 0.0655711010325903 0.8963683231047918
Ni 4.354740185217522 0.574079366534268 1.179370086647364 -1.6808712900961436 -0.5349887180424657 0.2592877833958825
Ni 7.552326824104096 7.6633307863321845 12.50206232731335 -0.29968495626600644 0.8922674135625407 0.2044816341892801
Ni 9.100157254604897 6.871861326867294 4.332635732687383 -0.03322276660887182 -0.49004403501097543 0.19826444963497467
Ni 2.4237918485305223 7.606675505268429 3.901518316304984 -0.6826880531353791 -0.2604620062096417 -0.6626573597367491
Ni 6.027877350013518 8.525554502952888 10.592242075166936 0.791862749790533 5.2480236727189356 0.7885730232956677
Ni 4.456601118928616 3.8353198255368652 4.1187036869152145 -0.5891644327539208 1.1938688701249698 -1.4767732644985279
Ni 9.054368004392643 2.229694709202715 9.184677929875305 -1.1611747223260585 0.1099290583226752 -1.128658751976224
Ni 9.046234692297487 3.3814754525550854 11.638065585709716 -1.0838619073765077 1.0258452216524077 1.9644151178259133
P 4.949435367318728 7.998899386157976 7.509640830784642 0.49522635054286324 -1.5178821187236955 -1.768976053454876
Ni 6.65330867053355 4.001867454419347 1.7020039383164143 2.0401544176407573 -0.4140486533212675 -0.032931717731014255
P 2.9531148399079012 1.9031950302666254 2.3498185413142663 -0.5929730078667337 1.3718532293546695 -0.5052845061098137
Ni 8.625340423099843 8.795611960253684 0.7537162550869734 -0.3265846088703279 -0.4927290380423063 -3.920777283440364
P 1.58342988196058 7.537634986993711 9.864204112936196 -0.8897798712539967 0.41775181320446764 -1.4952412413957281
P 7.691047038938914 2.5409096900100936 3.6559960417094635 1.3848732957634213 0.046440550850726466 0.25037608272854944
P 7.4394423808335075 8.083437661989864 5.063004379796415 -0.570554016741585 -0.8459993837339365 -0.24611293657682135
Ni 7.237434252292417 5.33706457531625 12.622593751375003 0.3640795204919923 -0.9301950418462497 -1.123975744678258
Ni 0.4801108951296351 8.91331339929817 12.109450307725869 0.1477427867363391 -0.3196796542203785 -1.0426427528257205
Ni 1.195698775975533 1.3813105919785524 13.394246831302354 -1.9359866872818916 -3.6425371273116944 -0.9312525365764865
Ni 4.708844955319405 3.066258659874008 1.0432843979627326 -2.3057439748849515 -0.8362117082195534 0.003638625193851798
Ni 4.184996664908128 0.705149821542 5.885649991717169 0.8144172380522813 -0.4674741201302594 0.5621318541161608
Ni 5.632633583311875 6.00334772538029 8.231278673053486 -0.9880497480711887 -0.46238436431217783 -0.2556229329497856
Ni 1.494769369360645 4.861024967960899 8.465968265229785 0.036292920893763306 0.011338564941270795 -0.5290314720177662
Ni 5.390144163363227 2.5749436178433567 5.687662201956599 2.2479877419110896 1.3764441911594616 -0.32367874807744257
Ni 3.6152850166573067 2.3665900237154975 10.039414923448964 0.4444141529870023 -2.1316597220406064 -0.648095145651858
Ni 1.5963894532830447 8.418589406412146 1.576497113427533 0.14925151007138165 0.9077459688141141 0.8166271012194064
Ni 8.683987346647037 -0.1157607455548103 2.7107597400337182 2.548544559259088 1.6612792268968293 4.899611940671188
Ni 8.196331368713865 8.870506981084368 9.742941802400392 2.6031817869879945 0.12092078144748852 -0.4866429797492264
Ni 4.203736631159268 0.06942031986458194 8.733630193478408 -0.4375552210836399 2.2882100797662464 1.1662565077243396
Ni 7.950738691872419 4.8345592815647 10.220644199643079 0.12243824653327946 -3.1667711994862877 0.08437486400265469
Ni 3.432591188478859 4.477999696308812 7.042282931966398 0.6020590293284017 -0.21345478422216785 -0.1998752457655203
Ni 4.6783311397824505 2.2705558022001355 7.783607465425023 -0.9083476069538551 0.8821727483306999 0.7559058720799497
Ni 2.8686969889703593 5.6949766247701925 0.2178041692981083 0.5353149910336329 1.0218924076522466 -0.008212617717779406
Ni 3.770948087781464 5.993426566776746 5.012338847708432 0.0005229623830055509 -0.660769398685417 -0.35472327608807297
Ni 6.5419619605292425 0.8889997287061826 7.105367976042965 -1.8432374831726128 -1.1047791171451489 -2.5013090233108923
Ni 6.652660228794756 6.571039940787439 10.46241107022564 0.6220449855320254 -1.6953900525376093 -0.2639445654416035
Ni 5.789426795752215 2.9303823252364727 12.402004987981444 0.06095082865175954 -0.02176541670154961 0.7379140634882195
Ni 2.453879545210554 4.60642821440363 2.1936441275618033 0.41284049194577926 -0.7226769348234908 1.7947161385334576
Ni 6.46562184096639 0.7599450011607582 4.61676993379205 0.761234740492031 -1.600000839702322 0.21914257863556452
Ni 6.485936594297459 1.531230321987679 9.134105958666776 1.1749674052347763 -0.07081358037845224 1.4004333549852075
Ni 2.79811873742936 9.122176483363653 10.685236031272696 -0.49700941058521503 0.33212842150669253 1.2246069226387748
P 1.4141587977751642 4.802906061258152 12.593172096995245 -1.4339358576180272 -0.5848565494071863 -0.6269395946201655
Ni 4.071158085936171 0.5101439374345405 3.5413904487950476 -0.16556901628448262 0.6940916669866304 0.612618550011803
P 2.527005246439672 2.717285842962007 8.009280012050723 -0.04009583957962127 0.03076273510415347 0.12987310554476988
Ni 8.826060931616759 1.8655761459631734 5.512113275394318 -0.07497516795530959 0.5990755212200457 -0.028090844698945173
P 0.6918697347315029 1.642225020762355 10.991362597121224 0.955723268024341 -2.516808147387756 1.047864663346292
P 6.921226270096326 2.1099367835009115 0.44056984424333034 0.7568173281506256 0.04908338779021224 1.0737489873122217
P 8.785459215314855 4.1548070702405715 8.021997807239153 -0.9983421311361323 0.7373718178315043 -0.45816287003166256
Ni 7.694530097421577 3.984090887322986 5.261561871941782 -1.133001859436268 -0.862325888808102 1.8708940685476168
Ni 2.0343284767575542 3.0835627908463907 0.3608476378399972 2.392865548394808 3.6309892745730954 1.5032720821200047
Ni 5.963218445202365 0.2968584807104838 13.078237087009265 -0.03650837933867906 0.3492900208876436 -1.537017554001566
Ni 1.7853546394209694 0.7444944872159843 8.601710279792856 -0.48680881590312935 0.07039140523936908 2.4191260247532336
Ni 3.8498078666722013 7.186550102703926 1.9755907713669296 -1.6257846335346453 0.875861975621324 -1.6565193436143406
Ni 6.513791798705358 3.99068646615186 7.7695881550323005 1.030105025370026 -1.3355286838920226 -0.38637766976856036
Ni 7.667758717062805 0.9280034992946298 11.415063692702507 -0.023793759985488053 1.6889805494668397 1.1906948432723623
Ni 1.706476333623409 3.569356814643883 10.382988073367494 -1.1381978018149108 0.11382659360486849 -0.6398876701404012
Ni 1.6669862317308668 0.5318083759276414 3.6401471992680023 -0.06305347681705915 0.687242505275281 -0.2828298323818806
Ni 6.52541743273659 0.4021728298533261 1.7977093072356736 0.9139608393755745 0.3636308629903479 0.619900685495513
Ni 3.2211065470979667 8.027764306987711 6.049267590285644 0.3436256235130147 -0.7165458822250885 0.9360448157588072
Ni 0.8792230799758545 4.222041215100076 5.857490019692037 -0.641287121591089 -1.4668295230222546 0.7739087364152736
Ni 2.6157491301203093 6.046181933954327 10.969615713892763 -1.1950235525547033 0.15883169756064905 1.2693878263988911
Ni 3.6093934602876945 1.4981783202160182 12.691007133853772 0.29817880403412517 -0.2073692401497203 -0.7717274124932387
Ni 0.7297164999888737 7.836742634192468 7.580169986022561 -0.10580912261703067 1.3150537038671222 1.2604933521227388
Ni 0.833863654001887 6.853732748541302 13.554719487437676 -1.1751628090750341 -0.32767989881703563 -1.7387907881207472
Ni 1.6087746904940061 6.343223831042355 6.15682369515403 -0.059138458033369125 0.3568400653207596 0.24254861626433066
Ni 8.905550625339467 2.0705856334095394 1.8479829952443567 -0.4133043189560753 0.03416224770400568 -0.3079824203881083
Ni 4.750882506900066 7.502748821446605 12.296753630321799 0.18387629923410267 -0.9285695904276846 1.2535809412736216
Ni 8.712407621713027 6.325576952293752 8.899322805611023 0.992243731547878 0.570289964446921 -2.0998819154083774
Ni 8.106883462573967 5.897457189435263 6.570667549960303 -0.1051843445488382 0.6458269184429716 0.2431263431446716
Ni 0.7565508718308434 6.292812117577843 2.2135336883812915 0.012767841188629624 0.05147271395799523 0.24343307575181303
Ni 8.628832745035918 4.61762772957794 3.3527717158147072 0.39364849239836075 0.0967837791899688 -1.7399444421092165
Ni 3.908000881002239 4.67003108552589 9.692438380747106 0.6845672724359628 0.5068305104406948 -1.3677615757837993
Ni 5.772391304928762 2.197522735505131 3.0104454267253433 -1.5581929025276002 0.6546383460870144 -0.47157991476851685
P 8.518403116919334 0.7145966913308845 7.414775657089791 2.7131221581645795 -0.7370663707759435 1.2931144805918697
Ni 7.0090993891562965 7.786812620305346 8.300966706721656 -0.749900032205502 1.0248512331702544 -1.9736896011493041
P 1.5879967644923705 5.444826328850368 4.212863911805462 0.16636708670574574 -0.8110822601417772 -1.788796944835545
Ni 4.374619556238258 7.343528584212493 10.08433248269521 -2.066453974767234 -1.9716813124700237 -2.114389879216565
P 5.3646974568422765 5.153333240355733 11.40202075029934 -1.3183568000984265 0.48699702065453554 1.4823852113686666
P 5.394229346317628 4.945229759469979 6.0367267270573715 0.6706558045611933 -1.0532033019503861 0.61642352558019
P 5.3351748308203355 1.331630691333536 10.896849434656007 -0.5113741639473194 -0.15620403012981485 1.2453886352708163
Ni 4.9239979242511875 7.765599311993378 3.8697919147164854 1.2827940725024682 -0.3543029007212027 0.9765664300219373
