# total energy = -340861.90588456916 ev
CRYSTAL
PRIMVEC
9.38356552674154 0.00000000000000 0.00000000000000
0.00000000000000 9.38356552674154 0.00000000000000
0.00000000000000 0.00000000000000 13.73379665372499
PRIMCOORD
 96 1
Ni 1.6457929409803451 4.127811707279005 8.220707167239802 0.4411043718874791 -0.8503412056424 -2.04367477208919
Ni 6.552740860924081 6.622141711546353 11.867249874094208 0.6182518370381803 0.4714567589270912 0.7565044248958971
Ni 1.9668704025463575 0.6623145753057519 6.798682236618996 1.9391108347331703 1.0003185381362127 -1.8788238649176547
Ni 3.0428181763296718 7.420786356937382 10.675060367301354 -1.1136666494427658 1.5247587912388707 0.5803843725684456
Ni 9.287571649594998 2.5505000274994885 8.414147493822815 -0.6628288523176069 -2.4471561914175726 -0.3231449870611596
Ni 7.188740165071762 3.043287354605918 13.075206586038577 -0.5509938352214705 0.7043863640444191 0.30191358848620914
Ni 6.757124301622253 0.8765648351533707 4.6737072001867945 3.3472824389029 0.8800145643371167 3.4584664526785986
Ni 8.416833070276047 2.6771312442582142 4.429135825058518 -1.5757735917238411 -0.0728771477757003 -0.08506597653240834
Ni 4.61551314187093 5.975961238804139 10.25369417247471 1.494295332542691 0.252922503299487 -0.8608727013013432
Ni 0.7190616878176745 4.138011643004587 12.940147989081925 0.38639283927721196 -0.6177854389247232 0.6901612215839726
Ni 8.391319155613802 5.762832315036748 0.1631933414700046 0.042402890446243104 -0.023736167274675247 0.8085520375207558
Ni 3.661805076180682 1.254338737977471 12.358260892246772 0.0990905729462745 0.577347899734967 -0.13943272420874697
Ni 5.069480658400788 5.543041059746666 6.8694662247996385 -1.301250479435443 -0.5528681694260478 0.9043001763573587
Ni 2.1939996060769222 5.191345023872857 10.140802372357562 -0.18381664964076083 0.09692467564320727 0.126174316536944
Ni 2.9243318944465715 3.248993878043102 4.013070406396898 -0.7014247103129339 0.09979839764657653 1.2422737437909186
Ni 3.570099490305689 3.496194528231459 6.7715853144526985 -0.8535203747013301 0.6547447897578917 0.04140581664029643
Ni 9.08386382561462 2.317984657357622 0.5701022768924133 0.19836369421700029 -0.7748924404847816 -0.056320786078915906
Ni 4.015790702042571 3.3729413950617024 2.0136765657411857 1.2114837549932556 0.21823215100615317 -1.0364389380078538
Ni 0.6807035486649274 4.396078462070796 4.693593790603747 0.06468741287605632 0.3504539592887578 -1.599688964888858
Ni 0.5027020024400547 2.5230155640770127 2.777440621363002 2.5467080202709815 -1.5078823271985062 -0.295333107055214
Ni 5.16615015043846 8.03881613310485 5.07576389387627 0.2533621619400669 0.17063897460822225 0.09058947745379883
Ni 0.11159592971815516 7.769498418974269 12.549503587783851 0.6299842949837602 -0.20165959135945266 2.0570843606268765
Ni 2.340167406258521 5.123736434265845 5.92243925776313 0.4984145184628578 0.3712379859136445 0.013192844541190183
Ni 2.742412709615047 7.309713091818964 5.945401780959149 0.30362440052972867 2.2135501290585102 0.13094422712176157
P 1.7593903852249646 5.787398489580974 12.036533149589884 -0.33133549329175194 1.800825079644673 1.7443158317040344
P 8.086184371874621 1.0896290123186405 2.465765492452954 0.14708432721673378 1.72159242196459 0.5634438880593651
P 4.162709187466163 0.026030949122666357 10.604523166894015 0.665504342267241 -0.45844234894529434 0.20097619213918289
P 4.938730056376624 2.4269841544950332 4.44770402451922 0.5818815259392625 0.6839149835639446 0.08239742856130972
P 5.062067641636104 2.1885571380724715 0.16921008368458001 0.25254172292130056 2.0675592920162713 -0.9886557570863038
P 0.7044064351808624 5.952558626385001 8.620346654450058 0.4663389780845517 3.102604949221025 -1.5033530718695851
P 4.397467229768483 4.3487759082597 8.817592016853427 -0.9145833034509216 -1.449077598355472 -0.8588273887365403
P 1.4062774309568928 4.069596066762433 1.4967913040102216 0.6566795448867594 1.2699326431587679 -0.7601548771642908
Ni 6.585132929116088 7.29691390844298 0.5890964902279461 -0.5084173953118405 1.01213815647896 0.4739833820036869
Ni 9.526758734825078 7.394456072074471 10.300786534418046 0.01435781138356882 -0.23785583877435162 -1.9568792144601845
Ni 8.939741642717454 4.507104809361588 2.5737271672433097 -0.3948988198656941 1.292223593346484 -0.12199344568637699
Ni 3.3961844868669164 0.7934142459674426 4.493945297069448 0.5693885356785743 -0.3782118461283164 2.349786457817147
Ni 5.403169632032285 5.313068635862052 0.28241998667302054 0.01771361522967917 -0.5727101438526395 -0.23654791859620555
Ni 9.090535540702835 0.9064758886205894 5.883393303257406 -1.7445184346331437 2.064474225333045 1.6344366527826886
Ni 6.195283315817974 0.9530418325379795 11.882920428520817 0.3763899624282292 1.5368612309293597 -0.9145987300698895
Ni 3.1608352799365265 5.661180149705344 1.8003083610529085 0.4271486810383353 -0.6309944814158295 -0.15586335896094447
Ni 3.4853658936157075 4.104193272852794 13.064960670841923 -0.1624104160508429 0.05641617400619962 0.4616832244800952
Ni 8.512273315229956 0.25154899445260304 9.788818261022138 0.37078624308820657 0.1925018361195846 -0.8735986335084439
Ni 1.5358738544214923 9.304818643029792 11.025451149210648 0.2064423574600767 -0.1512798533553201 -0.40674029258531236
Ni 6.302997264478472 7.9767907649851635 9.883513450873368 -0.6095674218903051 1.9103545885360838 0.5591583733101338
Ni 6.760136426155751 0.8472355627486968 0.6772213074986315 1.0253040044369568 -0.1300821362317824 0.22649619078715832
Ni 7.194126331683064 6.169262688617385 2.952889837765098 -0.2789204700251454 2.8589641283337794 1.9277167339636152
Ni 1.5608059880211913 7.1484002168801535 1.099981900162279 -1.6481246917927421 -0.44681067824363685 -0.5021367045094514
Ni 4.753470322218228 5.603405536768443 4.69020163166649 -0.14942454531413624 0.26833549542044755 -1.568753451652266
Ni 7.1509900809650295 5.864193589836878 9.461514803730346 -1.0918215285432162 0.12868885542868158 0.5947175013616661
Ni 3.039289955692304 8.273461572620871 2.6511725485900897 0.03800244738570229 0.003996522753902794 -0.9425545918528669
Ni 0.9513997085711193 9.41190389280012 1.140187663366882 -0.2985539279853568 0.6588600974778459 -0.18769464453892837
Ni 2.7434824360848875 8.355239346170505 12.997322053825231 -0.9771685823823107 -0.09198790046322224 0.2447844475733849
Ni 6.838517348985364 3.316489864863814 10.69523503317992 -1.7466509075951144 0.2300394280537264 -1.08905322176946
Ni 2.9156708634670756 2.1439289004359763 8.791085320958647 2.398114198388257 0.446546883059289 -0.9875620098014929
Ni 1.3421876784217244 7.35323406872352 3.814671803790518 -3.343941547455125 0.322751865387799 0.5549052544607347
Ni 6.446988077458291 4.24573497523061 5.434559535426231 -0.9140192034173356 -3.234911603907951 0.2396191013223615
P 1.5848560664615479 1.0432460479289862 12.909658907978374 -1.7303992216229422 -0.6353370746552413 0.14639989955519947
P 8.511588314946637 7.987272207676494 1.1894645193644198 1.9036540365874568 -1.1767813185150635 -1.5539608667241238
P 4.17020665632057 9.257750678356818 6.5643699136791085 -2.347839361393105 0.34410899090733643 -0.6977868564500306
P 7.373117844070815 1.7055944040706277 7.2755616050910366 1.4766231120739086 2.1677256145252275 0.7682484528057028
P 2.464668553643092 0.8562775664885047 2.712493210938856 -0.45301372173055526 2.6398164074918924 -2.973032405635809
P 7.938496434077986 5.433581767898534 4.785431684752642 2.2052418663031315 1.0219847102557367 0.4391703880895598
P 7.023514343309062 4.697994682834932 1.7184273682825013 -1.2933800755484306 -2.312769000052533 -3.9567778699046885
P 5.46267082102577 4.802630822003257 11.659293171644151 0.17282981161195396 -2.2810045631567424 2.814906733003249
Ni 2.432332786844235 2.3541583024561694 0.692778320782388 -0.6888869828572395 -1.3217318872182464 0.05476526866633794
Ni 6.151311927768224 0.11807434335655638 7.006749665142249 1.24161682693321 -3.8882420298168197 0.6393528806828537
Ni 1.4367177175197168 2.2146434502317347 10.47635961388507 -1.8570203958893179 1.0678963851861867 1.2107440486137535
Ni 5.147955416885651 2.0954158666721665 7.016500128079187 0.10812491523440088 -0.5493146477468346 -0.7280330569290817
Ni 5.487556036797844 1.4387445676730983 9.458520507971345 -0.21320641565678763 -0.1761863867890127 -0.11154191133574982
Ni 8.715624563720386 5.513191937811912 11.51835670924269 -0.07057138246065911 0.18622500197193734 1.4650138099697543
Ni 5.109576633888748 8.589988004907301 12.619051760384863 -0.1930980749426868 -1.5221768894443077 0.17722022737016577
Ni 0.7133470964130014 0.39871708271915807 3.7947720763818307 -0.7160797412219474 -0.7300390316155169 -0.32952312267336153
Ni 8.749170810471957 3.953474443391611 6.4956465564877375 -0.4809107052511395 -1.2989046049110855 1.2104424582129347
Ni 7.359952701639359 5.652181310366951 7.143400653168479 -0.4570750362841225 0.9577567535146021 -0.07768459646667267
Ni 8.949566235822038 4.545314688179042 9.589843507492528 0.06355252794066475 -1.868595502321427 -1.7686027292758573
Ni 8.593262869275495 1.071819004952352 12.109171330318249 1.7881356571024625 1.487588867056793 0.8946976202705882
Ni 3.3314191176139536 6.421474162796048 8.384030001914049 -0.6323908475427238 -0.006292774987247227 -1.2052313463256403
Ni 0.038555194028770244 6.379942501782774 6.354366655588066 1.4895413627974734 0.04830845729740067 -0.1315486934749799
Ni 4.446984305043459 0.49716382206724996 1.1720655121681225 -2.017177754239926 -0.9075155979708629 0.29490887503360175
Ni 7.847729204755485 7.914108547278731 7.801235514292636 -0.1463243091222577 0.06330313093402001 0.884218318005819
Ni 6.30936870546989 2.8777049573532696 2.6250918665701417 0.5362418737232765 -0.8771968923826634 0.4996828436523202
Ni 5.446681225371315 0.49933236406005777 3.226110176797492 -2.279414078741171 -1.0399325529834091 -2.7408288800512284
Ni 6.460744384517817 3.714493796603079 8.161349546798846 0.40535961018770184 -0.31157836526948274 0.4265956367483427
Ni 7.86687167842631 8.43396746092454 3.0976303976303576 -0.5598628555763261 1.0333991227402655 0.8202855239076001
Ni 3.5248144030824498 3.3503833035398065 10.857705840104506 1.5860235515866234 0.25894479823416694 -1.0545099365769517
Ni 7.616020821248761 7.694129620678153 5.4047573313191 0.04149914768505111 0.15253275192581472 -0.6466897806638993
Ni 0.9547121072014143 8.205214900558166 7.763715327541264 -0.4132233292064948 -1.7100373701371387 1.1367615835890164
Ni 5.083509088860534 7.416723273065093 2.815153171207635 1.3999947247858922 -0.7837447486690889 -0.45078277551750745
P 5.517564679346523 7.191179892108241 8.055173564527882 1.0142809138535758 0.8846384362623733 0.17170006888288494
P 8.786395414909293 3.166737542651698 11.264803385193966 1.6251403150824268 -0.3390953397428289 1.5528218680236743
P 1.2449739395836061 2.740657982861888 6.100923119255983 0.450351858627676 0.5419168126208667 0.2767625431418782
P 0.6058151889236869 8.520427633671106 5.596289040674349 0.7418455373321418 -2.9888639733514264 0.06755702111436752
P 4.227390104629402 7.722402303604722 0.7328574058524044 0.1753114403832271 -1.6646869670267976 0.30782224066116015
P 1.4739235548260041 0.6423210122418157 8.80646779992364 -2.1845426860825667 -0.15332336614791015 2.2951055213344986
P 7.743646695953129 8.6232058268655 11.622651286625912 -1.1995332674995987 -1.2695582905384843 -1.1086383429902391
P 2.9417571756263388 6.197479070150804 3.904243566865145 1.2779750538472698 -1.4280434033929923 0.29338549641053985
