# total energy = -340870.8202224929 ev
CRYSTAL
PRIMVEC
9.28032156480297 0.00000000000000 0.00000000000000
0.00000000000000 9.28032156480297 0.00000000000000
0.00000000000000 0.00000000000000 13.58268867937136
PRIMCOORD
 96 1
Ni -0.06950496760487872 1.1564951002049237 11.462566783529432 0.8483084914830875 -0.18770158651746383 0.6312400217677322
Ni 7.33063728829761 2.5478658563430705 0.35722741411504055 0.08326671854014046 -0.011763054073199096 0.8053504998643227
Ni 0.7217593692544219 7.785790654501132 4.7590620666782275 -0.33669855737587817 0.019470450019785823 0.9558392247769151
Ni 5.623141661808628 6.409695307492784 5.249518703763079 0.14000530888276533 0.03654617455514996 0.15609964334146664
Ni 2.9443211892865806 0.13039408476254874 13.547264788052642 0.9165555966859441 0.2656584628089167 0.1016213097879282
Ni 7.510257910233978 5.463334526197971 7.808592404338262 -0.8273825399636978 1.3172517399597057 -1.2814213605246576
Ni 7.221927602667922 8.55122228853315 1.3065866672748834 1.1513685348689138 0.6979655481197399 -0.6035363852048767
Ni 3.7549572691699047 4.199651713083461 10.393351250629452 0.789639259776653 0.07918483516128298 1.0109708756437363
Ni 0.3331264192729456 0.7151953978829111 9.255692418900077 -0.8364047980669659 0.8781955088505069 -0.8762065034449361
Ni 1.8103679899177942 2.044779629777816 0.996814176966178 -0.12995100997055686 0.6303707317889015 -0.553056374177454
Ni 2.7346972880569926 2.2232030902453235 12.015531953867429 -0.037133157406871536 -1.597850111907906 -0.36954157204782806
Ni 7.797279692473606 7.396917344193738 3.6992725562892645 -0.7111792185965364 1.2183966800630048 0.20775696250644218
Ni 2.1395688332114537 0.827376851772294 4.659541755362225 -0.7461212818893602 0.2605687069908351 0.003316980188374933
Ni 1.990220619890763 4.24219270667459 4.195271401352437 -0.8427775343625292 0.04774821391855647 2.2699400778124645
Ni 8.16259026658382 1.0478225358610915 4.5393077665385 -0.06927143270231297 -0.8519540586554747 0.348135081347594
Ni 4.484919514566386 0.1684118496721083 4.635350741401929 0.3587331685784144 -0.5765973947221876 0.10741143410714404
Ni 8.713739278011303 4.5505870692458865 13.176185566120385 -2.168326995554653 -0.6444614055540127 -2.449821139844245
Ni 6.7523897381951485 0.6916595746179758 10.338355137601443 -1.1420074053689881 -0.6973955345488827 -3.0226127876670974
Ni 0.5947795147584911 2.348422467759527 3.2122375737282023 -0.4831974444027872 0.4894956187066731 -0.05380573296654603
Ni 2.147169416490497 4.427307278917666 12.335431130957687 -0.7301326197705877 -2.976839952307357 -1.471685051342343
Ni 6.9999515935697065 6.5118623664903295 12.690672556279425 0.46369074182842723 -0.20198843545378115 0.32526691850016887
Ni 8.402328810964196 6.368351475370515 1.2909567498651584 -0.7380706436707418 0.04247873798950104 -0.3117657986899405
Ni 0.5534820842435422 6.451243306687263 7.558508157589782 -1.1683910375688393 -0.32253820671509614 0.3091553576502869
Ni 6.720428311073017 7.228897124087411 9.257240376520278 -1.3983839286553466 1.627144232886333 -0.815800234442737
P 7.502462440204191 2.338511084435939 8.748854158366914 -1.0241819750173717 -1.1830224143287689 0.4216326363161126
P 8.829362803131696 7.915399624067824 12.961497393467875 -1.6677355240451341 -0.4913375570114183 0.4939474838304396
P 6.8895157681477075 4.548536118202335 1.104738747400009 0.3666709353682524 0.766837431390789 -0.42339898418791594
P 4.200032206263486 6.398503239807161 3.3287093202304083 0.6010583559780294 -0.3226045411766573 0.6823206424936313
P 0.4980126748208676 2.346185910286695 5.363097774064945 0.45852256736392644 -0.168113122862575 0.8386177465578848
P 3.3725709035658693 0.7964557486862809 2.7080080115585785 1.1285654209314693 -0.04139964599270935 0.13566014454019215
P 4.747264922033148 5.910905869765378 7.803417697089917 0.8694159628856639 -0.22531811131865712 0.24540254077335802
P 2.036204612745049 0.3714745636266248 10.570618383042541 0.4831082271230906 1.2802250262237114 0.00512189460759763
Ni 0.09916116287534409 4.165862062632915 1.4973288264537492 2.098927264804592 -1.5549844228926317 2.8039510053226935
Ni 9.110565823813376 0.3138613999457585 6.77723223072222 1.137120252480016 0.29510067932943373 -0.027647843624255607
Ni 9.115855607047875 0.5162420102726686 0.47937500522464915 0.44512891966583984 1.4408770648225508 0.22748272307014372
Ni 1.7511502586557968 5.266981484661951 9.632109681738447 -0.7301372477562781 -0.5897254474637134 -1.0332628542727174
Ni 5.120695777424392 4.077030825579186 4.204222271404498 -0.6218912335629806 0.3789698073402635 -0.21143106892391977
Ni 3.9331116003149553 1.3011010692574931 9.83830821631566 0.9124546871436932 2.09711232308304 1.575781562143641
Ni 7.703984620795678 7.520930279917618 6.426689432157723 0.8748178506275256 -0.5707368221763526 0.8936879480591512
Ni 3.8225829716783166 8.198588633542805 10.164971819721051 -0.9467069234583437 -1.1290220488529137 0.676253610363945
Ni 7.24681742483446 0.6236626592510025 12.536862364398827 -0.22022835550057557 -0.48948302030118285 1.7144943774672279
Ni 5.728361946567839 1.376141748615668 3.0987819317018075 0.5659782244454445 0.6161286200475905 -0.9216085857288192
Ni 1.095838919116001 7.571517312218064 9.74288980708676 -0.33603212743647287 0.7627468062611831 -0.11310154251338587
Ni 8.164372088304914 8.145737202805135 11.01538428543137 0.3952058095831516 -0.40021431854133654 -1.175352299378021
Ni 3.1600422617180386 8.065944998857374 1.846593724752649 -0.35434275282020267 -0.35805388312320274 0.09720929676316162
Ni 7.438066289565262 3.5353384617235526 3.1667769910044874 -0.3062929485008274 -0.8618816021818317 -0.38137224613416904
Ni 8.74046660382772 4.038907265004937 8.816835297187398 1.1053596722389671 -0.5519839670488816 -1.4098438496658299
Ni 5.644718409212505 8.363648431102105 11.741242772676456 -0.19257074168430707 0.20148758455796267 0.05429861344256455
Ni 4.665031993540348 6.256644245907944 1.2338029620967617 -0.06566674607019013 -0.8184165890196614 -1.671742074101366
Ni 4.642499373025674 6.27589163262435 12.248908837884212 -1.0239564892701267 0.11788790815843568 -0.6322286109332467
Ni 3.297585906136479 5.1678769317475375 6.3468647470848385 0.5982993051756536 0.17815816580340282 -0.0031611713368010076
Ni 4.705475634480605 3.7193208347480162 12.641516549548733 0.0464840024941522 -0.42806630775659826 0.16249989044085564
Ni 3.024252598056301 7.2611184002105364 4.952587394264157 0.5061252568435541 -0.1173232939042173 -0.0017090122713067342
Ni 7.3202062069720375 2.755318162350075 10.988612414071927 -2.3894794055313944 0.7822486237395367 0.7595113300430211
Ni -0.06870685995897184 3.7744552245658394 10.889227595449299 3.968868739630952 -0.47656219847445663 2.288147087738795
Ni 7.963434567965661 2.861280872826409 6.675063315660383 0.8268138119444213 0.3313324079679584 -0.6106981930606386
P 5.316603363530138 8.289656428069366 0.3056743003501882 -0.8067602357276558 -0.86666076873803 -0.6636588044180699
P 1.3425841062017227 5.728816682319576 5.6849801558520685 -1.0543595270420163 1.1074780041335508 -0.6893970897244385
P 7.299279082070642 4.59203298490426 5.176064031343107 -0.2522671291036752 0.3316645944963965 -0.5538809269612783
P 6.601621635690461 8.678678223520185 5.1305886001050505 -1.3737522461495952 0.9721112224640613 -0.7378377017243293
P 8.573829151619535 8.20234716373574 8.516766311001486 0.14471017055760238 -1.074295089623679 -0.578397424045404
P 2.592272194548471 6.456440286707122 11.143047171587055 0.9534560692567192 -0.32938839686771015 0.5837754005278656
P 3.6625809493169155 3.187335687143761 5.6341666837079 0.5510959080169735 -0.9852508451698129 0.11184607283972996
P 5.072066892952856 -0.13092491915029147 8.714584715296677 1.4791124541546656 0.26008688225841015 -0.048857902042967465
Ni 5.919592250655713 4.057774158541317 6.782949836776211 -2.42142613364132 0.4632837361979956 -1.0323272298323254
Ni 2.636121713466029 6.0724113042039525 13.485422581880618 0.5996432207980575 2.938910010030803 1.7631519905739312
Ni 2.7371658535664256 7.144594683908132 7.986865523598054 1.4001772731103435 -0.7499098023975149 -0.21510954621677145
Ni 3.5513748572134025 3.4749050083497663 8.189179315610422 -0.3616984218543255 0.6362410745267494 -0.2522231632396172
Ni 4.567003957915762 1.516163238865005 7.268789513932706 0.23379940931679088 0.2000469954566942 -0.6089737541703641
Ni 2.1880121112537085 5.859882662356121 2.4939314120905474 -0.1349806019746643 -0.31314673819786715 -0.5487896284813
Ni 5.088047606513921 1.2259954276490703 0.8317599475997571 -0.185662444600248 -0.8884511251402442 -1.0802250819548687
Ni 7.865545737163036 5.530830304205886 10.328479947531566 -0.9171981153659495 0.47327452886212035 1.022681222102129
Ni 4.649942190839829 8.324884528346837 6.747580675612486 1.243586034844439 -0.9589829126122195 0.3958609266686473
Ni 0.9091058588095976 3.876167547811646 6.958696852533492 0.7449897393880782 0.9353817282535116 -0.3560581928494126
Ni 1.288294225637127 0.15811997316849516 2.469441571779109 -0.7083342929485736 -0.3877871485215773 0.09536555868620351
Ni 1.591807139118342 8.252498020927376 12.042316817676923 -0.049065132957767106 -0.25059308383536194 -0.6765778264725832
Ni 5.3326768803058435 8.195832378067987 2.486582325523179 0.5983908364481954 0.4800658407523409 2.258839082803297
Ni 6.331601402372943 5.80468331028805 2.793116911673083 0.4297575794160921 -0.536842740532069 0.5486574737788099
Ni 4.926783460433412 3.4682046162527342 1.478068447287294 0.8368007479538039 1.1217789941372551 0.3603941012206051
Ni 6.171413773582262 2.18497744613497 5.214543956261576 -0.9360828680855943 0.0977461431032381 0.39026183531431496
Ni 1.17875859139714 7.699882718708574 0.6345197073317752 -0.03660968080323372 -0.13799907708601394 1.539432848311278
Ni 9.071709117843467 5.310255623648739 3.515349577322171 0.28111516368361905 0.604194587614166 1.2419410430418483
Ni 5.904456046347874 3.9675323126250555 9.061188017399692 0.10767702906370488 0.37105312359634807 1.7305195492508907
Ni 2.546603732623962 0.26828481320374375 8.337638474134858 -0.18858758866684294 -1.4288232189818102 1.75268811492813
Ni 6.781409303413182 0.7869564116356962 7.00500008844614 0.024799575542183094 -1.3595049922019617 0.67408025686171
Ni 0.49062739499978975 6.005026890053604 11.908404563047359 -0.4429586514873984 2.141167147310409 -0.9265111652367592
Ni 2.2543756900430116 1.900108698474998 6.904624131491154 -1.0123903816990825 0.8112866628430995 -1.6719521332296432
Ni 3.0953862620781174 2.951940333208552 2.8110325722594 0.5760222389450079 -0.9063557733348068 -0.18541639002771293
P 0.5006798392096308 2.6213752826596797 12.918997233291188 -0.1918361775111277 0.395548537634551 0.15054914583688267
P 0.5009768094964799 7.35157369352047 2.6827033590225984 0.18990476481636973 0.020424329292622893 0.32242404973473504
P 1.5058249607540717 3.1197192649568133 9.157638398375394 0.3140718211152978 -0.16448863873611028 -0.31942305812488214
P 5.929772763301758 4.8914439962983725 11.265577111940981 0.7655860754821912 -0.538202339883757 -1.1944741078091365
P 2.5750943195185445 8.867272916312274 6.412971260969589 -0.5962002565547797 -0.246098281288802 -1.7237917436087538
P 7.880793305328443 1.3823874049609626 2.4351990416411184 0.2231380729482028 -0.29311167392386295 -1.4987693091536447
P 5.3235543243066985 1.6110545258347473 12.196317256147532 -0.4150603824152336 0.17086677434831218 -0.7118497623009999
P 2.6940216390801335 4.149547257499144 0.9458754204822447 0.49155584366981153 -0.12896653457010046 0.44971988147063197
