# total energy = -340896.66043724277 ev
CRYSTAL
PRIMVEC
9.02227022677422 0.00000000000000 0.00000000000000

0.00000000000000 9.02227022677422 0.00000000000000

0.00000000000000 0.00000000000000 13.20500446194074

PRIMCOORD
 96 1
Ni 6.3959235154476435 1.86381157942071 11.34230652639735 -0.2931772370544757 0.4132675521808689 0.5158609960740793
Ni 4.688134056585763 0.404552285339357 5.923738487372319 -0.3926095096108851 -0.7757817850682703 0.38474579059209224
Ni 2.7583967479727005 1.6268777386761653 4.686165397203011 0.8296602802542808 -0.33886651156147446 0.7309124353594056
Ni 3.3287666327519783 4.389126996073409 4.827750080803635 0.034866472859881883 -0.23072128461209943 0.2900111806216683
Ni 5.044026531434753 4.637717610065048 2.769023177949812 0.32629278866152195 -0.5564797980367061 -0.4605647946049359
Ni 7.18170912626998 5.965741666824215 2.628495904430116 0.15274872459136277 0.40222183588966853 -0.1006481472413815
Ni 5.04065220233691 4.3826219391762296 11.535549120914045 0.4698570185401392 0.6339497073894115 0.1506653596997728
Ni 5.700775632210689 7.841074685437293 12.248711771289138 -0.6794106679356879 0.013588537317712082 0.6999638094966912
Ni 1.9365220558900096 6.598807308023044 0.533374967579288 -0.3430928909379963 -1.0172942467586028 -1.2934106716760498
Ni 2.8348514666227618 1.6072543007408473 0.39035303631747037 -0.4227343540207236 -0.3617940668919253 0.5558928151849846
Ni 0.6442532563895392 0.04897919885952206 4.691738453576641 0.09291838269729158 -0.2581027619488458 0.036002386236537995
Ni 8.657391659005889 2.2161131906842937 1.191829277444777 0.26696072656010794 0.6236493539046678 0.6229446145281595
Ni 6.824688867631604 0.6825924918664772 4.726506674462867 0.6020371749515309 -0.7319611883388942 0.9852102217398645
Ni 0.9268127181174873 7.337225999691165 2.5147350002541944 -0.32291950131391484 0.7671559910724722 0.35021664646697104
Ni 7.687705112351099 3.7871701429210054 3.757259512372423 0.35823154635164756 -0.40345159453171164 0.09014159128310281
Ni 7.631135477475493 3.8861354260072134 12.777888676490814 -0.11608170818763233 -0.22665354230062898 -1.2764904988819434
Ni 7.920560886913224 8.943433717075461 6.806044346025474 -0.0704687954445238 -0.5103974018563467 -0.0805032968623904
Ni 7.017242160696228 0.5696138185268734 0.4025331012428402 -1.3240543647038356 -0.36018121387885066 -0.24367115990454807
Ni 1.806872031462185 6.411504976281802 9.221081454843874 0.12847442542503035 0.4939027466354332 -0.7285457348994421
Ni 0.0007506528902153803 4.953217380713385 1.3957289776576558 0.7144440053907373 -1.0245144186561257 -0.6711345439698247
Ni 6.348132549588619 1.9928571117374234 6.910482538284815 0.3362946370692401 -0.02156435643433706 0.4146906577806407
Ni 3.3779289836988964 4.390534470242562 0.5354699387464517 0.42363115480338004 -0.1923650534314042 -0.23189525031554253
Ni 6.2851119914377245 5.549914250272091 4.801775866793526 -0.8059315691787733 0.8204374761044321 0.7008037888994834
Ni 5.295892229550768 2.881144735609482 9.21314456364769 -0.1449305140985246 -0.9376252728720497 0.31387667438535616
P 0.2228356411501869 5.5254638977182005 12.385251201329563 0.614947969475928 0.47713709714132013 0.23979650744049025
P 4.004525657081807 6.209469277116021 12.612337234025189 0.5946228847653308 -0.26620585067195446 0.38402870992040955
P 2.375401373097185 8.62491148587157 1.295489750002957 0.3447337689755289 -0.3281218714504607 0.46014056258332364
P 6.301740035628433 7.673846905147124 5.882340702258565 -0.4108106059999441 0.4506956151203399 -1.513390401500929
P 4.658910923035191 0.8967766780115255 12.490574478306815 0.6578676516575895 0.7853917973542086 0.8007086302169372
P 3.862740679080188 6.168535236696464 8.157074289861086 0.0993890780232998 0.014963563288367778 0.89495318792482
P 4.831534020973783 1.0406467026829616 3.8090103526727406 -0.33734981780663187 0.14824800850753178 -0.7275376053499018
P 0.15591746222317396 5.59507071319911 3.455168639866371 0.44713180902848154 -0.3894514235978776 1.9644559983661782
Ni 1.5031914349266142 1.2174741785883851 2.482936910755696 -0.20701879878883703 -0.22677926924521588 0.395162615050042
Ni 1.7895673169978448 6.47835999931661 4.816842155992693 0.2994849244400584 0.7827615588202131 -0.306632077007801
Ni 5.811415733084623 5.292806613103008 9.240650759157303 -1.2896198371750498 2.7456191023510197 0.473645539048294
Ni 8.661442658377364 2.3393213141071447 10.126297564508135 -0.03361151740685824 -0.15207920932816388 0.0808514242304285
Ni 2.303295388738996 5.22992138900684 6.996579357220612 -0.9637376536883854 -0.550679132194529 0.017690475301227596
Ni 0.5123521755180999 0.08018272074425635 9.244652136042044 -0.17165841701167212 -0.3479221940058395 -0.5615520703532909
Ni 1.4370130821654385 1.040303856410988 11.415277746478756 0.18877887874204263 0.5669513869919912 -0.3088437399471391
Ni 4.128536762562701 6.877090213621639 1.7422951316819375 0.03965129584303494 -0.04962486211597905 -1.0792213232807026
Ni 5.534395945330139 7.9063778779779055 7.9215767945507025 -0.8422517437660462 0.04034935035132405 0.7026184735107189
Ni 5.310968443247282 3.0637374422462473 4.823048575742442 0.2817823649539728 -0.6458024929629393 -0.43052916747479403
Ni 0.6787905071556988 7.434495095958135 6.942055973252468 0.8305699365527437 -0.3040368054767989 0.20531287184132382
Ni 4.944204132668611 4.762459519441464 6.799983184827797 0.46149887638343096 -0.23827672836185415 0.6022621464781435
Ni 8.265031167543311 7.0130919163512875 9.316025512050647 -0.4219249707455508 0.26881577749097574 -0.2512872816889092
Ni 4.5592419028644064 0.25630194842994547 10.42594520621286 -0.10769502678583388 0.5228004035063899 -1.0135021267060225
Ni 8.177569279108841 7.226288163896832 4.82088323086682 -0.0770662461563834 -0.062432812513924726 -0.5243165830406002
Ni 7.238378006119052 6.294386885321636 7.2229661639668175 -0.23346902256056565 -1.020575745723352 -0.6985905832982485
Ni 2.3876897052663355 5.2649548646403295 2.665615328960454 -1.109394247319657 -0.7891916307162732 -0.5891052973812112
Ni 2.5342564865349515 5.342853146540805 11.30302175699139 -1.7026050822288095 -0.6211067899884722 1.1887258924714494
Ni 1.2365292134938526 3.270293298839888 3.8847144184325866 -0.9085067582395385 0.7988432948734242 -0.3121848885052301
Ni 3.756972604176403 2.6362983637986046 2.6650866239199895 -0.2739412716429992 0.04116850381850974 -0.44832968599132467
Ni 1.0765643608073296 3.2581222561848335 8.18612600027567 -1.1275626906985676 1.0420794241230826 -0.1899235338694471
Ni 3.800396791202925 2.6608028499743854 6.950441271283311 -0.42003906657674756 -0.03357449352133573 0.02879789806829879
Ni 3.9246785647932723 6.857259263469074 6.077366097389524 0.6320620034483952 0.9963790938724905 -0.9445279135291539
Ni 0.7445926312447353 7.415043081158804 11.26728905540848 0.0002733082660446906 -0.23891564749743371 0.6642578714546495
P 0.05092710702054971 5.453917294119547 7.940433339509238 1.6336792057913734 0.32068212734296386 0.8259350088838937
P 8.556044496556497 1.5527507657673965 7.976588283342894 -0.3688250055967777 1.1499739685142325 0.1433243459536693
P 1.7622749492947014 3.3953329431367023 10.412621117411538 0.6568890897944042 -1.1702684570972104 -0.3179973814219491
P 3.9382390370768503 6.197189967217184 3.7969800574346007 0.32650079090726997 0.6852748400259489 1.1382646504971041
P 6.935996616508854 3.8343024830470287 10.513890688336218 -0.16574796506450812 0.5675460831531969 0.25256871950449405
P 6.15952198865169 7.519187147405873 10.029980317759405 1.2398862173953487 0.13973122928577225 0.16369493919022132
P 2.5778520966974603 8.69097254911865 5.79326021852957 -1.010955963245401 -1.1731707183456699 -0.35350740140310083
P 6.918403189394431 3.802120044833107 1.6308709955176235 -0.7192013175700647 0.022490982013664493 0.1836163607044967
Ni 5.252504131605507 2.759181685490113 0.40741505171033465 0.3437433800378015 -0.09521566337190053 0.4418409929431874
Ni 1.4828101262848288 1.1414344843728172 6.889843192712017 -0.24775947104130883 0.2602331780282873 0.6241401774981573
Ni 6.81609966629164 0.7304204490337939 9.071614013668958 -0.3997391786771309 -0.1539064923448898 -0.17257810061246406
Ni 2.7127169933674065 1.7878169965567177 9.093600384199798 0.5326209891412376 -0.9772557427794784 0.9878278618683697
Ni 6.6570280183663115 1.692027552621421 2.6764429555655918 -1.2005331695190227 1.477376188189849 -1.882002262645636
Ni 4.063612505375323 6.903218708454137 10.345724591933282 0.16549959649912788 -0.258369128236355 -0.5073164489381778
Ni 8.106618145350984 7.122198231271655 0.34969778405064916 0.19830455884429074 -0.5166539242890199 -0.33172218720720936
Ni 7.265995175553538 3.955760286028753 8.30798168537829 2.47597877207622 -1.1501835134218772 -1.1203075517980512
Ni 3.0074474977504093 8.23802751249025 12.341595141955944 0.6451987979406695 0.4846745431689459 -0.3507972015607894
Ni 0.10606851650527736 4.748393800020241 10.22759330001673 -0.5957636832379933 0.5146440929478427 0.011145217983542094
Ni 8.632851083748847 2.369645164636158 5.801050948946648 -0.03061849621680533 0.5157740927872279 -0.015157424466728736
Ni 3.4464441044716803 2.7004467057388855 11.647976533537397 0.28760539939365304 -0.09478937446775934 -1.0493273639347476
Ni 1.136499302510464 3.2235489163374136 12.608269994567147 -0.457847909894405 0.7965002485625443 -0.10353163943676363
Ni 3.0051829079013217 8.50179358515187 8.02370438338235 0.5005698742429637 -0.6529056796666239 -0.07193123892266322
Ni 5.599491625653504 7.7422357141354965 3.5716768253532374 -0.18640369364164672 0.5496689457624598 0.7881094533956878
Ni 2.9695990737786118 8.343921899178447 3.55053493932389 0.747150751595139 0.05417957136619702 0.12278611679100145
Ni 3.463207482717115 4.288447481627334 9.305632758874697 -0.31510951835119283 0.3012582142903973 -0.5023583336019543
Ni 7.28292997693496 6.079377161442756 11.366551171188055 -0.30003462629594135 -0.7805192997532558 0.33390556801177335
Ni 0.48874901414679633 -0.0765277990396139 0.19347988022598278 0.593161983949088 0.36590937461187956 0.434905956386251
Ni 4.555380371169548 0.2385289781362522 1.5681472700600954 0.7259792597238465 0.5033844608736233 -0.04469837134863915
Ni 5.9228858828275435 5.596000007041564 0.5106614020610523 -0.25507965885180583 -0.10013161261627916 -0.7197757020162958
Ni 7.678024216303009 8.845641329130215 11.075790465743692 0.9778913194809481 -0.7939034343696457 0.8380433621116534
Ni 0.12416358184921927 5.039325928600591 5.708681847687802 -0.8606718981444468 -1.1153414660420276 0.08776666329302303
Ni 7.95073135884688 -0.42120017852475866 2.525615858254191 0.28318464461813814 0.4417787722466843 0.50965203904989
P 8.61230737424139 1.6020664953096715 3.5707123446565547 0.016523965796952186 0.04117493157641296 0.3709160837978515
P 1.7697634336562251 3.307825943350657 1.6219578946733475 0.2134462995817356 -0.3634732543665611 -0.19053134265677507
P 4.695721785920753 1.0276636556995489 8.201549571379315 0.2601781564206358 0.41451633698630547 -0.3188587009809799
P 8.450195221219877 1.5596076912068637 12.264544051238056 0.20046248572755798 0.20556972504713628 0.26097519840063443
P 6.334734478170713 7.620480176233373 1.4262856027607982 -1.064130233275535 0.5681569772643182 -0.19756870911953073
P 1.8198370339049674 3.2303607304253057 6.09370001556796 0.06622441834587305 0.002593985979421339 -0.8932745146708164
P 6.914298056401066 3.956734691222782 6.105835871368786 0.4348838448990639 -0.07842250307396172 -0.7102824178138799
P 2.3866070328285245 8.560808255282863 10.138525447466174 -0.02268072942696739 -0.5464280702276589 0.37509464065557335
