# total energy = -381161.4689870248 ev
CRYSTAL
PRIMVEC
9.37259344463190 0.00000000000000 0.00000000000000

0.00000000000000 9.37259344463190 0.00000000000000

0.00000000000000 0.00000000000000 13.71773790248868

PRIMCOORD
 96 1
Ni 7.60019863122222 3.642630371130974 10.804419377549939 0.10614362313831399 -0.1630382794428289 -1.1717584113791757
Ni 2.6816302351639596 5.722221431261479 5.51782297354365 -0.23932291023818136 -1.3212865721507114 -3.286933762611514
Ni 0.37093163743436497 1.387978008399434 6.709812552430837 -0.2686566262052922 -0.3404238287462653 -0.7185986509890592
Ni 0.8555369013992006 7.492657492661118 4.321210831510362 -1.2819476653417727 -0.5019191891820065 -0.02772446249846193
Ni 5.8921090622148125 4.2548481827756675 4.661108874392725 -1.122182914443893 -0.40586431773826226 0.8728445289512387
Ni 4.02506967894405 0.4912673034706078 10.940444765213451 0.6322818327686852 0.2368024578091728 -0.8600460916349898
Ni 7.6219430482922705 3.6295087401404262 3.482823901815807 1.4981838689638198 -1.6153138159103086 -1.0747028665850589
Ni 8.31260946807331 5.967380361132732 7.7055831360040905 -0.4420104286415162 -1.0158742264826246 1.061268595457024
Ni 1.8999465592763436 2.9730241690897636 10.0126320457996 0.5274124483571045 2.1840824586166963 -0.355999057476703
Ni 0.9973283086237017 5.499350528887028 -0.15688878093848269 -1.3851633162000143 -0.37096956274360626 -0.8940684713270216
Ni 9.107817796474754 0.10898264345134978 11.772452707727886 -0.08476901411727981 -0.696144435750601 0.11018719708006829
Ni 7.760141940403431 1.6008483534403752 8.186073831394033 -0.4273528266293415 0.44138950722806564 -0.13883365717216736
Ni 1.1297443105054568 7.524018190728527 8.664343222109148 0.6099286618844656 -0.8248782854846051 0.2373529309960041
Ni 6.585071767419197 5.748342849526233 3.1686189496722927 -2.10817398021384 2.1076970405774222 -1.5562792304446553
Ni 3.769347836125405 1.7570051348214564 8.823248985182747 0.5566050107606607 2.1508612346697213 1.1986310674003036
Ni 4.264417600805203 4.331384781824819 11.115442334178246 -1.0130424134607843 0.268154489757893 -0.3371361591339291
Ni 7.9731716195349716 5.506595543712523 5.033107112974751 0.1195203015555361 0.37197640674156585 2.001185492576728
Ni 7.1199750547488705 7.998430759191775 4.084100147733097 0.1740073768598229 -0.2549202504558061 0.5821103541206167
Ni 9.460602218249193 8.431069678137261 6.527640263092283 0.4521804271959825 0.7919537668424426 -1.1290076506752103
Ni 1.2631725524921966 4.694019799435733 2.1981581177610936 0.06586112146918334 0.30953356692531203 1.4664628837114553
Ni 2.9796787105206843 5.834992477031671 7.638297286803275 0.028578325858324975 0.6313343812537514 1.9731321859839375
Ni 6.035041114076135 4.052728202553411 12.516626326910309 1.6670181862631355 0.09273300615936288 0.46073834406832265
Ni 2.6945925320639077 0.2552925780333817 7.675005986758689 0.24932141621178996 0.574988398363855 -0.17880736935162753
Ni 7.838553058165518 0.0868127106334631 0.10361683363557227 0.9137826619264973 -0.000287449333431763 1.0454912780181091
P 0.7311691456114336 1.1980517724048216 0.6032351179723072 -0.40427434754332314 -0.22470361766310978 -0.11908449956969815
Ni 4.934895454047927 7.341411950307927 10.323269788832398 -1.0527986103127998 2.0469616703705777 0.5048379054906984
P 5.846811317516729 6.319611799886854 12.071609960903311 -1.9773439100724397 -1.3851509749048403 -0.4367149845705317
Ni 0.8680661844764607 6.319096307240796 6.568176730259511 -1.5012301119893112 -1.1663320981572816 -0.48925727744362196
P 1.7229545024009854 7.388368644066958 2.1800915064058226 -0.5338319787302032 -0.8150697840346157 -0.7134610726521778
P 6.153960581224755 8.25661759411793 1.9576311236295039 2.348346640046827 0.5759258225764597 -0.10151178079325743
P 8.356463833362433 3.805357340600894 8.3935136957236 -0.5985314757911175 -0.5463956743278267 1.20397819064483
Ni 0.5150202673415685 7.927527088874996 13.37762088954222 -1.4764788731865603 -0.8695640584277541 2.3095486933430225
Ni 2.9392734596633625 6.102533160335373 0.7356070686643081 -0.10423303637916242 1.1917914187706509 1.7289321501591126
Ni 2.632367883388018 7.893345240144618 6.442110660517824 -0.41843418398347293 -1.127878936387406 -1.6008115085290755
Ni 0.31661558320834954 3.6961572529788436 6.6767385442598055 -0.6988443511802673 0.8073780718173128 -1.962796608385884
Ni 8.767067784837362 2.47814185628126 12.588329479458155 0.14705784485417253 -0.19144099895523806 1.019386353400941
Ni 6.89287711267675 0.9384496758504015 11.61641402102572 -0.3721466137708429 0.9433277225734656 1.3239453499297973
Ni 8.27709671105675 8.256851908957046 8.378533479429176 -2.0500727051957335 0.7143663580752664 1.6680617970363014
Ni 0.8097339739079812 0.5668853883504209 8.81021733109042 -1.0921274898194093 -0.3200223822717779 -0.03448157871663739
Ni 1.356851625171142 2.616912476599866 4.875174225113163 -0.2805952866244071 0.9038111525360821 -0.22455577923133585
Ni 1.9183637056309337 0.3490841218351032 4.977659786705479 0.646165789839629 -0.13689196006476426 1.1699254719354948
Ni 5.2856272778317015 2.207995591966579 6.456116127081521 -1.216447012535802 -0.4175636084530615 0.6361487719232592
Ni 1.6654067779138695 1.0031111988531074 10.851814708687796 -0.26153312778663346 0.022873562164063832 1.1178022688776943
Ni 8.728162148950389 8.344598129909551 2.2769385157096287 1.2831457994149322 -0.6924106797397818 -0.7532725482221607
Ni 5.9337140050484125 6.485075566677659 8.340247371976828 -1.627899622995119 1.2855749776817151 -1.8866991539006734
Ni 2.5944932327931585 2.358997446887088 2.905815175156179 0.9067458096843739 0.7147044581409755 -0.948857137032127
Ni 7.329930523191197 7.600714123868277 12.494623226257874 1.3967723611938525 1.193491946401525 -0.7191118431800518
Ni 6.693231497155568 1.4730249224053118 4.764170850489268 -0.27554718267753836 1.1654478957801155 0.18494639236982985
Ni 3.5674527981487008 4.738980130765487 2.495722967289881 1.1408709777716997 -0.11106779991280871 0.9850130181273938
Ni 3.6106885722625552 8.959440267752354 0.9874711519717311 -0.5996308795028834 0.507172467161146 -2.1748326578836545
Ni 3.739533615996168 3.484252285075064 4.653522697161476 -0.9847584789144266 -0.28513559769692187 0.34304506841919624
Ni 1.7014069097957933 3.2153244579237907 0.5929055826046769 0.18410101365039905 -0.968523762223119 -0.9295455811877088
Ni 9.15546806215757 0.33262116123874824 4.094854261589208 -0.6145556191335158 0.5725813315842591 1.1804207150398638
Ni 0.9652646660389421 4.6944040757718835 8.521431789953667 0.5857880600825202 0.946939351184124 1.504772577924931
Ni 7.277734549629512 3.4524042121422918 6.31925470407204 0.8609552337128205 -0.12839163590323693 0.26091040660097
Ni 3.2807076706309766 6.528854951218266 12.306525583267728 0.8428217573369032 -0.1462515469027933 -0.8652368918073098
P 1.8265029161035355 4.6974407960868385 11.711121267218708 0.4288216978653841 -0.20956521935977457 -0.21180696420609976
Ni 4.412448343565709 7.299366495576787 2.2906431220198993 0.20047585546399668 -2.037677931075807 0.6795945018117199
P 6.175742488669064 4.2666857684478545 1.635072378841793 0.6087878634118031 0.07137999440488353 -1.4411066643348536
Ni 2.7518590787440838 5.763601431849527 9.969942693890566 -0.5476742839299342 0.25651304886422277 0.16820311147321998
P 4.543777124593961 8.020128313294004 7.356439029570173 0.37780612604946545 -1.1038463209182343 0.604024894805521
P 3.887348789104687 4.147925635389833 8.745332740360876 -0.1543065559967859 -0.9618998291486982 0.18361404671165152
P 3.88378720355011 1.3373191401823554 4.903665972290424 0.3833072583733528 -0.1005689572640139 -0.2699421777859351
Ni 6.279890748359754 5.54773185686789 10.129960046560939 1.4784671072611828 -2.3343996909484312 2.8655122138649425
Ni 8.799159545202816 5.878387585236125 2.9417553224392887 1.505586589185794 1.0222418205718653 -0.3781725082499487
Ni 4.769759728031886 8.606224706673942 12.65193846020355 0.9570661552054808 -0.7980794201242062 0.6497439941091907
Ni 5.197656114633644 2.7546146212520988 2.7536848599704826 -0.06026537254896072 -0.6864122960645016 -0.06604778355869272
Ni 4.35701882522421 0.42944005276186037 2.905389659408342 1.1323004624938693 0.33970109164762785 1.36831873383885
Ni 0.17778404103157333 2.2601165847797464 2.6546980875558606 -0.004420754775514967 -0.26433125935706087 -0.8656657518146122
Ni 5.413797494828658 6.334345516970526 0.4262036962039774 0.40615150996137794 -0.5009138878459437 0.15214425823814443
Ni 8.46725726189048 4.345668614417386 1.0989525288674238 -0.4762379823658185 -1.2854471938545993 -0.6626576168470651
Ni 6.541273637691462 1.8904052590275027 0.6918061271585038 0.7246476853966165 1.638224916180527 0.14082651923248007
Ni 7.1830619820327115 0.6445673183331758 2.849407158046527 -0.5045967360141698 0.5417499480256993 -2.519483123116758
Ni 5.522313383120486 2.4864834645538223 10.391419791159878 0.057210130662404705 -0.2186021327510622 -0.19594042948748835
Ni 1.904576620497294 0.17259724775288116 2.548316338818709 -1.7509765315536618 0.019613403355553317 -0.536015102424451
Ni 3.059701914375896 7.865414911321881 3.884767576836975 -0.04991385411130759 -0.2184062146901722 1.6858625726631482
Ni 7.862396936194056 6.5587816424702785 0.9018009604938021 -0.3447947041204513 0.8116484170578925 -0.6893808917745224
Ni 3.1645812363646297 2.3343475258119875 12.230021788296055 0.3966965351960652 0.5084191950840534 0.881846989560165
Ni 5.466312136571542 0.1910003352171242 8.497864403435287 0.18252981250853728 0.39752160220052185 -0.210839715196824
Ni 4.581492441098221 4.658235237205796 6.507654144574966 0.9445237997640958 -0.0685155283728949 1.1865479109835244
Ni 6.134109428054769 3.919093763508248 8.369520793457385 -0.3562240290033155 -0.29698504083634014 -0.02003017917799776
Ni 8.800012451217201 1.8374501053870782 10.207231456945559 0.5843752388953937 0.12998263453944064 0.4472832470046813
Ni 4.253873433044941 4.100397213423357 0.2039748164887064 -0.5396555273905157 -0.8497135993607301 0.6415755993657855
Ni 1.2322523663223277 7.2770409777057266 11.295693241836041 -0.30958576031948615 -0.07899045976228977 -0.6976161352001211
Ni 7.035546731918261 0.15575938341393913 6.538244415451358 0.12417888337347 -1.1465590292954124 -0.12788949945583783
Ni 2.2272281539612955 -0.26665122417441356 12.694298834078461 1.1796650678207619 0.7080519858214644 0.07982272585559802
Ni 4.9648127727063756 8.394432209892939 5.352606643222951 0.5179680151147531 0.6669189632265805 -1.0533272291227602
Ni 6.691478822158974 6.856136545903216 6.364180356805605 -0.4011676835935414 1.52048253246102 -1.893095287235004
P 6.7247234115328824 9.007859086107475 10.084114942398678 0.6185133182296831 -1.3419330447564695 -0.4615654679553083
Ni 8.90676629191887 5.738745313716004 10.35763346587793 0.847893515432856 0.47958607290244504 -2.8938413998269388
P 2.4836998042651137 8.624735578964179 10.041206271800231 0.17626146300132225 -1.0129022883384944 -0.5208751614592191
Ni 8.326987026601524 5.2387643100083165 12.29915966198525 -0.7997316110156485 -0.14405402503084225 3.019253898497194
P 0.42421670636826597 4.6301080839182 4.526867091284572 1.139283835790238 -0.4374531482881369 -0.19564115307951468
P 4.394134295740331 5.891359254729639 4.336218228326123 0.8730322194820127 0.37811465842881975 -0.9674091890027017
P 4.527253242139436 1.740893646483777 14.091409497647318 -1.784692435748868 -0.5562401712220743 -0.3734051687682924
Ni 2.407294421525868 2.8657173453677784 7.235078001797954 0.809034119363497 0.45320655446765173 0.03662485031188531
