# total energy = -340889.5014391603 ev
CRYSTAL
PRIMVEC
9.13645398580339 0.00000000000000 0.00000000000000
0.00000000000000 9.13645398580339 0.00000000000000
0.00000000000000 0.00000000000000 13.37212393514800
PRIMCOORD
 96 1
Ni 6.95299685663814 2.1348238548180496 11.23793259484681 -1.826452293294474 0.34163996054155354 1.0642873276786895
Ni 4.89797992800273 0.37519488134383966 5.863261831033117 -0.49063873117218076 -0.6066330218523295 0.41830382905319574
Ni 2.83910741575552 1.481128839990857 4.554264699110211 0.2741659860592956 0.3201596791805906 1.8742455015183528
Ni 3.787498756171843 4.613489021594597 4.765423684325474 -0.7367167007460087 -0.9183800514891926 0.5096538388221029
Ni 3.5778354084856123 2.7761846566691046 2.6956194047997832 -0.1821166362305186 0.5898336909068035 0.4534667501075739
Ni 5.375898703238873 4.830050392093408 2.590742048686386 -0.8195237060409112 -0.5967515010725594 0.3528872513205987
Ni 5.371129474221434 4.394771447938475 11.85504342034137 -0.015984034133082147 -0.1796049255522584 -0.20235404632331602
Ni 6.039744318522724 8.16823661067969 12.306499370048565 -0.9377967654529075 -0.08024078722962309 -0.09479477378439805
Ni 1.6926651607586491 6.761131321453774 0.1698229261278996 0.702008864951178 -0.8638909193023767 -1.6171899498870987
Ni 3.0513198341234857 1.5190908065951922 0.10940355545293697 -0.2605679356598867 0.5111795314380099 0.7527534424938971
Ni 8.293396894798292 0.1379010693002492 6.955082709099215 -0.30566251400568006 -0.25891857298192184 -0.49516464406699234
Ni 8.954428482232773 2.6583152628875086 1.3272545080638063 0.17313525866751472 -1.246521463323679 0.23582158195314223
Ni 7.261123769690175 0.7137215179777301 4.694324712503986 -1.1034300593164221 -1.0958972412744867 0.3625170611008789
Ni 0.9704650134165813 7.362511000354028 2.123025038049617 -0.6006451797000107 0.3872130211856622 2.4047856968711616
Ni 7.734026631649356 3.813391466967676 3.6070236382595886 0.2547130195410065 0.660561910660301 0.07085060426397476
Ni 7.85299239991772 4.055900366986659 12.644319758783896 -0.08878276326236323 0.49237756824015844 0.1328483861230099
Ni 8.481671803538493 7.445250728288772 8.778037359283728 -1.0137098718414541 0.25590549718721084 1.1580755145754442
Ni 7.103985896374179 0.9770798061534138 0.2396153850193213 -0.47061497975208627 -0.2934112074421527 -0.40833129122151607
Ni 1.9355577918480007 6.861915546149904 9.249164094574345 -0.027916781014926118 -0.830088368930635 -1.2188774763541652
Ni 0.10462518998144062 4.940126390564895 1.2082065117089353 0.3285309339634213 1.3785756356801677 0.5771512103431286
Ni 6.565583795284678 1.9409757091034447 7.1103329910071595 0.5197960694624274 0.8723002264119945 -0.4341407960854523
Ni 3.359254881640337 4.730316859613763 0.13084315854168146 0.752217367484769 0.24033052556708934 -0.15176064964648056
Ni 6.274761326215461 5.888408093532541 4.63596835315496 -0.009653463929364019 -0.2680326194680481 0.5098153041006317
Ni 5.203201448664831 2.7441796581095406 9.510829397813378 0.864443449371737 0.6791080490936046 -0.748774146131175
P 0.35827234114057854 5.847029093111113 11.949958386951671 0.04062111595547197 -0.5035053027222038 2.1206667133642125
P 4.376800042809539 6.4367872024516295 12.166961048181408 -0.15889880335315862 -0.7871211213404896 0.5957035194240193
P 2.5755207162284264 8.756569433187408 1.2433014590303728 0.25898233634032175 -0.7179319639393378 -0.9955445137863371
P 6.4122558233102005 7.880246442367956 5.625999996578723 1.1518531878148162 0.1756737088186523 0.23079790348630572
P 5.05553807820532 1.5998205146375286 12.55161033218281 0.3799367992392231 -0.052004932312381395 -0.23890099220941435
P 4.1904986081455196 6.34979902338066 8.043132058930833 0.7525120159070523 0.10953336554615328 0.3789091293056571
P 4.901798965798305 1.3075362129192873 3.7305950930177825 0.607184009259793 -1.4102518837375262 -1.4792582357039106
P 0.33689121135779504 5.631746826180198 3.542690210666865 -0.15901064634067452 0.5525454959793064 -1.1636362964926734
Ni 0.8830172707065754 8.882387541998071 4.485010377362711 -0.8288025602396758 0.6872011105143843 -0.22241482162893306
Ni 1.9366176205185426 6.538466799645287 4.821025402776497 0.1317194147248893 -0.23987466897659335 -0.2545109308325294
Ni 6.2861270750616205 5.93158697540308 9.092723332702853 -0.41177965478143275 0.22539550152381183 -0.027519031355875186
Ni 9.067674830261831 2.165979163150368 10.271007957377082 0.900513712731733 1.5398257128743225 -0.334830650929204
Ni 2.622345043267468 5.1269942853804125 7.186513658574815 -0.6477853277209231 1.5465782011068074 -1.7542760282405399
Ni 0.6889187861508254 0.15401686061033038 9.005470196464247 0.39954068951307964 0.275648484142093 0.24220357422008612
Ni 1.7338431591908368 1.1665424539209472 11.536974217985163 -0.41624386120037343 -0.27221220476703445 -0.6598422588854571
Ni 4.178465898153243 7.18082347498849 1.4273270029889438 -0.1603694743614141 0.06340443239857467 -0.6629993164572001
Ni 6.214542957529739 8.132549621135398 7.942493103854198 -1.3984916578778042 0.18462114781992722 -1.0507067607807774
Ni 5.290491130719662 2.7363040347129255 5.157508214637971 0.34238609467895875 1.0272364455729792 0.28452573202706477
Ni 1.0223600724569242 7.822924329618113 6.832032032222236 0.14076789808040271 -0.6780857784766774 0.14329169294352095
Ni 5.1752256263441385 4.463367944993914 7.081515701267873 0.4280747923970305 0.5823998603365776 0.04969531034259828
Ni 0.9825890879494221 7.815012160405272 11.370210176675347 -0.38084542709642155 -0.4823422954913435 0.0858758740282134
Ni 4.222183830813109 0.802917064348725 10.382826277637127 1.2561651570610302 -0.6047777138111455 0.5975300311097966
Ni 8.549436883274801 7.097087873561599 4.950293436638856 -0.2106509962247856 1.5457150817755638 -1.8068571447713657
Ni 7.560013727691192 6.247333691138152 6.723797942888518 -1.7762797862051407 -0.4292916955232671 1.7451576108790394
Ni 2.74489230152594 5.405162765581518 2.5706701727698844 -0.9825902676185143 -0.0038581974038256134 -0.40553418809235314
Ni 2.438263766939153 5.446084943300126 11.256426605147771 -0.15619657393064712 0.04044833782303356 0.061002764935617515
Ni 1.2401731371614622 3.520211792751908 3.6096311822472846 -0.6747405161535283 -0.26075896862477027 -0.9223238666282889
Ni 1.7345923484234613 1.0249730983170542 2.5894446722103774 -0.9021877580000462 0.859121008717559 -1.234498470720874
Ni 1.0375448590986585 3.6860292974214826 7.933707489633566 -1.3064407653871306 -0.6406083503565096 0.30201437573013146
Ni 3.4180022812229787 2.875634959073001 7.231697992110733 0.7572996671036829 -0.38825560351756355 -1.9207053356427888
Ni 4.1478861864264776 6.831427198963702 5.864585703225889 0.35827679776728616 1.0879651309116036 0.6854681869836775
Ni 0.5267147490605564 0.11077585085220801 0.16987134933439849 0.2594155672229984 0.0379008888108315 0.32744052911272
P 0.32594391210741847 5.913843981625554 7.768749725290698 1.1181761072773453 -1.1652738320960963 0.06419144707624429
P 8.668119421467416 1.9966441236690804 8.140186783081141 0.2091327598080463 -0.27809797412385007 -1.8232468989832986
P 1.7383017487703591 3.5431077466172423 10.11911440868946 0.45020196331337303 0.5123157019249822 0.3231393306342048
P 4.373812422333097 6.378487489117751 3.687844710842489 -0.15317604193676848 -0.22026769337894322 -0.6190478505769145
P 6.872267148595803 4.210836354875062 10.305133526923138 0.5210561671217736 -0.3492206011022889 -0.06321597053685242
P 6.605418734970575 8.086940442485858 10.154938445044598 0.08327623162183723 -1.4066597955108935 0.15722732918800664
P 2.7100915480251184 8.619138891271064 5.574450295501713 -0.16492984003858693 0.2854047921979085 1.045582809290651
P 6.970940852404906 4.146643628674807 1.4100499683682945 1.3680513391100761 -0.430533024129536 -0.449891888272122
Ni 5.060051486509181 3.0030062650732505 0.9942225348994341 0.9448883821923661 -0.08593166696681329 -1.614537599865916
Ni 1.4128064365571098 1.2168386335014205 6.724867821658522 -0.0015079520040941772 0.7647723213316442 -0.1223289746489248
Ni 7.2033265613293995 0.7872434774149735 9.195206937853474 -0.833143867927507 0.5612486801802592 -0.032982368463291584
Ni 2.4675461021899103 1.8506253149397212 8.929676914548583 -0.1946268528823874 -0.5913686394940912 1.9809246854451625
Ni 6.826703652216544 1.786003175398815 2.488378131083904 -1.1281350182622703 0.590618391591628 0.017688675529014698
Ni 4.382373279783942 7.284796322150303 10.033813732682708 0.008846394647036378 0.4013155220253153 0.5893996886931785
Ni 8.252986358506842 7.098430932307889 0.2856914364711441 0.3403770346687299 0.2566356904850161 -0.6433679153795178
Ni 7.580168745339607 4.107576151129648 8.055635296307013 0.5027725383212374 -0.5391209950432845 0.13913396202140554
Ni 3.1425199185144543 8.26516525176402 12.24072238271493 1.360642705350831 0.38760562863839054 0.7473574682893065
Ni 9.041617663292982 5.171982185154118 9.951173592097179 0.6000422560086892 -1.168423947689304 -0.9376661534123142
Ni 8.499040202699707 2.3909186620188962 5.6420737602001445 1.352547329937206 1.2291464623803412 0.20118470860556317
Ni 3.4771882306003277 2.943061990009221 11.31034264782539 0.19674235656349343 0.39693050558374215 0.43653757845240304
Ni 1.2750469822947348 3.450454966031306 12.56912765554514 -0.11411815670335829 0.41556971795148434 0.21767962093679286
Ni 3.0800631185849148 8.755738015868276 7.920857067003241 1.3276042868386233 -0.12529499925578422 -0.3488295363114573
Ni 5.655163557926747 8.25983869904914 3.4841474676550863 0.8936046443167255 0.14575995197835542 0.006594108277749934
Ni 3.2370273992738396 8.134915962736004 3.4286124453186746 -1.2150125940821206 1.245631861629874 0.019197655974373385
Ni 3.714407123720656 4.534221146201284 9.209314536561957 -0.30115948392900393 0.2089836358246917 1.020103948293256
Ni 7.444857860764348 6.212249707561583 11.384879667308299 -0.9647601814156288 0.7019594997704814 -0.08661995128308954
Ni 8.147021764360733 8.792658426710181 2.4833640450977525 -0.11882404681945986 -1.0225850628438968 -0.9192298010839975
Ni 4.878300005965248 0.4971108106270143 1.5228175662047971 -0.29492095921845984 0.11637584238928343 -0.1931016744871126
Ni 5.869733181441264 5.91093858923562 0.3689035190806037 0.9999467566190908 -0.03041795017022503 -0.39635817802004
Ni 8.288280480526709 9.114024061689939 11.193310153235359 -0.5446871762771522 0.1942851532722525 1.0110521225036329
Ni 0.18220190772891376 4.999842254277516 5.691711201443153 0.16391656828272416 -1.586257007753668 0.3079271416701406
Ni 7.480088027605819 6.404215743740569 2.5864095421728424 0.2747393420642623 -0.6738416584883427 -0.3197076792448365
P 8.806646337870529 1.4338750996111644 3.329846463323602 0.8730268201653739 1.7751132767008655 0.9578552267656792
P 2.031974791505173 3.587958599580102 1.3966915588924345 -0.5771236995393029 -0.5623969348520895 -0.4172213946222944
P 4.982702266467712 1.0465534027982673 8.134356811747754 -1.2031945184012698 -0.3442288043146523 0.38746113264072624
P 8.757263803695695 1.980774102973116 12.532755431946619 0.3616050908095708 -1.2012337951304732 0.0042672599167862
P 6.45763659060833 8.043624513804472 1.1680700690391772 -0.13655077467526158 -0.17947508484261349 0.6390147806171446
P 1.7046978707509257 3.413415781286667 5.6577190241263215 1.7281826735875978 -1.344759458461671 1.5954577004163297
P 6.978085559477009 4.0792348706467 5.875965156753133 0.2813023399937607 0.18292576239537528 -0.5583675019777222
P 2.524310891242313 8.7195028390806 10.150485337337509 -0.5875443806519945 0.37164319177186317 -0.545256675627377
