# total energy = -381163.76135781273 ev
CRYSTAL
PRIMVEC
9.27261242093564 0.00000000000000 0.00000000000000
0.00000000000000 9.27261242093564 0.00000000000000
0.00000000000000 0.00000000000000 13.57140556806892
PRIMCOORD
 96 1
Ni 8.945919730016776 3.623514387310769 8.12282516226721 -0.04839921723899406 -1.121275315027959 1.1369932399838483
Ni 7.850666569930215 3.7442994365694493 12.290495390796021 1.0601200836748776 0.39914628228813837 -0.25639966321481006
Ni 7.9882721381014745 7.860653173496283 6.9430632671941765 -0.4186678972608338 0.744429496009234 0.8574454207873491
Ni 2.242377313997248 8.432726996159747 3.015268103634092 -2.1646369482975754 0.5093383644642131 0.32284339666034073
Ni 7.220156743856018 6.169226671091467 12.58095070194134 0.8923049516686955 -0.07882513782901909 0.1547176753922755
Ni 5.957208388326249 0.7244506624045892 9.574165184140337 -0.9922645574834846 -1.0682959346174505 1.4642568771990716
Ni 8.922181842245994 7.201954605694281 9.39654272985049 1.0735466414934285 -0.9550707220420068 -0.7769143560108168
Ni 9.069736923533679 5.699133039718266 0.6721930006429475 -2.1586028262883534 0.18309802630718144 0.21702758917509077
Ni 1.385680653394647 3.3927561548640073 3.3742860382036075 -0.2928712757782827 -1.758988603224861 -0.10046431336534956
Ni 7.9861672550842995 6.865312412132452 4.976091814400067 1.2599994432054558 -0.38707109629115916 -1.8150597351868158
Ni 5.2848512624436355 0.40139562780781 7.336512266166221 -0.9016138877744473 -0.045881850133779045 -0.6242908441434086
Ni 1.0254767516978334 2.84450367348302 12.154184279317263 0.05891991426465982 0.8965192468603592 -1.8052134385203555
Ni 1.7553426197501325 8.321566918583127 10.656430196023566 0.03126769976503002 -0.8324586689350244 -1.1829535087640466
Ni 1.057847441622757 8.642278764023782 8.193722629496362 0.42738188009506395 -2.385298277570511 -0.9069651247840316
Ni 3.1954998710562452 4.7185357320870684 7.344546057558645 -0.1150820632785244 0.183381104765239 0.6434368209442403
Ni 8.058549267560368 2.728781470600452 10.074257571183866 2.6584931579657893 1.1616958849368508 -2.784511408540843
Ni 1.7948254033938806 4.401514386385777 1.3225619807166313 0.0957792491848544 0.8387740696300909 0.854751933115586
Ni 7.7510138043549786 8.095843714675246 11.195350720274664 -0.8492425732615826 1.0906434490747152 -0.1563158731173308
Ni 4.905276873421367 0.43465648852413785 4.755855215255456 -0.4209453804411008 -0.09359226883586462 -0.2653350180312269
Ni 4.905823957553584 1.2540930106777786 12.07663742172857 -1.5466764172475684 -1.2424490930265182 -0.13731464942447966
Ni 4.967384831346642 5.847318658649861 8.323478931262164 0.5702807084755405 0.4843922360418367 0.032901635824027206
Ni 5.029260973961657 7.434177910901896 6.621258180750329 -1.2727850250058983 1.7366536871730862 0.0903922738413282
Ni 7.870259599953521 8.067478793311642 13.608048306288522 -0.016460716659184554 0.11575286409330389 1.018014669864395
Ni 6.218269518130401 5.726904513887599 6.039167154899841 1.3725996206023912 -1.3684375188049014 0.5399576320119668
P 7.465908790570498 6.033160356580344 8.30183201758994 -0.3781956481784003 -2.966466065272201 -0.6822890179247475
Ni 8.85228488989593 0.7544846540020762 6.824164267299785 0.9587985645155551 1.8811134322827796 -1.1916926884092571
P 5.62900427205794 2.027299069136578 2.6973714233212527 -0.015569572303482862 0.40921395093678553 0.2209428650690969
Ni 1.220915603473145 4.965252130492236 12.798744894977034 1.3482070506906394 -0.0329204048771046 -1.1919886223831213
P 2.0323155524506378 6.170738106914372 8.825064208903777 -1.017264679072248 -0.4008419248230064 -0.42157118695055784
P 1.2233450279246858 6.4602476115938225 4.52344460327715 -2.256650045571778 2.3783431864089164 2.3169030768255645
P 3.124072937658455 9.149852294760072 6.276938264112636 0.34967825746499775 -0.13682022628656437 0.1586794882535009
Ni 7.795503798700375 1.2729071412586064 1.8022694566369997 -0.870635437115062 1.0618254964017584 0.6601927002463405
Ni 8.02730983634952 2.3072948734828937 4.09263346711963 0.903054991096348 -0.2783946794286625 -0.7477151087390413
Ni 2.461526235706111 6.745528805014102 6.413290175086001 -0.4369646386874926 0.4607442576055936 1.1072561179307316
Ni 5.776587171182856 4.437575576050064 12.736900279244216 -1.4237509466652254 -0.31102994896518044 -0.12418094025599903
Ni 6.515048750939654 7.6354955989454405 8.846954992282397 -2.1920266531644375 3.0686938982958765 1.0846815750643255
Ni 2.1239104178411834 3.791107584017462 9.29190686236587 0.7477817003109186 0.20230596669419998 -1.407540141233318
Ni 6.333249912020132 4.255860190642237 3.8117326558020537 0.20476419842670543 -0.679690661069952 -0.3237000882336812
Ni 2.525052903330188 5.576400741853388 3.30250674553422 0.22360138573786653 -0.4193631235556455 -0.26141254304836914
Ni 5.481866458328725 6.476576682048646 10.833076244226595 -0.6882812309524404 0.14695782894119852 0.2763740494542079
Ni 2.6907359418803263 5.466371922990843 10.895870375470244 -0.48972933198403396 0.8587299439267276 0.20437159097397709
Ni 7.359987739005788 5.255531262001754 10.411724099988987 -0.24289905762521394 -0.45768387351271494 -0.8575356665083103
Ni 6.125024127730793 2.690865758454072 10.822707609029214 -2.3157203693713733 1.439796173053546 1.0338269543063032
Ni 4.8641621099933765 2.2110822471119382 0.6020113790918824 -0.3935482193750706 0.6797454255672873 0.4967954948021959
Ni 3.643181598233359 7.3371585672512305 12.179142442881265 -1.0155230137907931 1.1276177123062192 -0.02013045220128791
Ni 9.143324375623106 3.085229964271029 0.44210981437966734 -0.045490271122315205 -0.6025030588443558 1.5469263284748456
Ni 6.568264273563296 3.9235019440140415 8.31069478053186 -0.31759628932878853 0.29296409260240514 -0.06678363328345273
Ni 0.6786319027007723 6.83997963502707 2.489728886352532 -2.0353665093338105 -0.3456066584987854 1.9637088357875083
Ni 0.2831577651782836 6.561884716224898 11.485222784099363 -0.010693989378736422 0.40333743755135054 1.2513355968828708
Ni 5.65270506937908 9.268606641900861 1.4968175494402418 0.4277153521750827 0.8249695596468307 -0.6408235516911092
Ni 2.270825688872546 1.0915626603471975 11.850429260191621 1.6128067332177385 0.6356900871192858 -0.32600199689398046
Ni 3.616773198088363 7.513393838724475 4.559177542462107 0.7511462459077773 0.573073183619013 0.07788231429977555
Ni 9.194462833066805 0.8855789937387084 12.852026253148791 0.24843901360683662 -0.5300959087265387 -0.3624414706679371
Ni 0.9078490269649154 8.628814930803792 5.820992784755318 1.4013208997964834 -2.635742751643151 -0.9416824736605588
Ni 0.1197224078764414 9.08120714508542 1.3639938674890584 1.7839447589495663 -1.2508632852321426 0.39029294566256656
Ni 9.095180971987986 5.588399502312527 7.1677924470516565 1.9355285166985505 2.028288519441107 -1.0242853333644553
P 4.515799334344724 8.420097698056699 10.543774446065138 1.4122907685444257 1.481010956728959 0.9812792621165746
Ni 6.37653446675217 2.137448431960458 5.641429572687959 -0.6821514639056188 0.5867103147864734 0.7063488870874287
P 5.127328122814704 3.7791551866203767 6.531414911844119 0.2315556075879367 0.2846596865017678 -0.5603369669992672
Ni 0.21402487609084175 4.426698801692592 10.427127763725245 1.1364381388113267 0.9402493407584581 0.6922438151446143
P 1.0568552720948374 2.116232694765321 9.99842058332366 0.0856187637120848 -0.8561303015203514 0.07885521973600614
P 7.241743385547574 0.08624271350722665 5.254346222135698 0.18569844004450597 0.06496663467937198 0.7827121936395165
P 1.5558516363514492 8.70341309764596 12.711249451533154 -0.4288389242565646 -2.449386623409988 2.079727809058005
Ni 3.408788501721696 7.825713969933662 8.922615800506803 0.23751156806105544 0.039433009184641765 -1.9781900601228188
Ni 8.565482988040335 0.2732369971603301 9.195631182230523 -0.32724229705898483 0.336642250216646 1.5634891179295332
Ni 4.307721911853952 2.5883477556440027 8.120844532256335 0.9922087645448847 -0.3624057323339952 0.15619863081317614
Ni 5.764690409460233 8.425642720278153 12.72385742262766 -0.02915528140771753 0.41989534191003175 -1.0936678377233358
Ni 8.538416232414196 3.9941685231941735 2.3756609175239904 0.9941784866767459 0.9564778868021787 2.0427707722176818
Ni 6.733984402563076 3.780165901373117 1.2261481386563686 -1.178063527661597 -0.4685928071157349 -0.30368970655002536
Ni 3.5450959041554904 9.041455455681769 0.31656142412573257 -0.6460590890584357 0.4985834399405542 -0.7760797759246634
Ni 5.401027823334316 6.6363159760436785 0.49543753561347637 2.303089310870924 0.4220064747157635 0.8291146921634559
Ni 9.0164008569487 9.17950610924873 3.842065225519157 0.058932255559833994 0.17258658525289633 -0.5984867385961112
Ni 6.9871545392059256 1.5634829963652597 13.122314559562595 -0.4122288265037094 0.22159643949269578 0.31865121295586407
Ni 6.704655129508785 8.46887163933573 3.3901375691192923 -0.20596413227207755 -0.8727288293089809 -0.01762619772219545
Ni 1.739718267838504 7.144074959028177 0.691984464571838 1.8547202870012316 0.41752452768500997 -2.3892955716553623
Ni 4.14575719088041 7.633798710874325 2.1400883447137167 0.3890228207008913 -1.1014256272918836 0.8507142727111027
Ni 1.8306918681975481 1.3787076488619798 5.052647429722083 -1.664459938617656 -1.7162915785769668 -2.93340990614818
Ni 4.144190119383041 5.241177257990358 5.097989577148002 -0.7995513766840424 -0.6351583829855318 1.1604285881886531
Ni 1.4958021983812964 4.555124483577494 5.45404954835858 0.37238418370294574 0.3278390501027193 -0.10069982641492335
Ni 7.238739059126584 1.5664687775614285 7.910039107194405 -1.830861220995447 2.257303105774745 -0.08552234734353659
Ni 2.460858607612558 2.3889216805321927 0.5064357811935256 -0.06501291453627514 -0.6391965576106476 -0.1529490135276269
Ni 2.8675461153230186 2.668583670831732 6.247990095428415 1.7196545815119288 1.3578983098364743 1.7152937334400715
Ni 4.526036298445874 4.245641771765908 9.87520610961344 0.4084413344368191 0.5738655976133215 0.5694926653566063
Ni 4.181920379281212 4.904414520467194 2.159278943358409 2.5541058553969496 -0.814100735253127 -1.3795598539703078
Ni 3.83580157583589 3.2539173292421566 3.963637519571486 0.2171988246456324 -1.5456263787164994 -0.5515077987434114
Ni 3.6285030527875977 2.206084309022699 10.315259258560467 -0.24939777797568016 -0.45402056572851485 0.5690386085383232
Ni 7.6786225192665 6.390962651662849 2.5784993140028507 -1.449033375381098 -0.599428019463458 -0.2979566607209901
Ni 2.3223257782002533 1.100278916013032 8.409819934460941 1.1333736409533899 1.5330796523997403 0.10802284243889784
P 7.807734374469776 1.1200295804473162 11.149018257843307 -1.1777670794671007 -3.3031836488114723 1.7030740514454283
Ni 3.4211118036152004 0.9489406088618786 2.357950227820008 1.2169167530833687 1.481593054484674 0.36383809390514754
P 0.6751203643809304 2.930599879714162 6.503200206801565 0.005438140296435796 -1.4952435553885732 -1.3043283470298181
Ni 3.7148310743290005 5.5354807032860185 13.50194736604305 -2.839808124230619 -2.1149256971153774 0.03410259811066385
P 1.2054674311973148 1.1982255209047439 2.5907131990699113 0.35214086007287737 1.1116503903436854 0.8611665783926781
P 5.305872274778153 6.154177221149286 3.6177292044278815 0.9213175368509616 1.6722087293251395 -1.2651455061827694
P 3.816978172642652 3.9362610586908375 12.073326171836793 -0.364458758208282 -1.430340426957285 -0.8543364428447222
Ni 8.018639943745738 4.123669828118689 5.6846139832059635 0.5144905980891139 -0.7311633750279473 -0.24317082322936187
