# total energy = -340859.4748574945 ev
CRYSTAL
PRIMVEC
9.34559578127469 0.00000000000000 0.00000000000000

0.00000000000000 9.34559578127469 0.00000000000000

0.00000000000000 0.00000000000000 13.67822409319482

PRIMCOORD
 96 1
Ni 6.534356244141319 7.773479402269002 9.71342596121461 0.37944443298383684 0.825337741619527 1.014857355182336
Ni 6.315192684711409 4.5629309159650715 5.885808366159401 -2.257341415211848 -0.1285685278007334 0.8056736875316963
Ni 2.2258498193245937 8.594461927757864 2.7277662388996493 0.9659714281149108 1.1109605633655126 -1.0616815146247265
Ni 1.6238719781426068 7.571932290305102 10.651027499809357 -0.5856494776221268 0.3714966388916699 1.6071716464191481
Ni 6.50162796879598 0.7401636849601856 5.565601163038379 -0.06688519185832352 -0.3049976267281715 -1.5665746988333924
Ni 4.716123916953305 1.4441561772028955 2.1451150891551722 2.815268230107726 3.0830864195721226 -0.15649019391166596
Ni 6.217746160717735 8.398110966876775 2.003873235657406 1.0208737365797451 0.22917296628837305 -0.520337286677878
Ni 4.815570398378135 2.5264976256808342 12.704798738814517 -0.044710455533497194 -1.8032856253700233 1.714242923578054
Ni -0.17384676698286566 7.994203676142851 9.097933454419575 0.8167728827686515 1.252306188326256 0.6461853302236549
Ni 2.6535696873229173 3.9695416770224807 3.53784525815053 1.224937309395 0.3205443162135189 0.8162149533826524
Ni 5.218739387069718 6.425321181761516 1.4757844759610996 -1.0609014419255924 -0.8153963141360989 -0.49730354478686606
Ni 4.0218115925012015 2.4378546526224274 10.403848648830984 -0.3389863249687904 -1.550840318817271 0.13170424521623766
Ni 7.647594231251951 3.652165254770136 1.8749694373026773 -0.6751920018686501 -0.976925098912937 -0.39842508785139763
Ni 5.905276176088549 2.2303730875333727 7.129979080401881 0.5431594267787162 3.4938206638081764 -0.4916412042947662
Ni 2.360089952694225 6.046712417972147 5.343275054100514 -0.026240935974399967 0.3304595184447019 0.5641386001335446
Ni 2.7897723957418123 1.0987242773415538 8.5502301589452 -0.3451333184067927 0.07500756385514179 -0.18671531134479455
Ni 0.06834994704902086 0.4600014238800681 3.1960945883458787 0.2846144350861292 -0.2545759797425099 -0.8209496398541603
Ni 4.851392065824932 8.010651924174775 11.574157383814653 0.46042904035801996 -0.4530000948838005 -0.07986360639586246
Ni 7.503410384299384 6.369939182990392 1.3041638298198273 1.282479626585843 -1.1526003503934859 -0.3450582421944831
Ni 3.0271505207479827 3.2845749480430606 1.1970539601073973 -0.0831042248203472 -0.7544920224515587 -0.7275280922682051
Ni 7.9601483262403905 2.287110197648037 4.022929325719734 0.4557162082633829 0.7377086323456328 0.6831081713919332
Ni 0.9278167001348473 6.970692751165457 3.2871094735352524 -1.1478322395808813 -1.021631440681376 2.317237320236532
Ni 8.865512233252115 1.2738046629268138 12.349616579196525 0.5425883847665945 0.4865529911385814 1.0874082299668693
Ni 7.041336107343474 4.7612537974908955 9.31329709473029 -0.589998498619442 1.8627215600391531 -0.4351795217626118
P 6.698810687674137 0.8363719175537299 3.233887241877865 -0.7001358162981813 -0.36417593686054056 -0.09222649883658955
P 7.473541861168687 2.9019849605823276 8.31915003072807 0.5600991399568483 -0.4987855286490313 0.5756394016842925
P 0.2938264562207286 7.4709998592001154 5.4434000257566595 0.840949737125171 -0.5512216349615604 0.7098936670158936
P 1.0618465576063432 4.366654719847764 10.985500754419428 -3.1179670334993914 -3.172570579776884 0.5275785416213237
P 5.519891855581483 0.5319550325433559 9.731714356995104 -0.07515000297027703 0.3504146214103901 0.18930492644884173
P 4.4401952106223135 5.98463897284258 9.851918340524312 2.3809957935404156 0.7811358502913323 -0.9881497639841628
P 0.9299745981294899 9.076797455698552 11.90579985755605 0.9223727175883534 1.2516976082079796 0.46550542643966286
P 0.6791397502022016 0.693654394530827 8.819991706823766 -0.000844864498798545 0.43849341662719316 -0.5699292386733926
Ni 2.61405650966441 1.3422611497642232 3.76803568567866 0.3740476874482977 0.9567072292041653 -0.9408358093895474
Ni 6.874021911596015 1.1300694045569355 0.9482704703863631 0.628860208681646 1.0931402473546399 -0.5439101889018116
Ni 6.529851667123485 4.964726102122169 13.446760516343646 0.018034488904207648 0.2550614040193607 -0.06124881950815258
Ni 2.118468927343456 1.2971593060130509 6.053284240708538 1.9134417121018399 -0.1868433522822266 1.597013989159856
Ni 3.6570530012023497 5.414183825189956 7.6858625755934975 -0.14952970343343283 -1.3778094469381044 -1.1795120871826654
Ni 7.784843646363786 4.778673987451979 3.9852460156547784 -3.2724592231444225 0.6578907915860411 0.38650031138935365
Ni 3.145213428354398 0.03034608305935185 10.746009590276884 -1.5681564414982152 2.3601917123108707 2.413480396431682
Ni 3.7220609633103385 6.908778181158926 3.242176785062136 -0.17498002518573735 -2.12480104724756 0.7016265419110949
Ni 4.56745418417385 9.018583741499205 3.431880223883504 0.6651168770208351 0.634682471790378 0.8565041399200024
Ni 2.1240202110542303 6.596532490821085 8.84449025079586 -0.6991721668333314 -0.07198163254462442 -2.1159166002737364
Ni 5.551190254819502 6.514001537201813 7.985771145347848 1.4628029183613647 0.6400866735250847 -0.7560264568182141
Ni 4.715245430978873 0.02949843754997942 13.614524235233343 -0.2833952179670474 0.02650267427621887 0.33124447623984243
Ni 4.914185121805895 3.673099388628948 8.630767697050146 0.8455306716276341 0.5133096904071354 0.412503934541967
Ni 0.588080006154559 4.580070738061973 4.268070836885064 2.4914688972920187 -0.9367562400035351 5.434792977230118
Ni 9.358212026572009 0.5097657852125625 5.897557648787659 -0.09145671055010056 0.3438927611314722 2.105402331005974
Ni 0.8376560023716767 2.8312014204722202 2.6961005577595545 -0.8744676663769585 -0.4050495351464508 -1.3520958442220843
Ni 1.7478599932787038 5.5556574494554445 12.949270170784455 0.5554230746374177 -0.5882766308323287 0.5002726547175191
Ni 8.061772331410355 8.669170617966499 4.76173135741955 -2.137925757554976 -1.875620013268376 -2.773001608129031
Ni 7.245471949253309 6.69617522975084 5.828906773564418 1.0734162865631514 0.5305378813599637 0.7962948174199577
Ni 9.284522006269897 4.027605861694266 8.844161285835222 0.5898933405001454 -0.3545409848739378 0.23747582972711356
Ni 5.327746412663102 4.16237869400584 11.369667343836403 -2.338833301239753 3.845924757105847 -0.7613257575439405
Ni 7.398178979276964 8.902062857145781 7.596502795362336 0.39139852002191944 -0.5955027162671228 -0.3455616641934629
Ni 5.158301421147871 0.319560487914311 7.373383245368839 -2.0567730000340445 -3.094015150669484 1.1206019431100185
Ni 2.480003288204232 1.2545714274440303 12.844960241475642 0.266074981521045 0.8138284554283469 -0.3205047212248351
P 5.66821580132845 3.4072826165994 0.8320103281466282 -0.45235551932126616 -1.2909868927259058 1.2941897159339195
P 4.289731123512103 4.7123669875732865 4.965413937948959 0.2894979884306756 0.2677922213224678 -1.1497777933430262
P 6.582252420938825 8.215703634440931 13.066697577898728 -1.8229383666039443 -0.11111793642445378 1.5183580299188495
P 2.999908109945109 0.9417463101868825 1.3886405364165113 -2.1975285568192735 -0.4663978563469452 -1.1104445429610423
P 7.290106513230847 5.122386297746347 11.493182471841584 0.7901416533343683 0.5215565037969597 -0.9184564132530827
P 8.34004678220499 7.968372450256353 2.23756545780915 2.292596124649084 2.131867724286354 0.9725912474242733
P -0.021526644611780065 5.119741494227577 2.557417528302209 -0.8668600292330297 0.6687812132462998 -5.291568904299739
P 1.553256658751007 5.0120335064048955 7.366708621082248 -1.127046927404414 -1.11249088396711 -0.5124200887133304
Ni 5.60048827093791 2.846752491338766 4.47697853984325 -0.8368665681947329 -0.5649029891033949 -0.7054981090513591
Ni 4.0131388799025505 8.419381542172605 9.104048277537352 0.7737848092428997 -2.8132997935274453 -2.192654516556424
Ni 6.627429029453777 0.7082466073018757 11.722729922401193 -2.297806208095113 0.2417664866826675 0.4033927162693181
Ni 8.86111045778448 6.214942482075929 12.696524148583002 -1.2074165269024173 -0.06646018850576295 -0.4762302690563347
Ni 8.129163420363879 0.9496433383613003 9.988892060569702 0.4558666177983181 -0.04084557326145224 -1.6818192558317102
Ni 1.0784630263567752 0.18850159524358126 0.8023427353185933 -0.8500329303733619 -0.6593306093563612 -0.31938603423935963
Ni 1.5329019518115017 8.489267905117334 7.3225002162582635 0.3212752808422725 -0.1881553862254308 -0.5644497036160602
Ni 5.100723207440665 7.731564406574016 5.397290726813532 2.9920187169303243 -1.3382733365166952 -0.12445733384583728
Ni 2.707017147831196 5.3851564056517995 10.760248539539067 2.5826795532695845 0.2283846660591228 1.0497582808245791
Ni 2.8943963370585086 3.5638587231487455 6.076112726769662 -0.05646039698057372 -0.05602870875979382 0.3699346937211887
Ni 2.5679359960067147 3.42497382882919 8.720551767315767 -1.0646933048678566 0.816472320809097 0.12744135617482566
Ni 8.459296580436437 4.687974983389581 6.312431995808778 1.636481194016543 0.3467140326303513 1.3357428567853575
Ni 8.591125550174116 3.5484571818097628 12.266918339418291 0.998093762570752 0.03735144406526471 -1.525147542036857
Ni 0.6047347918464289 2.965563046582996 6.951916515301288 0.18662686539604634 -1.130332025913589 -0.14766925318592633
Ni 4.151435001707327 6.076309918834136 12.946015099881318 0.16468378546605186 -0.420247840153444 0.012053074509792146
Ni 1.3429340326382564 2.2093081153379432 10.636022211718416 -0.10849849652373572 -0.3491059299012955 -0.18567864255016409
Ni 3.1973898878783924 8.63905910935351 5.138471002114383 -3.7162324001133156 0.6064394177842846 0.721791446894744
Ni 6.996075388469267 2.974787149314535 10.789532962952721 0.6356168106791892 -2.8454750927084094 -1.411357458096879
Ni 8.255973805332726 8.38078423287042 11.893530025259963 0.7631250155362083 -1.0265728438470514 -1.5719953556283315
Ni -0.024201354036062193 4.336898343862739 0.3683323470076064 1.4154599103010268 0.27915495463345474 3.73944663344625
Ni 2.3981825998408843 7.917653903626097 12.927563156180051 1.3439691013498918 0.2754363681312869 0.6559339249699865
Ni 0.7025981293981854 7.1410068830596485 1.0029758480452655 0.0008790601708436474 -0.5930300863569141 -0.5794029824917828
Ni 4.671302441066314 4.366673411038709 2.5533138773301536 1.2328501364841735 -0.15237385775044726 0.25769472787714975
Ni 9.239018301913399 5.874884299611381 10.233335455753224 -1.4246215221956366 1.6792126714467983 0.19836240866541968
P 2.9889270352647057 3.729266417419778 12.59303476255669 0.8367058742471525 -0.3090314304779129 -0.09983644997336354
P 9.404472724161794 2.0071255028819004 0.738124476028046 -1.8349055662681497 1.7599160001351366 0.03548250917732599
P 7.886934931307385 6.601868825835988 8.322022866776372 -1.3403384465758401 -0.6425503045742288 -1.7189611549893298
P 4.285759245436212 1.3154392907576202 5.454683897730378 -0.348782999344238 -0.021945651033155756 0.053406183535282224
P 3.627147095689761 7.450691880237974 6.9553080318983245 -0.1339372483118145 0.809823962254644 0.6615672119963638
P 6.312108638205423 6.463563358435739 3.7646161322952043 -1.0255197199921886 0.30853597889873313 -0.2998590199500255
P 0.6158261445534102 2.2522885089168163 4.887790356512394 0.7715556628020647 0.8393024313297353 -1.4819874617096154
P 2.9585538499784834 6.762491575225005 1.1155257888823449 0.2199743305082405 0.12203766866075111 0.00032524454990266564
