# total energy = -340896.83197372494 ev
CRYSTAL
PRIMVEC
9.02777361283099 0.00000000000000 0.00000000000000

0.00000000000000 9.02777361283099 0.00000000000000

0.00000000000000 0.00000000000000 13.21305922372496

PRIMCOORD
 96 1
Ni 6.479350587215347 2.0363588155095655 11.453318094720172 -0.04869412277159355 0.13429411743060096 0.10692112473428683
Ni 4.553266028160429 0.26027071744474245 6.069630491870249 0.14118724500600846 -0.0215728410747693 -0.43308407268616383
Ni 2.7324272555769253 1.4652618475749695 4.802920986443074 0.0950030331404622 0.26784364338569355 -0.023419407365204828
Ni 3.3007707525153145 4.230830060617716 4.757943714803066 -0.050217244284339324 0.16030802499585942 0.08501275469696973
Ni 5.301000417445142 4.544220198854858 2.564906080167694 -0.4340400088415299 0.2226297658532166 0.28214154806560443
Ni 7.265759959279568 6.104382004174507 2.5396824802876865 0.689666027115109 0.2755422975815319 0.052247130230174535
Ni 5.152087289306015 4.4785612003125195 11.36893910451313 -0.3634305740540838 0.18513845377597793 0.5967273327028433
Ni 5.647477346505556 7.786680560666891 12.373858518172081 -0.08043130597387439 0.6310531025679067 -0.1570085283089812
Ni 2.110630310217089 6.539945004679415 0.2246263583158116 -0.5775952398590827 0.04140581664029643 0.731621031390656
Ni 2.8612355315568623 1.587353459878913 0.35203171825374685 -0.262907896646973 0.5892999298905206 1.395247954129526
Ni 0.3414872785043379 0.13602417554475088 4.785558771951582 0.27971442668135055 -0.4538714417451603 0.6426793739529254
Ni 8.584004511204602 2.3834044943167383 1.2540327055161125 0.353447751809759 0.6425677880757257 1.313649624430744
Ni 6.817810853178608 0.5608423197228208 4.863594848316215 0.17068268336196413 1.0148509274244328 -0.14127466251349216
Ni 0.6276018038862661 7.307639801743188 2.3561261731293976 1.1373719634795056 -0.1727323668021412 -0.15083325273620476
Ni 7.509284156403118 3.885761464263558 3.8563498801371887 0.4886438122293391 -0.25302611875688685 -0.11522295973176284
Ni 7.758522934315516 3.921014920788765 12.624892920284957 0.11486969015740216 -0.23376932740980386 -0.6129270823911573
Ni 7.769545846074102 8.91407797534663 7.098280311629623 -0.18845877639846254 -0.21024116238087662 0.2632683653101853
Ni 6.9391441324868754 0.7817997907833587 0.5053982471877224 -0.9293044117111802 -0.3853407438636138 -0.8634754290315129
Ni 1.8687311123699895 6.344746480482737 9.198641529196925 0.7018468854520171 0.502163958202961 -0.42582507713090534
Ni 9.372363882400565 4.880712410138864 1.2270929258446985 -0.3973524236125092 0.23754807772594574 0.4956330990629786
Ni 6.381832575080829 1.9195303953065683 7.019953540949983 -0.38307663041978546 0.3599210182389285 0.3633377572299613
Ni 3.4604630425215595 4.354320977854159 0.594874318458563 0.5398028516016575 0.42697924534000653 -0.5502975804853942
Ni 6.081505625471595 5.666074560447152 4.9135798260598165 0.19654823827481635 -0.14056323826876438 -0.5839849454355104
Ni 5.264266406023614 2.802085557894082 9.338699314056774 0.33978979470669224 0.5064003648818117 0.23319288608104355
P 0.4117369000026474 5.5002524120591865 12.25454475185349 -1.0301806158029678 0.628238515937247 0.5838648749178783
P 4.0830183208770725 6.066727159829658 12.494281797885536 0.2414353285954939 0.3567937854638565 1.327525868192204
P 2.382239911501949 8.604976029644565 1.6759709898653625 1.0318199511786035 -0.7765903970124948 -0.8520005956226939
P 6.304554831711875 7.654333397373796 5.821410046837759 -0.19642688220560364 0.8372257513063646 -0.08257354912785778
P 4.914124200817428 1.154002263944729 12.653301518746806 -0.992843055694774 -0.993393014660973 -0.6337658735133795
P 4.046510003799495 6.169553502933911 8.207727803746222 -2.0691145523185335 -0.11774341216077142 -0.5262338546679711
P 4.772911763693923 1.0277488479383217 3.750844093781545 -0.4756967651503678 -0.8363346069506629 0.32373736922951984
P 0.20221581273881442 5.586151679367085 3.5744630612061576 0.07970136978638531 -0.6911649802581387 -0.481475576615674
Ni 1.3471785668196024 1.2019668259212783 2.742449890003119 0.5020135486680257 0.3434785564121891 -0.5307762226230149
Ni 1.7384964481362797 6.550281805632389 4.767430099468031 -0.653361793367436 -0.628204577375518 -0.16304984940705466
Ni 5.8981244571242115 5.512286434478675 9.10423358512206 0.36196761635531205 0.5636467480987906 0.2783946794286625
Ni 8.599098948928072 2.2888746752961384 10.251405435441443 0.40583012206621727 0.37318765344084764 0.0044786045966439
Ni 2.2474642770679374 5.079052599603345 6.783029549220948 0.044699399789903664 -0.31063477040929083 0.7093856170312235
Ni 0.4222009925656096 0.07360975889105781 9.385209501680901 0.17383305606548774 -0.14014312001221027 -0.2149272550026363
Ni 1.455918101735382 0.9924953914131146 11.522607161090624 0.18847497434837862 0.21343292984529694 -0.5380529587900863
Ni 4.158806481575949 6.870271246486669 1.6937159819641965 0.3960445034343631 0.37718906129075686 -0.4692535806281854
Ni 5.454779515639861 7.783737506421765 7.869909412497157 0.5545237027515998 0.7439659261092543 0.8504013694563742
Ni 5.24515460897781 2.748650165020151 4.86448047292188 0.009125616450352026 0.8512562612575018 0.6044910358086621
Ni 0.44600181530134736 7.428458497947246 6.7945516968683535 1.1462353274074066 -0.9398919574190394 0.09462482386543704
Ni 4.91104572996593 4.693259715826598 6.880661311304815 0.526409718124203 -0.6416195652298433 -0.03903011731926827
Ni 8.380157379747708 7.034793395453474 9.067620545868888 -0.08351534421583681 -0.4243232957743982 0.36107235823455236
Ni 4.511918824348535 0.4599307674326513 10.39649800972616 -0.0776581141041114 -0.5445210830129332 0.7832251287201931
Ni 8.11753944112587 7.175211388486271 4.5324362457684675 -0.21023139218886375 0.41924588125149087 0.8891615209437075
Ni 7.2459259403331195 6.193296547917598 7.033087146213202 0.5818231618975013 -0.9775460203263873 0.23970291928541942
Ni 2.452223213674396 5.380769826371321 2.6251041783637845 -0.4456842779486776 -0.36854964044820393 0.2464034712340466
Ni 2.3100809158538107 5.107977586724155 11.301671356687107 0.38471442313352455 0.24840224683163023 0.05474649961326056
Ni 0.9292197251429031 3.483727615496069 3.628794912014264 0.5466903227501101 -0.15036325507832168 0.10314674529351912
Ni 3.7477538868241624 2.839153596944658 2.7687441838508313 -0.9570684691983258 -0.8242954163979417 -0.5641247161764736
Ni 1.1298619969156882 3.197014548713981 8.188423715119372 0.017775578815866163 -0.03294585879840133 -0.7031149535311633
Ni 3.5772734071770405 2.7499862755363433 7.050778874446864 -0.5266043506335125 -0.66696215775969 -0.47705173651636545
Ni 3.7851559535037866 6.738483805166574 5.942771312244676 1.0916060700983008 0.8042176718114601 0.09325005500509746
Ni 0.9616384607080807 7.520063318270235 11.403781797332345 -0.7487654043804266 -0.6157871775477717 0.37521522539383767
P 0.4017431544524799 5.388795517242232 7.860646916621392 -1.052940535207303 0.9255889105328059 -0.023454117257882188
P 8.51042815507645 1.6803124462656114 8.08766112109621 -1.1680909898299172 -0.531864313480871 0.45600365759681466
P 1.81064641601066 3.206647183313827 10.31515776816608 0.006730119634981957 -0.9017167319008985 -0.0174917290268602
P 4.286188369302113 6.038190366980444 3.823304617073202 -1.5967810472134436 0.4202241860043602 -0.43384280522905927
P 6.969694118884136 4.040822506331921 10.344253380210917 0.6459755282056939 -1.0097413741120094 -0.16056487820167187
P 6.487105444873516 7.612128555054887 9.945020849640553 -1.0795771639582246 -0.10823084468464585 0.5333807501253975
P 2.190553191297155 8.475310115157614 5.726962380558357 0.6955512822512925 -0.2962000830411996 0.5940652124896479
P 7.147884317320636 4.11970719342981 1.5438666736863593 -0.09255431448965351 -0.6341176004258434 -0.18461651983423688
Ni 5.3815823260095454 2.9762493692344902 0.46077486427902953 0.39258277013800774 0.3342130719498631 0.07855594332803245
Ni 1.3291591303985235 0.7985192277832776 7.185037217444538 -0.6227965189860694 1.5665099070337278 -1.0785394667223296
Ni 6.689219243768864 0.6930323997525254 9.364069163871664 0.47605209160725764 0.10028536458532405 -1.3358598419791963
Ni 2.6132786975181075 1.4058861795682378 9.188916811304747 0.19844339841500014 0.552978469751667 0.2663554888759413
Ni 6.348267312248379 2.129462246276393 2.6615465926929276 0.7009418571392444 -0.5121148987680858 -0.31862575903456736
Ni 4.008403770766743 6.793065725307778 10.497167617679613 0.8319884141668251 0.49665999766559626 -1.1292454777176295
Ni 8.30785393971944 7.293962724499734 0.1726579786775646 -0.4226461651822915 -0.5257612859069267 0.07893209572052858
Ni 7.642543124845775 3.8681753609828657 8.094082576570313 0.2971850726622882 -0.23134477712871124 0.1035375529740346
Ni 3.2144291242932708 8.522850371767534 12.541228026982177 0.45522589889052567 -0.6086032582048229 -0.4508730212384687
Ni 0.12502834710743918 4.663052784832144 9.94685709882294 -0.4340788324992653 0.88308857527675 1.348490386259013
Ni 8.624476020961966 2.39732532145166 5.933562080234083 -0.7151415456783942 -0.52557976602374 -0.2732848690059229
Ni 3.4839984487088103 2.838025125224901 11.611028788386525 0.6256260180150645 -0.6889540886497489 -0.44366879018054556
Ni 1.1872154436006157 3.2353193927694117 12.62959729319028 -0.3684820204350621 0.25042930456398804 -0.41000507937951325
Ni 2.988021586214995 8.351611559124736 7.8737814246619875 0.7194921093376061 -1.0229157067104384 0.533499792201765
Ni 5.758961324643785 7.893578429736027 3.6035713121342567 -0.9347224974029579 -0.36962718978309894 -0.3519570261968455
Ni 3.197881214994755 8.17167900035293 3.8021895570304856 0.6537677705566031 0.48302698026319396 -1.0838392816686884
Ni 3.4108915368160764 4.212061318974719 9.041035557706167 -0.31287985768972565 0.4595862327417505 0.39130287498431965
Ni 7.215547481637263 6.022202179654927 11.394030898896268 0.8779833928397007 0.2796969431798538 -0.7136888723922677
Ni 0.603644800664514 0.20589463054522206 0.6038154255885413 0.16936756409496637 -0.4965201296536223 -0.5965247297737339
Ni 4.598016702679111 0.39305121387822395 1.6229734440186974 -0.0039764681492447645 -0.47897517879132345 0.061773324553054905
Ni 6.234914584942233 5.75526896517674 0.4292074477792366 -1.2917291702085687 -0.07641164329152003 -0.9044937804254036
Ni 7.82373957194371 8.70013779282823 11.250893740407548 0.5307877925872407 0.28421462854454926 0.9564223509738948
Ni -0.015498881987829826 4.842091594001902 5.689570244429866 -0.3089990345780807 0.01863381305110339 0.24517859768801
Ni 7.9280554977180415 8.814835658424325 2.474951536887677 -0.07562771393764395 0.8201220017465425 0.836604829892914
P 8.424501804447276 1.6819013344470293 3.6727412118911027 -0.8623953085934568 0.7600355779776071 -0.6142234326050776
P 1.8799436073774947 3.257220771906454 1.5386874398813628 -0.2849571631375286 -0.612424688833442 0.9189531503838431
P 4.612226418574291 1.13793282665539 8.164984003333956 0.07576115419171468 -1.1416549071255757 -0.20895535368991755
P 8.546909388832752 1.5617868045960999 12.430476201295727 -0.18656464469954323 0.18657030112649806 -0.7176126329267061
P 6.29115761545492 7.871577745087646 1.3813595238223524 0.42291510257296194 -1.0386400594242307 -0.43346973816035667
P 1.6164590024748842 3.0217403212013325 5.882083908710898 1.628847845841001 0.8549126270631664 0.1370732228376349
P 6.832517096630481 3.8804531332938215 6.018337389709105 -0.10901143160441225 0.34463349595223874 0.0649810328570752
P 2.4551391845982478 8.3319039290109 10.153403534633496 0.16808741183096215 1.3838921627970746 0.128001856663986
