# total energy = -340869.4954777668 ev
CRYSTAL
PRIMVEC
9.27371754222566 0.00000000000000 0.00000000000000

0.00000000000000 9.27371754222566 0.00000000000000

0.00000000000000 0.00000000000000 13.57302302478013

PRIMCOORD
 96 1
Ni 4.454426098872198 0.8102632307728506 4.311565410737182 -0.05330539629135981 1.1088237195281676 0.6774224338610656
Ni 7.8518895384930945 2.1485162841527314 9.809332005471013 0.593709628922442 -2.9560903784648316 0.5003076217205126
Ni 0.6136743339004168 8.610377605398746 0.5760759017193706 0.3930666517529618 -0.6300835395657858 -0.34747122251135
Ni 5.564619895611898 5.627143297867432 8.83795184662244 0.830564537236105 -0.9866402693181717 0.1740937659260421
Ni 3.0936842809610696 4.419974238982061 9.97746079122182 -0.9202636416651506 2.0311290742136956 2.027287074759786
Ni 7.121371003062181 1.0366810394451842 4.433695631147188 0.5467096060238198 -0.31266028547975183 0.5516898328472305
Ni 2.9839669312005794 2.513937841921506 8.990824439989595 -1.567056009345185 -3.2910655253916996 -2.5555850110456375
Ni 4.38787790329437 3.762922092259 1.263458668350018 -0.3379188029362245 -1.6434439984876212 0.24378223156111564
Ni 9.023234227323123 5.408784349557019 12.124062052745396 -0.22027926334316902 -1.0010513025371792 -1.7688050750946505
Ni 3.3779608120707043 0.3517975396356385 1.7690394803948601 -1.1273693437408392 1.6612144350971647 -0.15041236314870227
Ni 3.9059320872430696 8.018389859480317 3.1926060963748286 -0.46365526060480144 -1.9873809825934678 1.8167409795439808
Ni 4.105539579107224 3.7481583342657023 12.375162787469842 0.3622434957245181 0.21465574650880453 -0.3214408598858593
Ni 6.515658155491693 1.9349333002685407 1.1832743988065215 0.3931126744995488 0.07683304709965477 -0.7971178275418852
Ni 0.35177621008577376 8.52523560656931 7.489268643358725 -0.56301785626554 0.6686873679809129 -2.291744575282066
Ni 8.643679524339657 1.508629788212079 6.933058898908979 0.8641899386000342 1.3290631307723368 -1.31850001054451
Ni 2.1807517256004085 8.398037299637107 11.52832865239638 0.01111179364244538 -1.371541868761838 -0.7905738557757804
Ni 5.771089938302082 5.522637777247792 0.9413583537281586 2.0547104610780615 -1.3661062995685633 -3.192876124103456
Ni 0.6104415160383168 0.7950404237715957 11.58000087800119 -1.7747888034819113 -0.04268545468366842 0.11500672995589871
Ni 3.427658663255428 3.1255487737154484 5.351028565382108 1.3656365590209965 0.5244963031515741 1.0215237114589182
Ni 6.786126121493274 2.612758573816341 12.072294307852063 -0.7884223566504164 1.3140522591858015 -0.5782243888026494
Ni 7.32864785916029 4.189605826726093 9.792162645201673 -1.0409656222336137 2.27006194810231 0.6297652369944186
Ni 3.3265102283101426 0.461664196245182 6.293728826008276 -1.2011540909324732 -0.027018694680688952 0.8998915057667017
Ni 6.423078635361612 7.261626703998505 12.43257637147518 0.011471748085025404 -0.27519905530950023 0.008444531222927392
Ni 4.068926943078619 6.693463137907202 10.261381211585887 -1.6081226974785077 0.3679433743227728 0.5323330255871735
P 1.5998275244596207 1.5835057819544678 7.043109175121706 0.14880182412847276 1.0025281441930218 0.713021671121914
P 8.093738812806663 9.125124559655005 10.277533245063855 -0.09694138781375562 -0.4220584109996215 -0.05738239457421084
P 2.0684841035734873 4.100680151225007 13.179921139634136 0.18061074110895348 -0.3509152151958924 0.9809013099518656
P 2.384810601784149 7.77688371270805 7.199198821031495 0.1860087721960732 0.3177004190068206 -0.10415333218116257
P 7.581245371862195 4.112578330562571 13.489480606307291 0.3571005180709979 0.02542049695563364 0.42047975365859197
P 7.953965345171627 8.680820762256213 5.952150922873022 -0.7387992943066503 -0.437701259743201 -0.008972635812255516
P 5.170394171808462 1.7845877948744848 13.047801270913588 -1.9768880534819435 -1.1654666648331928 0.34020374231565925
P 5.104114914033275 1.9290537634797527 6.320223836427152 -0.21938297678114474 -1.0853135522213697 -0.3334196295142903
Ni 0.6239996907783926 3.959923669552729 3.6742848293669543 -0.35010557481040344 -0.9128768622827761 -1.4331267314531706
Ni 8.829098228685128 4.224298803266875 5.616177127121783 0.2048811836205439 -0.2591252896760892 1.7239354682754697
Ni 5.527997985865961 8.797298651952076 6.30766907790245 0.9596611696261667 -0.8369784111822488 -0.3877971758239063
Ni 7.409060262150165 7.097157327107094 7.738903203372907 -0.43607195166989415 1.9688096473491834 0.4290708377617127
Ni 5.670683400743394 0.20356736916511972 2.5716667323161526 2.147517000787837 0.5661384041723927 -1.1581421061473214
Ni 7.1673964621832456 0.3230610717375037 8.091122697147172 0.047119836305938204 -1.1175718980344431 1.2231485929256936
Ni 0.48207935758088855 7.55212589943823 9.466138620776443 0.31132845404220577 -0.3600007224369284 1.4095641136418822
Ni 4.190449735003348 8.697615464345322 12.621418004888069 0.6851696819066523 1.7671130321042083 -0.02111158516763461
Ni 1.936936423212355 3.0454238559628792 1.6518911009358588 -0.021366895711550298 -0.438015191439194 0.3410347228573869
Ni 9.281970940899125 6.800982616659896 5.024949826024617 -2.320519333421913 -0.7983707261123799 0.23861585686882775
Ni 0.9745007647309513 5.187151779028241 1.548668135423299 0.12258942739916306 -0.2511571838689481 -0.9639397423968624
Ni 7.238154925430016 5.11448293001098 3.810110475533557 1.2637627669026301 0.40254528066735834 -0.806718840966759
Ni 0.23050751801595445 1.4086498416506852 2.3231858227381315 -0.3459614707350429 -0.16800153698537518 0.42142026319499043
Ni 2.7874754083601365 1.7622659572552217 13.492032733317187 0.5543699507825549 0.03356986553564541 -1.22514916829549
Ni 0.5267295244215474 0.9456595038269595 9.12211616575235 -0.3301083057528702 1.1312799916491547 0.30139294009604867
Ni 8.217209085371211 6.15635725116235 0.4915431861186775 -0.5586927465276249 1.4281722156613728 1.5331400733240308
Ni 1.8559119548785363 6.538211836044267 3.3485056310793024 0.21433024484858573 1.0973339737210135 0.7823249855034268
Ni 6.486751978566373 7.718700410164113 4.034852523483913 -0.1747069740300088 -0.18792758648534086 0.7617337916156366
Ni 8.224794986149176 3.586526714878027 1.9621433142937503 -0.46088155451440627 0.38548498275096194 -0.43577807457855916
Ni 4.081131155088154 4.844052058878728 7.046516338869657 -0.1992360695196246 -1.3297555288536713 -0.29479446094292455
Ni 6.0011615916034105 0.2227760198758715 11.316303653024047 0.5585446509855349 0.3202481251293388 -0.5126226916424398
Ni 1.6685272224585823 3.990360009837906 7.498823354326373 -0.4730305311721144 -1.110575926332584 -1.49926836027725
Ni 2.5067878058581696 9.122583561105907 8.965402398666086 -0.45698221946000006 -0.1947027004256453 -1.3248316091894925
Ni 5.0397274945939134 7.730756242696329 1.1685570093998865 0.3980072835876888 0.23017903895538422 -0.9562642281294756
P 9.07410984060907 6.19366541599089 2.9813554523997547 -2.0751373614738458 0.09000557992587079 -1.0476242652007117
P 1.742930256617015 6.256708146417043 10.759429910413296 0.19758542129007908 0.3337219912460575 0.04547561583429588
P 4.761905470747681 3.5497656993721027 8.97157776703778 1.1976015976945247 0.4020943091728688 -0.545792493526189
P 1.855123688905276 4.8848378677069455 5.167955184150021 0.626083160157141 0.6286290665074463 1.8988846402232713
P 0.5089137860541331 1.4286532499368298 0.12160811012418787 0.40050459608824573 0.7913590706812371 0.10261838359387489
P 1.099501200655358 3.016888627730859 10.158756400841273 -0.01706158346797707 -1.792103640611275 0.2371017342171465
P 2.8815201758287476 7.899380244952689 0.5546870000637544 -1.0980363991046767 -0.624533299171518 -0.5236928334136722
P 8.097170088219679 4.4030126099809666 7.703681624944172 -0.10174472273966993 -0.10270528688072635 0.30698946034721963
Ni 8.99334503636056 7.7198781722653385 11.907015335437526 0.06657974480276276 0.5342320423820992 0.20443509722206082
Ni 0.37798188052387666 4.875026274769189 9.548268516216293 -0.0005833833072957695 0.885549892333049 -0.027301773138746526
Ni 7.725748435336794 6.571736324201157 10.151141751539578 -0.6166999191700283 -0.18273395809954335 0.5245880915344321
Ni 2.512815722124277 5.982549240917137 8.32130841717169 -0.20554504245678795 1.3954145616143776 0.7314554523470692
Ni 6.427186892139897 2.7274373623497046 7.926998302540527 0.424036874882231 -0.1010052734704841 0.07431542288412363
Ni 4.066877451548143 6.3031601965354005 12.596566297180505 1.191855953459999 -0.5912177157385238 0.6152431321188436
Ni 2.5803005631526847 1.6273611912197337 11.098945338813806 0.7612180283214827 -0.014647317599529612 -0.21475961907652047
Ni -0.31860783267445003 3.0450065386829177 11.904491029579628 1.7684448635417545 -0.10594873351868851 0.49024483816787184
Ni 4.8091086919699695 0.6817118884818398 8.300133738386455 -0.012532842359688094 1.046676813685778 0.54993325516744
Ni 6.59604273732957 3.2791029853065394 5.606119780674716 0.388478261051331 -0.34787411437672344 -0.6133112052034534
Ni 4.782817703332407 2.120444741787335 10.662952646888376 0.7415999969802388 0.06797713937092163 -0.9248980551133684
Ni 6.919704745950218 5.5750157327416 6.205287238551945 -0.636903904921729 -0.2838793566923175 -0.21258035203701456
Ni 3.444935598645826 6.787340978463828 5.284167845530176 0.9420938501663646 -1.100908321335833 1.2548865474589228
Ni 5.126575857412526 5.007269483930258 4.697650665466174 -1.1109140263982933 0.30367582259295445 -0.4317879795825596
Ni 1.7804146220748718 6.241916567271748 12.976447435014073 -0.5356196667582452 0.7784634456654916 0.6100299633490204
Ni 1.6433490799009176 8.179492876980044 5.21403628557508 0.3357302799253379 1.778179317220699 0.025846785859774842
Ni 0.16109467115412562 6.122536004050819 7.34406355948206 0.9254050766567741 -0.9121654380380485 0.17435344734533198
Ni 8.421546173074928 8.375836020343167 2.626040391779909 -0.041773998612992566 -0.6080885233519334 -0.2594929574281531
Ni 6.062637063800375 3.0415752632699027 3.2468295216177996 -0.6889088372341102 -0.34752393012615634 -0.11832910946091235
Ni 7.840510687326149 0.518283950046864 12.760622993650623 0.1824071708877439 -0.22864640436094172 0.9174544543511297
Ni 5.921268516784153 7.919680412193473 9.440784277589461 0.37697026041173143 0.8916529199069934 0.05931920658560751
Ni 1.9980131255640237 1.860567360979438 4.271891520617128 -1.2565968452818101 -1.3894470311770328 -0.9264463734370948
Ni 3.3478212307401662 5.923086165381318 1.5722586175736444 0.41427259640661557 0.7751300104168843 -1.098028942905509
Ni 2.951341993624938 4.486503887125224 3.340592368079503 1.1996955041090758 -0.7553471713630023 0.03603709612921535
P 4.1354473175044495 8.95974635846501 10.17452821190861 0.8862394622009059 0.20539000493616238 1.9287428612352848
P 1.5743711703819818 9.16335082249946 3.3494422765298824 0.13831455144390373 -0.22941979219185651 -1.4168691319437277
P 3.8671308539240017 2.426004454174995 2.9750706541635377 0.042899884687319666 0.38418914675767385 -0.2120298788501832
P 5.378079071469199 6.173986587811381 2.7444240303875964 -0.6634803698586768 0.5939839656297512 3.8287055650140833
P 5.612054959767498 5.227288427643185 11.116929858836672 0.11765496621202318 0.6906556447218879 0.7971281119545304
P 9.105788859016798 2.036387767885798 4.827842528353298 -0.5354278624624134 1.0784242813007041 -1.091016773253734
P 5.091623216786434 6.693110736648567 7.081357694887758 0.8457348172186403 1.2988750372247309 -1.7031594120703828
P 7.0936518619554185 8.402423767935367 0.6936239783954018 0.48522321658356427 -0.16208619994220472 0.7712779836606459
