# total energy = -340859.26860962686 ev
CRYSTAL
PRIMVEC
9.34639320471526 0.00000000000000 0.00000000000000

0.00000000000000 9.34639320471526 0.00000000000000

0.00000000000000 0.00000000000000 13.67939120300453

PRIMCOORD
 96 1
Ni 0.944602549150645 6.521969073799448 8.358353967024154 0.3761403083112683 -0.5429881913081746 0.28560251003101134
Ni 0.6156282103521924 7.299168378952733 3.280878334278339 -0.7914236053705854 3.712360575862736 1.0387151356365403
Ni 2.1933180318720624 1.7965823442387676 3.8653307163307384 0.915175685619282 -0.0053041858217328 -0.8082427338104532
Ni 6.183181022411121 6.638724214440117 7.142652748094367 -0.16492726893542564 1.6924111724149435 0.16075822515940058
Ni 4.640269129031176 8.550313923839262 6.474852037696523 0.32438811543964136 -0.08439131906288691 -0.7507083870394103
Ni 4.2772645735282175 1.3887805273612723 5.158880845998465 -0.45827008503348815 0.0038306865999998543 -0.1033146383299511
Ni 1.2768387790861129 1.6229730953274302 1.586316542206016 1.42292048034413 0.0408424879376587 -0.45540227656738985
Ni 3.8202353050213276 4.209849041232257 4.449482144530382 -0.019361949466379556 -2.0447273817234204 0.6708776907640124
Ni 2.460877222643791 5.4176647084362575 12.010655152928974 3.094804479339999 2.365735010726603 1.2859858399668884
Ni 2.7435401844109824 3.19827024025396 11.564529386429081 -0.30755304616017354 -0.3060327528609052 -0.17414698776148071
Ni 4.128769082454014 7.980408267762938 10.576576397531435 0.20928985421120083 -0.3678490148367536 6.048605804660339
Ni 8.818555401295809 6.872832664869791 10.062779007568949 -0.11744850662817193 -2.1948219565213876 1.5172498844563354
Ni 5.991907090838012 1.5600344852510402 2.054726913399277 -0.5266801981767704 0.4874968431090894 -0.9409304259858828
Ni 0.9382937339142976 9.078600092141578 7.9071260046168215 -1.4685822440473029 0.3119946268712949 -0.09795414534898614
Ni 5.8930783318615125 6.945687797858424 0.6928826904989727 -1.1103321857528943 0.43357103962491134 -1.662964842129368
Ni 5.697383556426487 7.422531419403916 4.637450256919646 0.07684024618850636 0.04101372340820034 -0.3904904063853533
Ni 7.123409459664566 5.131253843099029 5.536090049495794 0.9832669819705646 -0.1326033599917394 -0.07924911274031514
Ni 2.2569295822403297 7.4729552093299825 6.736703386298121 1.8689953088630071 -0.14494079851116973 -1.3078145058062056
Ni 1.0409451676043768 5.9527830899797145 1.5764542283728402 -0.20885508066662742 -0.9304441817425783 -2.7463333548092255
Ni 5.9799343614783655 0.2513843231450281 13.314985412216854 0.2644230477399188 0.6716276815561594 0.32241067999829637
Ni 5.4258708414399806 1.3519463927739461 7.363424830434049 -0.6597769528651605 -1.8975412388214996 3.1262004771527776
Ni 8.848192813317228 5.303535904212498 3.4711587442816367 -0.5684020033955889 -2.104863942004001 -0.07985460753479795
Ni 6.159375759585971 2.9914439108241355 0.17865256254323827 -0.6929164157316067 2.1745616636104548 0.08740130953380432
Ni 1.5197047997031303 0.5212614193665553 11.427803807987665 -1.2889248679905543 -0.5829369637869702 -0.3922855506125631
P 6.661613530756879 4.3275294747742565 2.282706933976398 1.53508665552744 0.11921511161029145 -0.6239979954933382
P 3.2884162001866564 3.1836337889056336 6.491226918132198 -0.4649467257227154 -0.6990706082584605 -0.15467885173454007
P 8.714202924090152 6.919415087296391 0.7388744208915923 -0.4584428631659266 0.2821112090483013 -0.2913080450562208
P 8.127931733971097 7.0213935806945935 4.672797380389783 -1.674533520803574 -0.23428714758648683 -0.6648260852532938
P 6.724739068692124 7.956546926580131 12.168283004547527 -0.06443441632498581 -1.3136128576555377 -1.2013728918114988
P 3.4511742868914768 7.144242569533926 12.930977642492978 -0.0922601802880024 -1.1193930104035816 -0.03918438350894542
P 1.6289734795966673 3.728304184036568 2.6725973234184326 -1.0112675809485487 -1.9811941370564654 0.7782988950631693
P 1.9969222769663326 1.7740388444608863 12.992671313029396 -0.1790832487208335 0.15391446276468976 2.6433267346379963
Ni 6.629742330822147 5.26881405443023 12.670590873665507 1.5300375231393069 0.8321552787619928 -1.6219284930133484
Ni 4.076924640800653 3.278247324664959 1.9356613444231636 0.8150121913238029 0.35770267043137105 0.9284844869130461
Ni 4.39925369421682 5.099298525627812 6.5873517656303635 -0.0986822817642623 0.7780605538001181 0.0354007480967971
Ni 5.786819190495536 2.9936029275939076 6.032187240503324 0.8356293533535221 1.836275450032483 -1.5801668356955303
Ni 4.563909098689015 4.9982359787379975 13.29858436188094 -1.8377708036310867 -0.07981861209053995 0.7150656981351363
Ni 8.808835152635364 8.764271551084395 5.876393151180138 0.25766156064636914 0.093896944560477 -0.5779227984018306
Ni 1.3728449273939058 2.2145343438520753 7.264194176561011 -0.048102769044497805 1.1151478619739825 0.35655930085554727
Ni 4.915221316620609 5.483986712757918 2.9446119397059634 0.2132375260050392 1.374675015074181 -0.7571284316331411
Ni 8.615084426932428 0.10697881362256627 1.0577163351008239 -0.9571391745352613 0.6790702538771337 0.4053267000672374
Ni 2.038111830664974 8.24794876574878 9.776797141667792 -0.9513343949280262 -0.5171797148855029 -0.14515702828703386
Ni 7.815855673613112 5.498389504282676 8.341651028196189 -0.16034993397738836 0.6113432828438051 1.2113516002907656
Ni 8.243247530098584 4.435826129801749 0.37301921554110007 -0.7453607495742518 0.3184316407458903 2.094268682986658
Ni 0.36244844512286467 6.372996916685165 5.8972131760993785 0.23779567496037754 -0.6077931035987016 -0.1590813516776099
Ni 6.260625234334639 7.9725759904769244 9.471158876768763 2.5937152422584555 0.262439955871619 0.9188402789550626
Ni 2.1201451215233753 5.605293546761701 3.4724999516689197 1.614013094821014 1.5282364653748262 0.17276424848134117
Ni 7.094426295149139 6.830465465660365 2.5595508314974413 1.5936617848581716 -0.4291171176186158 1.3414471062589868
Ni 8.544762166431276 8.96430305284485 9.811214299040126 0.7360587554470357 2.3024971858128795 -1.337595079502748
Ni 7.941732893765892 1.2206856502861496 7.798948983418995 0.9891990311842835 -0.4071591252902859 -0.6796076144378425
Ni 3.2866964638851934 9.156446198961634 13.04833282156057 1.0503804877896106 0.8333703821160164 -0.6084595335381069
Ni 2.2336009854552583 3.9856571137148276 0.6637135327639851 -0.295205323228098 -0.981116254176149 -1.9735044817216916
Ni 8.279221796535179 0.18142002949358266 12.068697187742664 -0.01245699481643016 -0.10543836954117325 0.7313621213023146
Ni 6.82696991469978 3.156024544152789 8.470073271147278 1.480011311819851 -1.2018146073346074 -1.7013588685265344
Ni 9.146810067837672 3.326904646324847 8.927088520064753 -0.2514019528899025 -0.5566561757135703 2.494793076569245
Ni 2.993042144017343 8.5217606933992 4.2977771021196425 0.2048739845316923 -0.11800746445543547 -0.1958807798941465
P 0.2540368294621768 1.6495822760354022 10.02299888992607 0.6449314032118957 -2.686680676143599 -0.7792108653544774
P 3.5125053173817156 6.450067272890973 4.839891258780739 1.226169124919572 0.11653885032970897 1.5668981436110823
P 1.7046979552187214 0.03533590779860531 5.7509804467566115 -0.18974792752353126 1.1409499106387513 1.0399487509333252
P 5.710468506546318 4.808513548393382 8.284758599714456 -1.1472252021245017 1.881617625612708 -0.17930024982764606
P 4.704591005263091 0.27646630324615673 9.430681518212358 0.19062827324595558 2.2121203385905193 -1.2204728458657432
P 6.65178112538112 8.831584273057985 1.7235346755555132 -1.0355141122007392 -1.0848304419373638 -0.6562056905741344
P 8.256220323503102 2.9552640237428007 6.166779037435912 -1.0334528587963363 0.8624809263287275 1.4411321182561503
P 8.481804863569002 4.735807957691832 10.912474544221865 0.1557918822930607 1.8830124490777054 0.33800082112706953
Ni 0.5537672393820999 4.602846171688457 12.684926371161076 -0.08753217868471377 1.0164241854488238 0.3776909406278398
Ni 7.380734350163997 0.5276319207963248 3.4831697938523476 0.9924231945485359 -1.7278548579345339 0.04559260102813439
Ni 9.043158570102719 2.680040790758028 11.803495157271096 -0.07952396366825659 -0.6070593107564706 -0.10321822196140289
Ni 2.710052058497156 1.7636363091156202 9.679892804998202 -0.558137131134471 -0.6302084951794242 -1.0890766188082277
Ni 4.311481718091578 7.559399997657355 8.55334028587412 -1.8624698490396636 -1.6943646965968884 -3.8901063367190676
Ni 4.733303124383178 3.1174052485134 9.357660954068638 -0.6584348370149692 -0.326314900148709 1.2027178358751673
Ni 1.3164861779492025 8.825611927967577 0.4543225531106738 -0.15233889074745377 -0.046758596311777534 0.8095583672980831
Ni 2.8828668640083612 4.369279812049462 8.49293174436733 -1.0224361959708586 -0.10309043813428696 -0.2386472243273954
Ni 6.675502270669787 0.5629612861198702 5.592763772382668 -0.33198649661218954 0.039166385786816416 0.7064219064172091
Ni 3.275835955285733 7.980015719259343 1.6118695805114587 -0.41592607284963845 -1.7072842328720341 -0.47969380212490287
Ni 4.55907701353762 1.3688540176073574 11.448651872085735 0.569997887127799 -1.0303022289824966 -3.0168522310342367
Ni 1.1232588502510603 7.530229905283074 12.381914442678958 -0.06364020255846459 -1.0599740450153163 -1.0738996539574732
Ni 6.7250755388380625 1.2782407380275231 10.07400963332894 -0.5851892501562568 -0.7727334851602499 -0.31640149768973896
Ni 5.46271432242025 5.620079540397111 10.34747387516189 -0.5204941239707165 0.21594412630292484 -0.2336135185582299
Ni 3.6934888703248725 0.9272210621950372 1.9516801272877204 -1.042920174856823 0.5550970587565666 -0.4197017378419869
Ni 1.1669065052936416 4.8561240740436835 10.437785266249675 -0.6114636104717533 -0.3273765086440039 -3.193153546134559
Ni 4.131152412654412 1.9399747047662368 13.440097162787625 -0.7514437225435381 1.8293121313407723 2.6323229273283246
Ni 6.838550095555831 3.560171921389674 10.750113679217113 -0.7626380485974608 -0.6673727629345474 0.5580455998619294
Ni 8.658161952005502 2.6175788467217176 1.9407906448701377 -1.3215447109081047 0.31731218242946646 -0.5569176569050731
Ni 0.10755548606713312 4.512260931287451 7.2623884534444745 1.4662677369815134 0.15738108115705152 -3.4674637710812024
Ni 3.089618422294643 0.6848401193717476 7.455555029588489 0.6873453494017323 -0.1646393053813616 0.12115526605579778
Ni 0.378264411260564 1.8149480063712455 5.153300114772357 -1.2279874090752336 -1.420774894756037 -0.15933409111836427
Ni 1.4517471766164904 4.113123220667873 5.014632355877442 -0.7877284159071852 -1.2887076097734258 1.4123601883297805
Ni 7.664444107940775 2.7008925934132737 4.070508342045464 -0.5923456586953799 1.787594696997328 0.6653978985963638
P 0.09328074012569111 0.3429303727405472 3.197201947540605 1.8982122967465955 0.4005544754895747 -0.39430746613859835
P 4.729714109493168 8.792385501056147 2.9824218377165113 0.8741349656278881 -0.4925883986993839 0.9467033239139179
P 4.881751883492668 3.580285359002444 11.628440021371516 -0.023832583643223472 0.1514721718717843 0.6905975377904429
P 5.490846965177887 2.7958893312832513 3.75321419050755 -1.1236546138934131 -0.06787763767857986 0.6827196777042629
P 2.998397627173531 6.07785652033942 9.90060974361952 -0.26219158730623876 0.47415358903296395 -0.39760439172231526
P 3.3313348365797046 5.717506340432199 1.379334128014048 0.5888818685164956 0.18150882744319063 0.40581906632262366
P 7.794947792600211 1.869456170013287 13.434434183303619 1.4760579835990577 -0.8714522765894025 0.22164966132813438
P 7.84555851038513 8.240340801893394 7.7672675152610005 -0.05543375548827228 -0.1672803425486345 0.9322025591945817
