# total energy = -340892.69382415665 ev
CRYSTAL
PRIMVEC
9.07566345846356 0.00000000000000 0.00000000000000

0.00000000000000 9.07566345846356 0.00000000000000

0.00000000000000 0.00000000000000 13.28315085358476

PRIMCOORD
 96 1
Ni 6.410730862443883 1.9040469201448815 11.39291875142099 -0.31961460531039787 1.064740098945392 0.712253939717954
Ni 4.614103492372809 0.3331630596007499 6.028198917532513 -0.5720146604475116 -0.6152552163037017 -0.34093265006188384
Ni 2.7514688235786195 1.6830726716490136 4.867052210019153 0.07894263724348985 -0.3346218773525076 0.4016027142484309
Ni 3.316283649473635 4.295257291528517 4.969983844622237 0.5223131794573262 -0.31970407970041065 -1.4194386924431166
Ni 5.284259541460347 4.367526797885204 2.7585914040870625 -0.19275971776666156 0.9201248020944411 -0.6904396720563399
Ni 7.217802367125665 6.163446266223786 2.5989014791657463 0.17612853696788378 -0.3116475279445214 -0.0002771649207866194
Ni 5.08197208356958 4.916050808269701 11.272798718213243 0.49107736137149627 -0.5274247896522787 0.36535838720441594
Ni 5.626094397284105 8.03991224579125 12.4531259324118 -0.9607245778936746 0.09182900628785476 0.13780084503227882
Ni 2.012746138735115 6.467417455022542 0.4351245058037923 0.5033435803333589 0.647053334650905 0.3496911129808042
Ni 2.8039896867314695 1.6740605380546159 0.47859057974503016 0.5715423487967835 -0.06600458902558311 -0.5019783245547161
Ni 0.44105272903023807 8.905267659781414 4.334583955467333 1.3026926111986081 1.5202724733327428 2.2207646445290785
Ni 8.540480451631138 2.343254566839026 1.5232584101413502 1.1383425549228912 0.29262007899942505 -0.1622903455332108
Ni 6.818001250206822 0.7525058946016234 4.771028970272117 -0.11879190802994381 0.017897191995394985 0.45452270217591395
Ni 0.8697062869460085 7.520875065263952 2.567659416038501 0.4965576677597771 -0.6137403223210721 -0.8552242447663143
Ni 7.501062892417456 3.9058296576896314 3.81834752461499 1.5443385131430114 -0.2525831176821972 -0.06023169109754788
Ni 7.802892224692266 3.8342589774021985 12.459050525372952 0.01028029888008552 0.21558777140477065 0.4573856255460059
Ni 8.321212427823838 -0.3878802332569675 6.690709627909154 -1.2943254701808353 1.898327225057905 0.46281759519485455
Ni 7.387753236902797 0.4262230953008866 0.4139228489157031 -0.9548722328779554 1.2261827517663269 0.5231469882125312
Ni 1.6787889586011226 6.692602811260404 9.383483414634753 -0.3704738540541104 -1.0583205685722936 -0.49503943134303774
Ni 0.07370436871446491 4.862077838998922 1.481721822204311 0.2937109980707587 -0.26747469008204905 -0.0012708962926236177
Ni 6.267244626666009 1.936038633055508 6.9558941547316975 0.8357000586904576 -0.036609937913549856 0.6455240424905722
Ni 3.5452535572813506 4.337286687979329 0.35209670824589856 -0.21458838360597882 -0.0027729347594468374 0.5412724941686484
Ni 6.095823499444473 5.578356408657185 4.851630843046745 0.6104667937761229 1.3190229729275154 -0.7094555510372104
Ni 5.373763732304205 2.9333904931654304 9.332688742629593 0.557615454303046 -0.5721609562173887 -0.2789042720752294
P 0.33509708343656675 5.654428617910198 12.689048705825424 -0.8499056607668782 -0.19213031171277878 -1.3441858453463882
P 4.050477578361848 6.267444291257224 12.645266798803537 0.023396010326437126 0.27502602006674565 0.19549819974374716
P 2.65935084172249 8.435202758081275 1.564967435679894 -0.5807224726341547 0.3377102864698442 -0.29285636337994725
P 6.382442020133975 7.904984360445922 5.741456060256663 0.6218791493781225 -0.9266281504305977 0.1246635363193724
P 4.54036372857172 1.15664790124675 12.432550496287067 -0.041606876907508986 0.4949396725403799 1.7886935864884617
P 4.009972893334862 6.064158510410381 8.105458500821925 -0.839933894266147 0.2680048515539062 -0.5569726785127246
P 4.7929485121222575 1.0950967531730285 3.922115935368531 -0.6001967793086824 -0.6284801996344079 -0.9712894978937143
P 0.1475929733926421 5.655898875354601 3.562527267120441 0.4141350423874868 -0.5266889399275188 0.15089727320492077
Ni 1.7336422672058962 1.0924466595078077 2.7173869854244987 -0.6987877869107192 0.5091154498201297 -0.3916677145229061
Ni 1.9117158555801947 6.420650562361986 4.714229839469319 -0.9836673027327768 0.1474838766479976 0.6315344130796995
Ni 5.882137008527962 5.691466399580628 9.078063749983363 0.8156428829292663 -0.4229495553553232 0.3244950733311508
Ni 8.581221103902289 2.38031049983593 10.039205528910076 0.2260087096277785 -0.43545642957308234 0.487737755475302
Ni 2.3126695817301433 5.036648221363716 6.918050454165817 0.33823427729411426 2.2978861694034296 1.6019487074573122
Ni 0.36858355808233656 9.019040174121162 9.309177329447673 -0.14061388900104171 0.021272793335847234 -0.12579533593097045
Ni 1.4543931850648844 1.0488199463272738 11.546365527601534 -0.6580553421883635 1.3375446858807867 -0.3558800154003355
Ni 4.140907486855886 6.632095364458943 1.814239602148906 1.3416324827969153 1.2960103140824262 -1.0601496513612323
Ni 5.560667941008161 7.768867563216538 7.71299415006392 -0.06638331252124051 0.6564584300148888 1.301532529452236
Ni 5.344803290914755 2.9420940542097687 4.853410580607533 0.2122463657363635 0.25036451276432364 0.09557998868985475
Ni 0.7482811733647734 7.104329349672739 7.086773386706975 1.6152505667725408 0.6858862483577026 -0.6707751037478771
Ni 5.0652365605604475 4.668793439039316 6.630297475571682 0.4181986709338991 -0.048177331036175094 2.033059458467189
Ni 8.018893009734226 7.032359340202875 9.307118061459184 0.3257382017096326 0.3429591935736094 -0.25179533167357926
Ni 4.552461587666716 0.5149422412747389 10.493967954826212 -0.4287959868337712 -1.0884143026338804 -1.556095396568623
Ni 8.361998458411172 7.036470615649263 4.976970290182124 -0.9276401366348798 -0.01623908756668171 -1.0305099741179284
Ni 7.394587211320301 6.335747732779316 7.053539215499195 -0.20083992367163475 -1.3216051318323947 0.02571463115728475
Ni 2.4454465348882892 5.297718750040903 2.5863625428374286 -0.7813099139753512 -1.3484495057187487 0.2693703644428651
Ni 2.3052910675184157 5.29501420239626 11.50986321006209 -0.010594230576078528 0.004927776318920545 -0.535261254977562
Ni 1.1347755528454424 3.5440101914178737 3.944963010001498 -0.605976104994621 -0.3914437714375581 -0.5340921743701253
Ni 3.715249805374668 2.595594307482163 2.6312988742230696 0.4180989121312412 0.28252721353979726 0.2311961673659889
Ni 1.1673934865194255 3.456938278321547 8.296961348088097 -0.8036548573294546 -1.1575466386551678 0.3868517811915015
Ni 3.79385412467082 2.779721363235579 7.047668168951143 -0.5768557905898969 -0.9631121042892445 0.661013653485739
Ni 3.994662249453947 6.763347606193265 5.967322091237304 0.034064288673560685 1.1584241561641146 0.40605972157852
Ni 0.39220932462104374 7.574966018156812 11.538421599570139 1.9130254505000277 -0.4559928589635372 0.05543529815016904
P 0.26593145390695416 5.383574524263464 8.10080903854558 -0.9565277662035077 0.6168981512237633 0.3059106254607441
P 8.317518632886355 1.4775724289723284 8.006525603441087 0.5800046206315236 0.009873036139337835 -0.6800799260885707
P 1.615613266807968 3.2309088854026387 10.384540868044366 1.8684366081460597 -0.5781809371592236 1.2919063192163815
P 4.1071187926243224 6.096513249850489 3.9382678932315214 -0.19698558292255106 -0.6869121185190558 -0.9173801494697685
P 7.0539684943703085 4.044886969807822 10.421521473036403 -1.569738955493987 0.5375613638656483 -0.571179566140726
P 6.050490561575373 7.854868548050892 10.096044592631118 1.0546855429228674 -0.7270825200903542 0.36279885400735584
P 2.1844667628434737 8.705503236270548 5.797829542453643 0.5120601342707505 -1.6008205073901396 -0.2874303072683695
P 7.051418233000695 4.0552786042142515 1.322983026790239 -1.1652748605373608 -0.08835261770348009 0.8299636704273127
Ni 5.326642888777404 2.7056457998947185 0.41467340626540766 0.331991381708196 0.21986685839609876 0.20220157990585177
Ni 1.3796278713180075 0.974054632580397 7.181044115882935 -0.34757432374811753 0.9862885424057078 0.06906497311846171
Ni 6.759671962582256 0.7719450576890762 9.305338323898397 -0.6581589576457633 -0.7819817432313952 -0.9176385453374777
Ni 2.578867860136267 1.3514116343139968 9.207892927722114 0.19306773592538362 0.5621102568496061 0.6158733095036749
Ni 6.376497460713702 2.1066338749224713 2.5964038566429086 0.20378589367383615 -0.5384967311957243 0.12259276983327273
Ni 3.9911681191076798 6.9703362576408265 10.151116624719903 0.1775099906964427 0.44329340911899784 0.7173413815431905
Ni 8.371727569401298 7.314331121315004 0.5990936059413803 0.6898814855600248 -0.5293016949600174 -0.3346833267180623
Ni 7.49155159734502 3.864490011644836 8.093848912409081 0.8856717626228942 0.0685702928702303 1.1971310858160091
Ni 3.024746119309648 8.500901484254332 12.541100874000213 0.7207403799224104 -0.41404505377684175 0.030620553099334365
Ni 0.07215787569887037 4.817135154649015 10.251006097005925 -0.21552915025269334 0.48527232465394493 0.5132945208984837
Ni 8.856939753044085 2.2476333789733913 5.824157133938022 -0.7651785556311272 0.28208164136194647 0.5292178769969595
Ni 3.6191203803677587 2.9886249796261604 11.377616275636989 -0.42678898370607143 -0.9622888370570007 0.34659190523019023
Ni 1.1560670587995783 3.444450165707356 12.758811513996037 0.11582125543739409 -0.24748873387842538 0.1418351630026525
Ni 3.1157840972405686 8.264907013101135 7.9200254571286965 -0.4708268386525762 -0.05304314376890864 0.041390647131644843
Ni 5.584781978229021 7.821796831215056 3.6743321776703954 0.11556825888632354 0.40888073596708285 -0.028998444114879094
Ni 3.159111313534279 8.274182340929407 3.8332379652880295 0.24485181047621057 0.8164072718991165 -0.19850896154561298
Ni 3.571454997046734 4.270126780025106 9.255766143731268 -1.560641878288725 0.842213177218627 -0.012673224592294304
Ni 7.395050070145391 6.318839772168678 11.521951085927528 0.02218193541367793 -0.7844893401445973 -0.48307480278199383
Ni 0.8308996585106758 9.347388594374655 0.49601403802753247 -0.5174393963047927 -0.6146576919290189 0.09736484850441941
Ni 4.784353859036765 0.3271912731907663 1.7228513036170352 -0.6322730910179369 -0.04168015334760564 -0.37406825627358803
Ni 6.32910434728979 5.8428030840585565 0.20232376054371531 -1.4922986138276362 -0.2194462259189124 1.130363907592789
Ni 7.616732220373749 -0.21385348312007274 11.426763714764624 0.1651527546826704 -0.20674137675773427 -1.0024898347559188
Ni 0.06499717740483228 4.898734442813396 5.7653786009832215 -0.37444415155576805 -0.8680879881028598 0.4780588376246412
Ni 7.871141212234936 8.755374005758178 2.7768688822801715 -0.2570799771112863 0.6286915443142657 -0.539838075714967
P 8.448716420641253 1.7472466863982448 3.7510024731307308 0.5292860112307336 -0.1849718462911266 -1.647288569044692
P 1.8115205334430837 3.2258900436325457 1.7746951222924006 -0.13592034018011429 0.17688212730445668 -0.7537317472467665
P 4.538539520261072 0.9818687786275032 8.183589978063425 0.6505703466652281 0.597560627237416 0.11474627720566047
P 8.420173459760708 1.6389467969904417 12.271745172353917 1.5048360841730148 0.3564587707219409 0.4903947334821748
P 6.410131868670237 7.941522980638314 1.441607390696518 -1.148651393048067 -2.0459890220446635 -0.14591498949898096
P 1.7697815582158578 3.1707100111512383 6.264864987765252 0.09619988166204078 -1.7526351502030075 -2.103714658890906
P 7.107387848183627 3.8785482139990375 6.048429478454237 -0.9711555434190112 0.32743795800955866 -1.2822096607539077
P 2.2501382620268195 8.432244091865995 10.39439703831981 0.14328577940625004 0.8817819406501846 -0.1983744928502777
