# total energy = -340853.74195647496 ev
CRYSTAL
PRIMVEC
9.47333329277822 0.00000000000000 0.00000000000000
0.00000000000000 9.47333329277822 0.00000000000000
0.00000000000000 0.00000000000000 13.86518085318455
PRIMCOORD
 96 1
Ni 3.018639676623573 2.708965893211423 11.467918668596209 -0.3166184987965515 1.2141404758898122 -2.76480698813338
Ni 7.108808052251346 8.147975845625643 11.216764505309232 0.05702732522763727 1.1867384297277754 -0.836654966404559
Ni 5.746940642548881 2.2131505890961205 2.058507900717157 -0.29992484019095444 -0.20097310681538938 -0.4753874614400651
Ni 5.642999232545574 0.6511864918042597 11.830201659656222 -0.14855422689404094 2.366350275713099 0.3272780353929267
Ni 0.5784815028002146 3.425633010251178 13.504699480009446 2.1132292832495603 0.4877763220227212 -0.29497700926737586
Ni 6.702004185284337 3.033124402826185 11.392311997685125 0.48017511263669566 0.22085776155445835 0.09479374534313352
Ni 8.15047680554552 1.5863475091773434 2.482352399138226 -0.21002056172963832 0.08959754585417473 0.9743897340855929
Ni 1.4271292009449716 3.31671810040721 6.491622300024453 1.1450320511279248 -0.5006351802632604 -1.0680853612685413
Ni 7.423502702169307 8.057647615186204 7.4013578388787735 1.2288996364768578 1.9839040797884608 1.831647464342168
Ni 2.43256245540004 7.580125317151505 11.084851184868743 -2.2180289907654704 -0.07939232318639874 -0.6384671356437908
Ni 8.497361841098845 3.639332456738109 6.769216535797686 0.29293581046763095 0.0917341325812033 0.3149817345240769
Ni 0.5706309517183935 5.204857579915884 10.975275036379292 0.26743098132830717 -2.07451078363344 0.9208061444321819
Ni 0.09805278619196421 0.9222640217862718 0.4815209919065899 2.0958838499925774 0.18684875159886533 1.8193089973814731
Ni 1.2838260922027158 6.665636059782816 9.3664283612561 0.4128746876178244 2.271688170851823 -1.3495671642629596
Ni 3.7018185614028756 3.5500936595971 7.886861419991105 -0.8501301180728584 1.5269779103773766 -0.03539252056668098
Ni 3.510959320850868 3.8690513093784844 0.749791573311863 -0.9267091401801781 -0.06168924947968085 1.006331577099512
Ni 4.955936281224041 3.3163581137520763 12.8421800399016 -0.028854976558479337 -0.797710981041194 0.04334571397548664
Ni 0.8758475319400081 7.761132291352489 6.421228804279687 -0.7609174663619283 0.6971692774706897 0.6202135887502415
Ni 3.308343674008839 8.476454195102008 2.536953848722264 -2.2526398959711207 0.016734282035545372 3.0513857460347316
Ni 5.609188906962107 6.917721451706622 2.6887081178604317 1.0709308011371363 0.9636618061451274 0.6010832956786939
Ni 4.812585805816636 1.831356321327866 4.555682276713857 1.0256747575128142 -0.5986353483588335 -2.0771209675627778
Ni 8.016116523183422 2.9895375975559317 0.49008867429876923 -0.48843401021137817 -0.6114052464299922 0.5427143688214976
Ni -0.08605765190959204 2.9271651728875234 9.575612817221012 1.032636276432312 1.9527014289334115 0.0016023114901133695
Ni 6.151120396266627 4.62274968523185 2.9953921173683673 -0.6247125050618597 -0.24082597714626913 -1.0935238559463039
P 7.545860271582606 6.585643235678922 3.8358018051103833 -0.32804293858340927 -0.7164913748380692 1.1237913965815935
P 8.427012870019318 0.2753689498445256 6.362398458831133 0.9808856262225816 -1.4224188581173631 0.5879647560188648
P 4.955860494559802 8.12790185293543 7.978898639709126 1.238505534997738 -0.053777707942088034 0.681835989547729
P 8.842314316714088 3.175470704932428 11.76424547310263 0.5601258794297257 -0.7324743805298869 -1.2452371972946166
P 1.0091657476688216 4.633691384881305 4.893742902549897 -0.04098055617741975 0.29589540731658714 -0.4033109551887893
P 3.4021675643362865 9.253665383535415 12.024577401428903 1.5098589913089029 0.495465720247179 1.1251563952499204
P 9.03840283709856 5.528968722865497 8.743992487864075 -1.4298665726446602 -0.6953517646459767 -0.38216028925310314
P 1.9321715314313292 5.599402953942291 12.935977404896564 -1.4675736002771307 -0.5552937481484049 0.04615850083393341
Ni 5.916371203787411 0.36767142288738225 6.9974518644855905 -0.8736207449956309 0.6490109725979081 1.317870090269995
Ni 7.818237542856311 1.3941809486672188 10.028213618054135 -1.4665076209064616 -0.45582110927236336 0.37744437183467255
Ni 6.757451603507938 0.5878553658332326 4.965661604912466 1.4403661866244033 0.5224049678401842 -0.89294155681143
Ni 9.427396837969487 8.622087743769603 8.722016249901474 -1.074781285231478 0.4131425965672304 1.1404719425610683
Ni 2.083536446581971 0.38141438711375836 5.261669158095781 0.156312273572905 -0.924159634285447 -0.2845797251934518
Ni 3.2415282561494396 9.506584428765844 9.890491249799753 -0.37984372530478455 0.8769721779663671 -0.21169820654237734
Ni 0.850329214757552 7.73864259873967 13.553630192441828 -0.3428982584286869 0.2627312618597927 -1.3691458577258355
Ni 3.9086308947771187 3.9204251943992587 5.343030878822486 -0.7866986890910903 0.9408784897020247 1.1505681504548058
Ni 2.3866546835374782 5.878155778345072 6.404631524811423 0.3795115387763464 -0.7905481447441676 -1.0293946295665626
Ni 5.13330549554157 2.4050518962814103 9.552318838633962 0.4066770434475448 0.4092162649296307 0.5202064175269686
Ni 9.278940236059004 7.348047604586702 11.106106502187776 0.23593033961686466 0.8507330417641801 0.35118338125561455
Ni 8.035688429223054 4.90044149633529 12.62212588161826 -0.4011347734730769 1.369914360460744 0.9621710805322138
Ni 0.27958931970931533 6.381322388891523 3.60142491461924 0.9109529057871859 -0.5951257925436783 0.6218452108163935
Ni 4.606995532403241 8.229437036349161 0.9824462118581829 1.9185684918054442 -0.3428792322652934 -1.4197842487079932
Ni 4.57115791355139 8.283832914606451 4.52172606180173 0.4633354153715375 0.21897262871660353 -0.09444433242351476
Ni 3.434462156634981 8.240359789332556 6.518673402491136 -0.3379954218104308 0.7811114248112999 2.580573048449543
Ni 0.39923277920956773 1.5888295224311593 7.6724912615256615 -0.5314917606328008 -1.4277058175479154 -0.17337565681309497
Ni 7.961635384928865 8.630708476826749 0.15762110428354242 -1.1556147117397777 -2.2475218580182648 0.9637268550551079
Ni 6.04992625284197 5.935118929853447 11.131993332025091 0.29895322030630445 -0.8591446628666429 0.8629154427629848
Ni 1.2084467812843496 4.133452034241071 2.0054183950846807 0.30875915065313275 -0.19209405915820466 0.1271518499588649
Ni 7.319144465512687 8.684403328439831 3.0955820874918616 1.1497862779834584 -1.676854455627267 -1.9298461216017926
Ni 3.3062405940762165 7.190430289636371 13.0405630015459 -0.5374009270283842 -0.7907450912463221 2.919899273256255
Ni 0.8945194713418052 0.8068617734834748 2.9213381257408746 -0.8234243266468981 -3.2865871779053717 -2.3724566457211527
Ni 5.765849415276424 0.05570698754861903 9.586718405531885 0.2920035284613487 -0.014328757917846293 -1.6118266286926561
P 1.987325276331006 1.8634425002999042 1.4443498257265988 0.028385236010912408 2.296699605294496 -0.744805134181098
P 8.969844325961674 0.08428519129971063 11.074521462533017 2.1684704631110523 -3.6069913689966007 -2.205007124584506
P 7.186176763105977 2.1324851583471087 8.196193216080877 -0.3524385938189543 0.4750079666134594 -0.19818217433381352
P 5.580342607886271 0.10745127989085969 3.145246983234054 -3.1780863673887914 1.7855738099125573 -1.6648762002194681
P 6.556114856624938 1.4278586475882684 -0.013706965560862676 -2.5364662879383157 0.519231712318525 1.067021181670085
P 2.3628671442995723 7.641351468523304 4.831723833203501 -0.41117698820042736 -0.9843087929715179 -2.341333184843471
P 1.8531923539616268 9.167003332978519 8.08556363295851 0.6838941576283384 -0.030371927423638017 -0.48495787873731966
P 7.608820042898863 2.7434867187721275 4.803508458107451 0.8514413806851142 0.40163485303794705 -1.06613157997628
Ni 8.163720525121223 6.250893539736809 6.387535948025789 2.382274660252839 -1.5665885827904633 0.02119360335847963
Ni 3.3602196456801945 1.652054547072252 13.275896698673057 0.62954000835749 -0.2751010962790552 1.6267428836828566
Ni 3.49679668797127 1.4375498672777858 8.1024233237517 -0.6921021473604274 -3.1110463951201583 -0.7749502903059106
Ni 1.7633283168406488 6.695069705506501 1.4781525726436422 1.234868452465783 -1.0352225491022495 0.25966110757490124
Ni 5.190694947036286 8.145522252370917 12.665731633554572 1.8579110260243874 -0.5771229282083544 -0.11908372823874976
Ni 2.5195844926120685 9.495311162460348 0.6488437365459824 -1.2480343004237795 -2.3004207628998254 -0.46408437772242006
Ni 4.615123652142835 7.622215335803045 10.274472910164596 -0.15398182566751545 -0.03330658457192973 1.1860905117311316
Ni 6.574976262687332 4.755850014300978 5.237322692209116 -0.037061937849303915 1.2225125020035914 0.4259873137403825
Ni 2.184531650013001 2.2914287399216158 3.7090609245041812 2.1522342037578484 2.8327874699384115 1.0096567848180031
Ni 3.1382499794582213 5.288440797238084 10.93962783152134 -2.1001667936386474 1.165586992461141 -0.17665252779215382
Ni 1.4734159061287266 0.5346161815388845 11.812911879543476 -0.9922540159605234 0.4386528250231929 0.8956545848672187
Ni 6.22054098070923 2.852647935274872 6.442900000918729 -1.9764717918801316 -0.697849848477482 0.8318976542252319
Ni 6.782555936036991 4.285688496030458 9.079807933772045 0.32689648368379187 -0.2826030610830552 -0.5049957712248012
Ni 6.210726607690324 6.649957693618445 8.986883062749127 1.763163817648473 -0.0010510669723336737 -1.3884450722750799
Ni 6.170796508969587 4.57169789353409 0.4633615598217066 0.46710645237819554 -0.3544967618995637 -0.11595392436051644
Ni 8.171422344874475 0.8571528565389392 12.730634385475248 -0.46179840990172083 2.9524815780676508 -2.2099292444764713
Ni 8.493070421236332 4.335252974442534 3.053098925519584 0.24415864106392787 -0.8521322361045518 1.4497144606085226
Ni 9.571097826698997 1.4100014148270368 4.846879271384625 -2.107167136215881 2.1206829113141286 1.9841817589298794
Ni 1.5862906691791647 4.754353227682263 8.335940982937037 -0.22010031456314352 -1.7116245121186004 0.6484712980443542
Ni 3.5203758138825196 6.10605575104372 3.3069700407195137 -0.9484491029604311 -0.8278072862059421 0.4084071387647741
Ni -0.05883697678167524 8.01349240993416 1.9514412381473087 -0.050152709594991046 1.0041775068709868 -0.4328156495161256
Ni 9.096625941899903 8.6491435829028 4.28992875989461 1.5959927469841932 -0.28514305389608957 1.826242748386829
Ni 3.886472768820344 6.244754819933478 8.571953918042432 -1.0611369549751661 -1.1373141136583766 -0.992756923738871
Ni 6.205961521176319 7.170147883619503 5.897817681048487 -2.3768552890094807 -0.4479548191504092 -1.6241717805215705
P 4.644765711193178 5.693331050933067 1.2165597436910969 -1.9478477003855357 1.6772714885600275 0.48786502508178564
P 2.15708740422558 2.6797690808134833 9.38215125208571 -0.6423510440792292 0.4997792600208683 0.13945226459277274
P 3.415723903901975 1.8452631742156584 5.987248786850001 -1.3062091089922987 0.5790201452310673 1.5227795560253128
P 5.040817345171328 4.824351685439686 7.072753494073112 2.147644527504637 2.070036807022487 -0.5329364634991273
P 6.934640824497901 6.83929172755265 12.907235312484056 0.892795775262185 0.2963034413882833 0.891744194069219
P 4.203848371985747 3.5837239918530006 3.3315533399319257 0.09054911113416662 0.18189963512370608 -2.3393146117515453
P 4.80841753928351 4.239278637517315 10.900195082784668 1.9451192457107793 -2.5941518155752417 -0.8369020494183587
P 8.142235005809566 5.134631762165745 1.1590225082011145 0.9680205973344553 -0.20495780249475024 -1.0211089925190027
