# total energy = -381171.55903782335 ev
CRYSTAL
PRIMVEC
9.25232009948605 0.00000000000000 0.00000000000000
0.00000000000000 9.25232009948605 0.00000000000000
0.00000000000000 0.00000000000000 13.54170570444549
PRIMCOORD
 96 1
Ni 4.165875608077169 0.2689260841689751 6.824085663672229 0.6010840670096422 0.18631704746511138 1.1337528786696798
Ni 3.0369630292459195 8.292715677854725 1.2300987266165215 0.6215238229212329 -0.7119047839086513 0.7460346357128249
Ni 1.9423210438874765 5.074805025350797 8.210959402178766 -0.6292990959912774 -0.6468520172733764 -0.11668386054800547
Ni 2.183695569405447 2.7503631633135126 4.131479183051655 -0.04858536510787116 1.2328215972390832 1.2818126824258054
Ni 9.051146857161651 3.89729000928611 7.536094252349982 -0.9041340830931396 -0.1647254373372647 0.1996351047302562
Ni 4.785818060844959 2.4941201594718923 9.809923148006519 -0.14893732126507253 -0.18342532773961315 -1.4700565145999844
Ni 5.750890556194445 8.590038982727464 11.497503764828826 0.1926771853551843 0.7733747182886745 -0.008147825918115
Ni 2.397359396367517 6.155068905348348 10.265967227676216 0.4926855863988805 0.8233597919575497 -0.18149108683137777
Ni 4.960816442309498 0.7815601289730485 0.295635681695243 1.6294034612341552 -0.05827353892991254 -1.2130313019860335
Ni 7.30931433648212 5.546192227362815 1.175356449796542 -0.46843442716099976 -0.5776772580499276 -0.1293231465785708
Ni 8.834226213541257 3.98808302595691 4.965363957615082 -0.11303520805182468 0.28153913859491514 0.0637211923080451
Ni 2.921160991474419 0.7966867470261506 9.26323038785883 2.2515039825944645 -1.0501192637084238 -0.5569189424566539
Ni 1.5095437734526762 4.088082101079504 10.712830230158263 -0.6166436120107961 0.1608602979549036 0.09824468000621145
Ni 8.43583981673994 7.197000423370243 13.40876662076557 -0.08190120565118153 0.8158902230533819 0.27265674850362076
Ni 5.7176932318476785 8.98968369505586 8.890847636563809 -1.77393082635699 -0.0008600340074501317 -0.201386283093408
Ni 5.839370492852233 0.23496451818590774 5.030649253134376 -0.14826574911934465 -0.8577254139216132 0.3282414277474605
Ni 9.074740273294386 0.21557905721284537 9.027144488482614 -1.4493182536113682 -1.0363731177669246 -0.02646256506690281
Ni 6.428826551048505 8.342419141174357 0.7883827897794328 -0.8541353825775096 -2.9010325182587393 0.7322139277796487
Ni 3.859050170510973 6.957790940744454 8.145132845936425 0.9536643286127834 -0.3543190986711188 -0.24390024519621867
Ni 6.454631271673683 3.9092625114334667 9.008308615320644 0.5666233142286113 0.7076526935005167 -0.609623471939221
Ni 4.947326559673604 8.323340857227022 3.087752714939662 -1.2669126253855212 0.8448470152970481 -0.40643253153690645
Ni 1.1886640617274107 1.7811641332208092 10.261890655461283 -1.5952687243339754 -0.41081420554436987 1.4626905611532164
Ni 1.7306094564563892 3.824094905354315 6.0945124706076585 -1.0930476876408337 0.24366704613949006 0.2652036346596852
Ni 7.516769856689264 6.921272033498999 5.825181134820404 -1.0739343638501504 -0.6565939271514887 -0.8779872494944427
P 7.365975544480896 2.876361257782376 2.6675669268637017 3.4108059133778426 0.9350433710774865 -1.2672432692520625
Ni 3.1868228571290294 2.298489104291274 11.42131831105621 -0.8722696302843752 -0.2838978686350788 1.858810140799889
P 1.518157683421138 0.4237386789759491 12.034526925290113 -0.7026824939794349 2.207023640793902 1.7959530962643522
Ni 6.6551105425615775 0.840677827945644 2.4529038493360096 0.13189604951206962 -0.2913880063645369 -0.22468304883781948
P 2.85308242053141 0.9535070952844201 3.3879312857804638 0.04971665049883695 -1.6732348565968085 -0.6366552792460326
P 3.7339865603673665 8.067236638186182 10.11695398707787 1.4824389474247373 0.27389884844083795 -0.2485418577332881
P 7.522404519600963 5.304049759280524 10.568637448307035 -1.0832075616219603 0.45497161678787446 -2.6850781075431693
Ni 5.6160564960758705 3.641333827366103 2.092789674430011 -2.0077410343070583 2.410318453763933 -0.37206536691094627
Ni 3.266374304936585 2.4353864317814566 7.039290001922967 0.2724631444355759 -0.30883911196144875 0.1187145178247891
Ni 2.207307490178287 2.7018995108808563 1.8368510719181035 -0.8028027937418045 2.3168848219931193 1.0108099245858397
Ni 8.57529078456449 3.265615614692317 9.959274098286764 -0.25803899859044593 0.5985607863671563 0.021197974233853813
Ni 4.277329055424205 6.7708108048125055 12.876645339467862 1.158630872858282 -1.4152117988459625 1.307864899428167
Ni 7.441789054987422 7.6622348325476475 9.48887596928831 1.2742772932807087 -0.33117171402037804 0.8990199017950259
Ni 2.1264884745236006 8.355714725089157 7.827782894311018 -1.5066952488689405 0.18808596644007608 -0.11380499633831369
Ni 2.713464910945923 6.90906822335034 3.3742683847595965 1.7823082517874078 1.017298360523661 -0.5129798178715423
Ni 1.1152098928341583 1.6648902271266537 7.968156318444758 0.2742202363359987 1.3741078297168012 -1.808191290201757
Ni 2.7705332210269886 1.2508118955170537 0.39777666890988705 -0.7912721673943856 -1.219930600209028 -3.147503609505928
Ni 6.541806631204131 4.714899027645969 4.022820861592345 1.149087452144221 -1.0998274295668282 -0.6441425887620132
Ni 7.007892253826323 2.2388856585159456 4.52794017205014 -0.14062803006842878 -0.4264603967220591 1.595528405753265
Ni 0.7893246759607317 7.139636039047512 1.736168250343663 -0.8255963945975524 0.9535609702656997 1.1429941947622895
Ni 6.183223715266747 3.6365226209390356 11.729527895702192 0.10882811194901257 0.628382240603963 -0.8236696098884847
Ni 3.963656901019489 3.254059466947302 0.16273443123554207 0.9318647162391888 0.3980934155435918 0.15432378238796648
Ni 3.6590335156256812 4.38643241347802 3.1048556285558826 0.27674017454437505 0.19444841832299414 1.1566619220573693
Ni 8.693331883788588 6.081327914533483 3.690155544584774 0.5074254637122164 0.6267339063672626 0.7801426331401274
Ni 2.904423544500254 5.789722543452914 5.964877289126333 0.923607361326403 0.011352448898341737 0.05313004705576011
Ni 1.4924732429566379 7.473746568447214 12.75261706393808 0.3629379506883814 -0.34826337939534213 0.8252482672295143
Ni 1.632248041983009 8.297628659802365 10.531303411664995 -0.7835357179820763 0.20079235826315095 -2.126157304165138
Ni 8.083483712197589 9.10652199267319 4.1389948426299386 -0.14185547471762666 -0.5988973437709685 0.49832041608715466
Ni 4.493962877122985 2.1897188297593333 4.539504646883202 -0.2714352173916938 0.28198831031719174 0.4732979259008881
Ni 8.222074214257297 4.6612818329443195 12.360611992276663 2.256292148011727 -1.0737849827564798 2.3087732486295787
Ni 5.463966859060217 6.517917140829728 10.088001627170984 -0.7970304100344016 -0.4810971102303328 0.8152695587502475
Ni -0.132838334683347 2.3198897205716738 1.1040266135872412 -0.5424521162990464 0.46848327812106416 -0.4434034523343009
P 2.688909253527773 3.0710023147174246 9.111320245852186 0.22591640702428833 0.3433132344789184 0.08551566247531724
Ni 6.256492837758959 6.165958886049616 7.957457860768568 0.07362328191310545 0.981936178974283 -0.17496485567708578
P 4.599522596596862 4.200294238670808 5.452459748611477 -0.10997713795179123 0.6023943011806335 0.3301193614964637
Ni 6.690667208521619 4.616176772690559 6.387040297997418 0.0554196144208852 -1.011516463734561 -0.1232957094375683
P 8.477503013934337 8.72992480959446 2.0039692523943087 -0.592995890684869 -0.469476752382585 -0.4247958645354426
P 0.782589912194842 5.61898022921232 0.12533932928115765 -1.1178146101728683 -0.5393230837517615 -0.45324203569127747
P 5.273591121669164 1.7387422457821444 11.86698961471555 -0.1680709567707299 -1.4488881080524851 -0.12768046876882527
Ni 2.9211239821942105 5.084048093082798 12.562843652582417 -0.8735883490957987 0.4038421451019109 -0.2824716777115135
Ni 5.627557129900573 2.4794552321893875 6.608947942125868 0.4252627768695321 -0.5906592721318924 0.8237292594818265
Ni 7.3229430039187955 9.023787746767727 7.015334820076196 0.02438125705784188 -1.8394229945225289 -0.4160299454173545
Ni 7.792063387518061 0.6626678163041617 0.11038850530904448 0.658486259078195 0.10460353234470371 -0.7621665082776808
Ni 4.842284970122641 6.147611535386393 1.8757293207768322 0.009865579940170106 0.10950868295580496 -0.6499759076143388
Ni 8.792729558107798 1.5494027682369225 6.003783294945218 0.38497076211870473 0.3021187625184797 0.24411493231018608
Ni 3.489308956590813 8.618295568166435 12.450961822816971 -0.5748775838176035 3.501517518231802 -1.6591614092228781
Ni 4.0954839571211465 4.5301301962064615 8.030204227177839 2.0307356954300184 -0.5156172554943894 -0.29991686977115445
Ni 9.17194514776126 6.584441322003992 11.165379708544302 0.35421034100739646 -0.7510269467210937 -1.1251150004890236
Ni 2.5075452758674213 5.689464403368863 1.4097454736752122 0.7635039961421819 -1.3153612078052122 -0.3932887950660969
Ni 9.266661148134132 4.340966512742229 2.1785892139687184 0.34542051062990836 0.5077609926747642 0.14323024357796624
Ni 4.093938819672454 4.575383293581055 10.737841101722974 0.4351309279128635 -0.3707613033875421 -0.9387233910322349
Ni 0.3670071533447781 7.908661124814039 5.8619063688030195 -0.4163461911061926 -0.5705758711184561 0.18619003496894385
Ni 6.846938894200801 1.4766517756676263 10.09203748917769 1.2387245929870794 -0.556109559181481 0.3174379093740533
Ni 0.1673707688136261 1.9984086080430243 3.513693446088 -1.4241376405806827 -0.08928052883438817 -0.06376824349589663
Ni 0.2107585984657255 6.448857823961202 8.60086512242037 -0.697689668750534 1.0174796232965315 0.29820760038953154
Ni 6.468093397349421 6.358916020735189 12.39125660152107 0.7563761268481489 0.2812380624147286 -0.6712864961666568
Ni 8.64571944480072 8.823178943399105 11.407275139681202 -0.2806299965170844 1.2921379756112135 0.5683832343425114
Ni 3.2081124455688044 8.075711763353864 5.329771209025233 -0.2555709966659276 0.40849404205162554 -0.03465847061413386
Ni 6.756839801533904 6.897937682327719 3.0439448299571996 0.5650045476782656 1.6604600734296437 -0.4291461710843383
Ni 4.495711565612823 1.7445619550948859 2.2989211876377045 -1.023855187805572 -0.9830448386574295 -0.5472454239226318
Ni 1.5612179809433948 5.227135222687804 3.9713085697025376 -0.9474864819368457 -1.5320627810994518 0.4164161251121796
Ni 1.1188182976544592 0.5847623562338664 1.7446054409991305 -0.29462965323028617 -1.6266094434287854 0.21075461168218543
Ni 1.203467773810696 8.751695518676941 3.8349025404071186 0.7703696129137636 0.3207669737472863 0.1902894018492981
Ni 8.958512628800491 2.2485543329703415 12.184258145924499 -0.20302793246188908 -0.7468843853076298 -0.24484075473261704
P 7.279336819513467 1.6297684202090588 7.800726334782799 0.41300349988620483 2.000630648514522 1.7755027988298
Ni 5.130170908542284 6.357528172727382 4.539965412421795 -2.0666804889557437 0.6896032921979736 1.2111595388846175
P 1.4523274262507777 0.3936279285985463 6.1637235255250395 1.3238301645081716 0.9579866101372212 0.3161348742919136
Ni 6.909706633433932 3.0332158396248383 0.3770366682812041 0.789723334850027 -0.810985586662913 -0.9484434465334762
P 5.3130615190112245 7.53941953617669 6.448587656215682 0.053384329158411285 0.7167888514738301 -0.05110144666150554
P 5.437033355388689 4.885104707323544 -0.028231604174830685 -0.18305148933996218 -0.27262332416252405 1.018599852943904
P 0.11898576110141255 5.874122206967746 6.491013244582368 0.09970635215340247 -1.675159070202715 -0.19857606733812252
Ni 1.3650687958398617 3.6134750916893705 13.180359221800554 -0.43629795163777124 -0.9348507954507062 0.5794058107052602
