# total energy = -340897.7628641464 ev
CRYSTAL
PRIMVEC
9.00727145676664 0.00000000000000 0.00000000000000
0.00000000000000 9.00727145676664 0.00000000000000
0.00000000000000 0.00000000000000 13.18305224593549
PRIMCOORD
 96 1
Ni 6.211837641468989 1.7998689835073585 11.321262736356774 1.8754665184096475 0.41518688069076887 1.692426341923595
Ni 4.726115259660056 0.4902946010141562 6.020040408968327 -0.337785876902786 -0.768294989772922 0.5486279060924552
Ni 2.6652515824917296 1.503358619046239 4.862700621173223 0.47819433476124096 0.044087477237517624 -0.7918686633278039
Ni 3.3939128101660567 4.143173667340751 4.882844482744986 0.45055394733615306 0.17838365155064762 -0.5709718210052941
Ni 4.943406672894359 4.654444401796295 2.5369601164066062 0.8527778401083507 -0.8794088124323177 -0.1276025643430383
Ni 7.179389718994096 6.1725929603438905 2.663160994819217 0.25757979956584026 -0.9616388621778278 -0.16525379903690895
Ni 5.075318161321501 4.7081637679266795 11.433041171937733 -0.0448022439163551 -1.3667696441841752 -0.16757241986775656
Ni 5.6263289768245395 7.801747130593507 12.310399838864251 -0.5494776556872601 0.07719685819697672 0.12863614781387522
Ni 1.9524161305201329 6.210720739825768 0.5087604079396928 0.0384611321896757 1.3625833740169695 0.28555571595347595
Ni 2.800486754034585 1.5513943969760409 0.35527110034723397 -0.32746675436496503 -0.2823413227812363 0.3459604422937783
Ni 0.4430604702315045 0.025607672352227058 4.621687658200325 0.5825299581565386 0.33603726964279546 0.32300974703487595
Ni 8.455638999071269 2.2374332167816595 1.3256748799710798 0.31018945534175607 -0.13816079947485882 0.16575490704304355
Ni 6.833411420463883 0.69045058129634 4.851442432754986 0.2433284318531487 -0.0036450529517550127 -0.9278355404751375
Ni 0.7672186539979918 7.405823512614439 2.4956311526989174 0.24905247882111944 -0.7751698625158843 0.42219930745285994
Ni 7.488366146956968 3.9086153149931095 3.7934888766638832 0.38490725587062097 -0.34474405338817404 -0.42076077523412053
Ni 7.618142912082147 3.739008396107272 12.613135128532061 0.26480048568399556 0.11013963167158451 -1.3027890275671563
Ni 7.968534773557344 8.89779694071688 6.869451314454643 -0.37322879109142815 -0.24180993832609324 0.3236592076934168
Ni 6.829817519208682 0.4656462030571145 0.3762202119746732 0.15714376833526483 1.0211264760204994 -0.34211484329544306
Ni 2.0086575326190794 6.630702779490661 9.136368933163062 0.25259648741863594 -0.723124820994187 -1.4424076425344643
Ni 9.134724205420708 4.677836285404714 1.4391412781967128 -0.4805615494418368 -0.06089323594094674 -0.2905752806552544
Ni 6.527929813771734 1.9760061740975097 7.139413647438114 -0.9000465432873274 0.6380660435506301 -0.30805903926231465
Ni 3.4130082253566023 4.27443663223312 0.3750087339826315 -0.11592024290910358 -0.4108653704972795 0.17469926072052494
Ni 5.797431102748882 5.5316355334763285 4.775547164643883 0.12138820800221028 0.3227122703991152 -0.22648127838882287
Ni 5.294023716152464 2.8003786667787893 9.465483818334906 -0.05022084382876512 1.1823660116916928 -0.8890620192513656
P 0.3026100885965145 5.581454751126758 12.430918930530542 -0.400713112554626 -0.7147641077343174 -0.24557274780263516
P 3.944365174847485 6.183086431427375 12.573968810667415 0.12908711930836478 0.13576453132854038 0.7479696479520086
P 2.375415606075985 8.317098158955334 1.2599794458985496 0.4980728188527228 0.4398517304273005 1.0509451020438287
P 6.298595678787543 7.742578365316765 5.735498005905169 0.11238549028296775 -0.5388687698231622 0.9104196589915353
P 4.734158752945507 0.9183363470528701 12.759387994349009 0.7449820260785944 0.3226323090907992 -1.1535349463926134
P 4.095164911224898 6.203794148183537 8.190551401324177 -1.5822725691846233 0.4162587735987089 -0.7989957612908886
P 4.749002736074761 1.0627048917104485 3.913889973075932 -1.08185541846944 -0.44722051208754593 -0.3579389548118932
P 0.12972722513294063 5.474520426059702 3.5032908079412235 0.6828124945283853 0.343362342549299 1.1383032170445233
Ni 1.3603681869000537 1.025883166569434 2.5607942570366546 0.09651021381360797 0.6065546032059103 -0.51996524805044
Ni 1.846986019762898 6.244570065432406 4.923500603285348 -0.1934199770584798 0.6627326930593747 -1.5474158665167543
Ni 5.865805299310878 5.649324540495042 9.282305643756809 0.844942660334648 -0.3570601517513657 -0.25607776109901703
Ni 8.600079601899377 2.429693423027979 10.187308527080166 0.0017509212528356943 0.3982278842389271 0.1356028089396955
Ni 2.2751196399690383 5.156239486827097 6.997432029679354 0.8943777750373241 0.7101299513964158 0.4458652836112321
Ni 0.4609930466951165 0.06742483016525884 8.982760729589229 0.5078489244028802 0.17337797080594008 0.3728498104854547
Ni 1.5047727606428971 1.1268006343972046 11.279459089450715 0.36415125427019224 -0.006931694122826772 -0.6426153534842095
Ni 4.185507842527338 6.792464365060006 1.6818809350809452 -0.4522907275216017 0.5975043200781839 -0.3142782806991491
Ni 5.709267931104986 7.814204186823943 7.998394778697994 -0.889810467381616 0.8681072713765695 -0.15477166855866248
Ni 5.456821137923182 2.8682574634183893 4.925570474233831 -0.565387127828665 0.15772303787750255 -0.06791414734347014
Ni 0.8283528058759502 7.468883419099821 6.838971609047432 -0.49702175188038916 -0.402222607220617 0.7044717246693738
Ni 4.9107192852875245 4.6188206437403485 6.947191271731323 0.04689435055869343 -0.2039923532576874 0.41441503552175074
Ni 8.087097485893738 7.1933419822630364 9.114353360611775 0.2767725704442072 -0.3057458177481057 -0.49748583600100127
Ni 4.622171348670009 0.4252071577554759 10.308962534932313 -0.7182435816424856 -1.4755697311087297 0.15454592570110157
Ni 8.216595025608113 7.111069566059997 4.841370501969105 -0.3783388586244839 -0.6544601686379374 -0.23868450532323407
Ni 7.152692166812597 6.1109652099978 7.022915401687416 0.24103577916423008 -0.1544091430129212 -0.530634297728512
Ni 2.3126889686293053 4.915655269968854 2.6438214825760005 -0.36554684906613816 0.49642551305728694 -0.09934974014493213
Ni 2.251853858159048 5.23989001554153 11.480025801304924 0.3773821511381694 -0.790751004783593 -1.0646904766543794
Ni 1.00836402385924 3.2457612115556342 3.9633921347760266 -0.20011255858730698 0.07869066913368383 -0.444039543256403
Ni 3.6957104428898413 2.5469410737521927 2.548494828054254 -0.049510962245934084 0.18529683373071315 0.729899163603543
Ni 1.132024851760656 3.4739874521679206 8.251047838392942 -0.366558321049788 -0.5827410457260803 -0.08931523872706552
Ni 3.645711079813087 2.5474725027598546 6.962536959872896 0.7000923646547556 0.2248578838527869 0.24318676406896184
Ni 4.097876099891103 6.925150478820349 5.870821448706923 0.09668607726983994 0.40561132118719184 0.5058966857725158
Ni 0.8782188613372232 7.278235514419118 11.033212901843049 -0.33038804177681813 0.7097681971816228 1.0034833090174395
P 0.22491516767641595 5.6398849201555645 7.884586104162342 0.12122211473799123 0.11100403655440884 0.7061997631040741
P 8.567563352447552 1.8164243481867088 7.944001668673152 -0.8628552789490108 -0.28029035378947853 1.0637803061352842
P 1.8076782877385864 3.2480040221133915 10.385384728415419 0.38702455932393987 -0.014940937580548461 -0.11940023103790404
P 3.7480877255940976 6.085105334048716 3.771895745137329 1.0100208530256412 0.3653709856099062 0.47256978948561196
P 6.937805695019743 4.020782864694932 10.446896284961529 0.05543735503269807 -0.051390952877466325 -0.03633997208161483
P 6.278149172899553 7.6624586869583196 10.213318824460233 -0.5961943430175087 0.7938191021859554 -0.2767867115115943
P 2.3487811047937 8.400550527700808 5.680432052712999 0.05383890019732663 0.5240191064048394 -0.5112805757922485
P 6.912558313520168 3.8778554834479615 1.4471955802077439 -0.9395029495107369 0.9614414014550411 1.445814354223168
Ni 5.301175489577601 2.8923969505460603 0.31207583002280903 0.2613035282743306 -0.1432893789506758 0.12310081981794282
Ni 1.3008661525846081 1.16425286853036 6.8818435183316025 0.5248346603275994 0.15077848823886936 -0.06836563305859193
Ni 6.945957275560991 0.7034759963468344 9.202284144655712 -0.019932220147552766 -0.509945916141225 0.08191380405667183
Ni 2.806854894855205 1.6106982713225282 9.006423732064269 -0.5638112987011129 0.398215800054069 0.9838951024728668
Ni 6.150191876580266 2.006892107441086 2.6212393526589164 1.796421037039706 0.5179160788308951 -0.6215896431621618
Ni 4.07580828516618 6.810424864064697 10.479589977658286 -0.02960136780620063 0.9841606974294276 -0.3625409723602789
Ni 8.298047780121369 7.063619260765755 0.4652985223843055 -0.5833611958085824 0.350410507645332 0.09923943981931295
Ni 7.57281832281855 4.003660041922656 8.261502578209765 0.32754774411454557 -0.45538119352146733 0.09250674908116971
Ni 3.1757927279706535 8.420618728193514 12.31324703732733 -0.6951049387424931 -0.6473269000272658 -0.2107975491049789
Ni 0.2064376512981681 5.004620088759901 10.020846947337981 -0.1725189652397545 -0.39658983441487183 0.42148582632560305
Ni 8.381229930727354 2.3463221197243516 5.734377501353421 0.895043176535465 0.5926945573943664 -0.43181394772448856
Ni 3.668256279917774 2.532502417832172 11.411579546572396 0.025460863275265828 0.6776726021986587 -0.02156435643433706
Ni 1.0562736999906137 3.2110021515460514 12.586440278531958 0.4181133103089444 0.7464583535138047 0.13643250392984246
Ni 3.0411880654199397 8.55701583773617 7.70256716540265 0.8998274852979858 -0.5893819480813656 0.7852095061400736
Ni 5.547407265551162 7.871337308783203 3.691900367123049 -0.8289694248348433 -0.0303403028547542 -0.28365464227602116
Ni 2.910402485907334 8.446028240576782 3.5353386792846018 0.7326402166837899 -0.8622533836989538 -0.02104036561006699
Ni 3.4604945597361105 4.359555346172109 9.244878629983338 -0.2857364645057144 -0.18764939312328974 0.15730137695905166
Ni 7.453264810637365 6.1925350590381685 11.34240820649891 -0.29043952640833853 -1.5218485595706113 0.6487145244034118
Ni 0.6801417592748403 0.060508146521475806 0.1577947832816479 -0.3854515584098652 -0.8549776759731469 0.5217339099150886
Ni 4.578197850103857 0.32847717036265084 1.7743594904124789 -0.371532891446244 -0.8053083337724776 -0.5122036018271501
Ni 5.991114457863176 5.681093186427614 0.2964671295588012 0.37789328644663306 -0.2870960638574024 0.9651630732810024
Ni 7.915860250899651 8.581515615716494 11.360363301140811 0.22442182475663283 1.3444115882039493 0.28083979853504537
Ni 0.010990672460143321 4.82145722654304 5.829519506813184 -0.20368613487117823 -0.3467250883739448 -0.18205955774033805
Ni 7.894936359631897 8.822045788946838 2.470082027610246 0.12098403058525616 0.22999160553492648 0.5321893009204577
P 8.384751773812026 1.6585989401825856 3.54458013965512 -0.13839451275221973 0.4194471986290195 0.1776010077483522
P 1.8230897289607673 3.042566177931332 1.6378759110651855 -0.8936205851563255 0.07221277471882402 -0.5716413362684929
P 4.874969425433148 1.0988150424174756 8.248991478351432 -0.30062469447145646 -0.76718735853104 -0.9992407316910018
P 8.595134609946731 1.5480887284029605 12.27259091678697 -1.7115921162187686 0.14683235910692777 0.14722882321439804
P 6.263350226126881 7.715619602267093 1.5212191373393207 -0.22060527922402007 -0.34362819461617594 -0.8856974736545068
P 1.8449864055306806 3.230764104814003 6.055147149650719 -1.3694374208243254 -0.2861090173537847 -0.4239797963920504
P 6.830583137270567 4.047183176922994 6.100773482503412 0.7902326703862778 0.08416891863943568 -0.22833838620221966
P 2.393925548630971 8.609221982285417 9.934444697236419 0.5569323121930925 -0.11852528463211845 0.9536668997159446
