# total energy = -340889.315125128 ev
CRYSTAL
PRIMVEC
9.08204255252617 0.00000000000000 0.00000000000000
0.00000000000000 9.08204255252617 0.00000000000000
0.00000000000000 0.00000000000000 13.29248730255300
PRIMCOORD
 96 1
Ni 6.600183640947996 1.5834722684337148 11.4058846551622 1.3450299385142384 0.8195424750939886 -0.6350804785597449
Ni 4.644429369696038 0.3513506195415437 6.269348447138104 -0.32113721260251143 0.13632811714149426 -0.5812143246689087
Ni 2.6819634690600034 1.4314842877266498 4.865316449180397 0.045455304119321714 -0.20722037327668186 0.21163110074986777
Ni 3.7965480489401267 4.31029194524467 4.895743107857708 -1.7776159885180611 0.6899910145546955 0.7347981435670571
Ni 5.259501613819449 4.300646816143332 2.7764021794624143 -0.4680793578144261 1.2011363503206602 0.2881214197981231
Ni 7.26745038313675 6.097601574836997 2.514513311050651 0.49165277425899195 -0.5043103151220024 1.0523201280144845
Ni 5.261753960351589 4.680684883229508 11.442412629969718 -1.8883104642518513 0.22589660952994645 1.0988115867078043
Ni 6.051846244881682 7.9928421971226475 12.412857022039638 -1.078118320024511 -0.38764933739213236 0.6266284911376498
Ni 1.658798728665827 6.345604908518972 0.4710428572313203 0.03286512615913695 0.8027110053589466 0.7489988605474713
Ni 2.8543951273632207 1.537299164524858 0.2901803389047767 -0.40448569222318087 0.42172776713308013 0.9438208601598004
Ni 0.5769285739607813 8.939781355080349 4.781839764037229 0.41343673076888154 0.34964971821990753 -0.13318802885061579
Ni 8.635187814778375 2.24531703126889 1.5968664646659694 0.5086135704830467 0.35263502610047653 -0.42732351605330277
Ni 7.023397737928488 0.6268580106345286 4.718394431762151 -1.3395771429297834 -0.10655011454811328 0.9248607741175298
Ni 0.6101824724584759 7.442833705242165 2.5652374264403752 0.19465127836241963 0.5272604961602726 -0.7744748933313887
Ni 7.4563841126048755 3.7715633501098225 3.6461821210179 1.298507369472667 0.299106200944401 0.9813466250194002
Ni 7.791793023001804 3.6047534760944853 12.569668475501619 -0.7129666495142625 -0.5158257719607697 -0.07589279467357252
Ni 8.214743740750714 -0.08659455032253682 6.8853888369886365 -1.9436480604818915 1.3532083605599725 0.45561310702661534
Ni 7.043387313401225 0.7435177543441386 0.4108016695390608 -0.12628255998003413 -0.09573682598269317 -0.6654698894848796
Ni 1.6108092162633094 6.781697341719518 9.248779685979452 0.7416683883243291 0.0212095441980796 0.48517847938855796
Ni 9.070144992670382 4.607483620934978 1.3058605681008237 -0.24601960553206662 0.4578890475449856 1.1967665033877388
Ni 6.471581919596814 1.934874655617328 7.090332390919888 0.05202215870356202 -0.6712283892352117 0.30758415650842513
Ni 3.2544046058371956 4.648725175783546 0.36782544457904687 0.41905536250723957 -1.4853131836487388 1.1693153491553216
Ni 5.898087265893298 5.5367491242493605 4.842785718225029 1.426559362648298 1.0783456055439686 0.3093862427141704
Ni 5.110992055377744 3.1645650417407336 9.274460977467074 0.9905552881018617 0.09130193013979114 0.4125466148544443
P 0.10537439773849555 5.347597425761996 12.345091362162389 1.517519078957322 -1.66128051244841 -0.3696809258391698
P 4.172871560656765 6.328076566555145 12.61349387143242 0.006949434734639645 -0.015488325443586227 0.38354148587134596
P 2.36767030740188 8.380609082349348 1.275740882458941 -0.009645493509564033 0.3857814309454582 0.6364092246734976
P 6.315579676118759 7.838683608265658 5.712818140561133 -0.45393520510356017 0.15358793266320644 0.303924962489283
P 4.930659020127103 1.3893072825038466 12.48526088100545 -1.9669859638768832 -1.4444976922942734 2.2041087811399525
P 4.036513775037651 6.229236698372594 8.556293928264713 0.022199418915174674 0.5025614507516958 -2.3917026384349587
P 4.597874820003513 0.9156878498242684 3.6626514968299224 1.021495172213828 -0.4213395305557259 0.14415121273033882
P 0.11821004835894938 5.567945940127984 3.475506929728053 -0.3976969514361215 -0.8679992850437954 0.16463133496156163
Ni 1.3499457104462176 0.9235528986018197 2.6780636400241136 1.2814306164960383 0.49650393170370616 -0.9683851797627258
Ni 1.6943095147168952 6.6136704740134284 4.606165816572828 1.426245430952305 0.5105274996763078 1.3559419574410518
Ni 6.125238230068046 5.6515370590062535 9.361008301168777 -0.3487840277855025 0.5217369952388821 -1.1619972182273535
Ni 8.666066759170608 2.2424471058489064 10.262876915173274 0.07407373918696275 1.3038555211584577 -0.2747663386474558
Ni 2.1144992915554415 5.711678344231361 7.136284801196765 1.960654622342217 -0.5768784162977162 -0.8524577377647705
Ni 0.569835498793036 0.020141245581957474 9.248925906863192 0.5910151128094143 0.7078085023520907 0.029494667025007266
Ni 1.5720379769661201 1.4229017575941025 11.46171287841911 0.12313681526220084 -1.2971667962843725 -0.0891098075844788
Ni 3.894979225211604 6.598321822241994 1.7018639576420302 -0.879337335764434 1.3218635277001043 -0.3555264887156587
Ni 5.672462084853226 7.947677199927773 7.886990992154566 0.48989593946888527 0.22059345214947818 1.7549943944638033
Ni 5.200613650454966 2.5455239450586746 4.991528685158169 0.5347496054484662 -0.9621456266109172 -0.6439407571638522
Ni 0.8029860602223454 7.635872517905964 6.803773062347224 0.5268447487790926 -0.8501134059023101 0.6800747838822482
Ni 5.141453225816435 4.770379134646476 7.175045142042992 -0.037550961670580495 0.04104740485961318 0.3587689069123563
Ni 8.223253614543516 7.28468809974159 8.922036860505777 -0.6622624382911756 0.5327981381490502 0.8055860129138965
Ni 4.4729513258519935 0.3561495707817954 10.640104090115509 0.21536562809163554 0.014932967160748475 -1.2739227381547673
Ni 8.135829873743624 7.12865861013613 4.7884460417286725 -0.2722677405953182 0.14731238406713984 -0.6000643674958762
Ni 7.254853590233212 6.249371586524823 6.969702886447382 -0.8154454222064794 -0.3622717778592922 -0.7146180690747564
Ni 2.2642167616454305 5.100229835052804 2.9006063758504443 0.6298832506295217 -0.4124666535461283 -1.612749911837874
Ni 2.441416492244507 5.168399645819893 11.586835269300687 -0.5260495065713069 -0.4826559700770203 -1.455711815842538
Ni 1.0052731167316178 3.491636637151761 4.067594340772681 0.2905948210392802 -1.1117568340145627 -0.665914433221466
Ni 3.7478138090552076 2.6486959474986063 2.8933489157140224 -1.9820125191927023 0.20217972552898084 -1.0029256367417567
Ni 0.9410812405656461 3.75074730877247 7.911953894082945 0.3777932705336591 -1.5931485926671787 0.3494458297392175
Ni 3.950452340608004 2.700100307869206 7.098719657139366 -0.6061172585581756 -0.20155211924731092 -0.2688044646370661
Ni 4.248243431101219 6.961839654078324 6.304161732327607 -0.8924391632537148 -0.3788795616193023 -1.0851245761390151
Ni 1.059592812734543 7.149883343384556 11.648406068010305 0.07071896378211692 1.005677745565597 -0.7487777456756007
P 0.030948876119239067 5.719661459561001 7.838646371891538 0.79100091601087 -0.30477882584914606 0.47521648307983966
P 8.69314940981109 1.7346337832761642 8.1076991554023 -1.0002704585070967 0.13693181216376418 -0.5774227188369604
P 1.7862288665385984 3.318078805582474 10.316099500446027 -2.4175098293060495 1.3382859349221854 2.0314347783795723
P 4.178139145288381 6.155799302973889 3.7818587534518917 -1.4580463775129855 0.0332667324729298 -0.11316016366546318
P 6.858286205854724 3.7535354958102394 10.483133700910331 1.5587027522844832 -0.19871027892314166 -1.1183419434312483
P 6.55192166727143 7.730807107827144 10.322613141304295 -1.3887458913449502 -0.4364007957642226 -1.1611209862699874
P 2.5198762571281845 8.421596340008804 5.7563247568012965 0.6035826650617798 0.5204992661770391 0.5240016229033427
P 6.783186796684319 3.734726585858382 1.3685947764506328 1.7783484958087115 0.983873248095996 -0.2837068356701953
Ni 4.906800494562868 3.0173088051596553 0.5669728390070267 0.2560708191204816 0.006732433627827115 -0.04653516744706179
Ni 1.6158679139181547 1.258562199130144 7.365047827909636 -0.21387567380967037 0.5283190193317739 -1.753442219485335
Ni 6.880137600033462 0.624205146029537 9.28795235155374 -0.12160855154313249 -0.2525098412421006 -0.9499619400605316
Ni 2.871360382694012 1.9203070594981682 9.357033999384646 0.4452829287452009 -2.0838737129055787 -1.1687823594699873
Ni 6.3905791828220115 1.9767337893537404 2.468508224927458 -1.1906094826474076 -0.8569828793286337 1.1088216626456386
Ni 4.075775444628128 6.953838374663749 10.511911968879646 0.06690473224234929 0.8130800072980964 0.5624673830787087
Ni 8.196543327644234 6.650697961156703 0.2643610003716356 -0.46439316721209056 2.025919504988298 0.7454455959785743
Ni 7.633729155883445 3.9165581581162936 8.008882900530166 -0.6296235692102319 -0.04158707941316709 0.7108030662040404
Ni 3.3643608940009506 8.511935416441023 12.582468706156446 0.0069082970840590695 -1.0838300256973077 -0.11034686258638415
Ni 0.13588279479802187 5.059978222833282 10.021897633136286 0.03639036570357604 -1.1845745893072372 0.5580276021398002
Ni 8.648238709805328 2.654063434597374 5.830270746578226 -0.06662833865251105 -0.8630941344326942 0.6003420466372951
Ni 3.7078346581097343 2.925098827978966 11.463759970791468 -0.3686020909526942 -0.16634188989476514 0.5587130582425991
Ni 1.1420577583467422 3.305491094721405 12.912402053149235 0.31519025099045717 0.19352847761188607 -0.7961840028737062
Ni 2.9269606466849685 8.509238049827937 8.149783523791925 1.3815689139805367 -0.25810121928694907 0.2636643151970233
Ni 5.397221705808809 7.983551267677573 3.316209721242497 2.6523932157156387 -0.5293207211234109 0.531518242995362
Ni 3.1590068317501316 8.342509914194814 3.421565954896056 -1.853925301903762 -0.19550411328101813 0.2811107928082449
Ni 3.036317520045815 4.44207238145976 9.090041023105696 0.7120024858287802 0.05210546244598768 -0.6227355838411468
Ni 7.264135437635819 5.8871070765491185 11.398773415909519 0.8761483965134911 0.5614929349805814 0.4703288159702352
Ni 0.49266175112287075 8.846590517313084 0.2766980468605796 -0.17210681740300035 0.059263413647007615 0.1155194079262591
Ni 4.839557052127547 0.41533179232225065 1.3599141602594278 -0.7376803502108586 -0.6911842635318484 -0.12369834419262567
Ni 5.7395148043967135 5.613828418677856 0.7467146332929815 0.8633003369062293 -0.08361458879786245 -1.8576965960207361
Ni 8.288998519971567 8.510173500202171 11.211894044447725 0.24894732070182288 1.039588796490745 0.7995089534818811
Ni 0.15744083900503475 5.104970661221259 5.705786823282173 -0.6270714922123394 -0.6792805701157268 0.07664689923077767
Ni 7.864031588794694 9.133537649099145 2.5312487907069943 0.6076043846266633 -1.3605228919435148 -0.10867873085534187
P 8.71456486595135 1.5562897153260815 3.801198962888145 -0.015297806699334943 1.8267842227125959 0.36457240096801086
P 1.8316844890924593 3.0985930852509744 1.6827889438458516 0.17621749713726426 -0.13598538909009486 0.4787265531156272
P 4.715042249887101 1.1638183321007984 8.495241714180032 1.3286340136547181 -1.317752333745208 -1.0874534813825079
P 8.644424251968639 1.3830770013705902 12.39798245288505 0.30746280043921237 0.7486653884674526 0.16362037719854403
P 6.634159561821921 7.77677132475923 1.3536938693728866 -1.1841184756064251 0.534861191325666 -0.48359519406183815
P 2.120820393113381 3.264894364888087 6.078959774466557 -0.837158645513855 0.3283077622090217 -0.18638492458856934
P 6.710721179829723 3.78051824398357 5.909081986505427 0.6975099486395601 0.5398388470459154 0.07906039376827674
P 2.340987266630003 8.600385428039834 10.473376862686633 0.07323324556353838 0.16937322052192122 -0.24028090327607654
