# total energy = -381169.06103618594 ev
CRYSTAL
PRIMVEC
9.24561369511916 0.00000000000000 0.00000000000000
0.00000000000000 9.24561369511916 0.00000000000000
0.00000000000000 0.00000000000000 13.53189020375989
PRIMCOORD
 96 1
Ni 8.64813448938657 5.763040706438005 2.239283961521003 0.003351690081052292 0.4671223932177956 -0.47618656030259277
Ni 2.7243402959941445 2.81332008310229 2.786094524176962 0.19972046535521087 1.4197441394986776 -0.6184644672696188
Ni 4.9858821481514894 7.897668018109739 4.47758049148931 -0.896616691670172 -0.6820254798507157 1.218194591354528
Ni 8.682611383206838 1.7787728825356743 3.4676007358836003 -0.44443909268766685 0.9312229688901317 0.1285710989038947
Ni 4.1599159946713 1.099238760250292 11.96522218014877 1.5647268469913762 2.8113645241779452 1.66019730668656
Ni 4.064787874393275 2.2764920096546297 7.307207063631774 -0.5370859668911266 1.089857205727994 -1.7666078103330156
Ni 5.208165194873647 7.7171751457151805 0.09507449571804734 -1.3854273684946787 -1.261059251928538 0.08358887776624958
Ni 6.970684288367745 3.637695991010721 6.541180224347565 -0.9023160560477945 1.9248173009286333 0.26935082405883937
Ni 0.9069614285199022 3.17856805584827 6.3831957987230385 1.2410951501017853 0.8414765561629185 0.8876286292389488
Ni 1.3981309628305232 0.8680780751676559 2.5614242599744093 0.49968464342453295 -0.3946584217201139 0.0935236203814583
Ni 3.904727808473052 6.379482760225259 6.8994098516660936 -0.692939041439426 0.34338085449206024 -0.5979918012375637
Ni 0.41066335224036105 5.626566201294267 10.8868248825023 -0.3639702486076377 -0.9414878411512495 -0.016404409499952394
Ni 6.353114269698199 1.5481410465617857 7.079519955649775 -0.6052518252340867 2.286670246082952 -0.0904696640464829
Ni 2.9479824479433283 5.883178212016065 10.503196629543206 -0.9351323312468668 -0.28893003174234755 0.1568123531377751
Ni 1.3371468942763534 0.9368487996551675 13.441510939147074 -1.176583857792277 3.021290212200932 -1.646766635102951
Ni 1.2558687034546876 7.3334914190733524 12.231232357287384 1.3961946343135117 -0.02789184131426164 0.4407359328044668
Ni 8.655262857618114 1.68493914818815 5.910066306038085 -2.4206730575253794 -1.0525376433419293 -0.5620385230714062
Ni 5.885961141766642 5.708186479826136 7.894788933975753 1.2147822232388692 -1.5358654426749936 0.3472138550849052
Ni 7.15110319585199 7.148144599439417 3.8341393963145656 1.6007981387926367 0.46641945361349996 -0.45082571294030105
Ni 1.0837338659256492 0.28136991532676514 6.4155369557579816 0.941672960578862 0.7549630485507063 -0.16417727814327854
Ni 0.21768890123025872 0.6088329136386665 9.013118962139554 1.0113614262139357 0.5076877162346676 0.5520595574818234
Ni 5.464388889816296 6.61321187681856 2.4557265540124655 0.1756423413600846 -1.0941530048898704 -0.4401561490415968
Ni 1.6136462202589195 3.951020596716037 9.371253359636052 -0.35079128802351844 -0.5434473903327802 -0.10836582760061336
Ni 5.772351039523822 5.458083381211998 4.849667444755228 0.6169259191379053 2.2370723805501664 0.7685274174987023
P 2.0667737520721197 1.5117503106871324 8.024018576154203 -0.1700021123551717 0.1090983348912637 0.08118258231760213
Ni 7.624755990277418 1.7835066367957917 12.69754136067998 0.2610219924781698 0.1156281655899815 -1.6789326783125345
P 6.937936324326074 9.136201195709504 5.5003071748263155 0.41152408712720095 -1.0809750727470158 -0.5478288072299276
Ni 1.0348523058216625 4.500968196130702 3.650321801201378 -0.1468292737831342 -0.7945865764795993 0.059082665094769206
P 8.12199434547933 3.5654600104749825 4.809112484429878 1.3578579435168423 0.6210240004666788 -1.2480579545728634
P 8.595101648691191 6.100986381664206 13.02663620982569 -0.15868694445266862 -0.22854330312417412 0.191204971685032
P 0.6719231330140372 2.76109161080658 1.374826468713234 0.6189802305637727 -0.3460810270320427 0.36188354128193806
Ni 3.590487887002596 6.135444784256897 3.7567776474940437 -0.515968211075905 -0.9506535668109176 0.5336687136794616
Ni 8.237028272245702 2.4910457232489396 8.252301101664232 0.3653211062085773 0.5360045609014897 -0.2115261997408873
Ni 0.0783066505497874 3.69986349812992 12.81961212410138 2.6979619054843726 0.13796770962744623 -1.3477450234525563
Ni 5.891397562674746 2.980804376895315 8.987001952307562 0.30411676678511496 0.3410501494763546 0.7378765253820647
Ni 1.1368776539864998 7.822122107837434 9.624706144126051 0.669403420211331 -0.9879659301081308 0.134942035427245
Ni 4.849731239490375 3.64071006110603 4.430137548890937 -2.5788876903273197 -2.167103921780829 -0.32423693457375774
Ni 7.659094199890848 9.314123787470638 7.647020352843413 2.020571610412823 -2.7481968903805254 -0.1157765182423877
Ni 6.592390754565075 6.67342855942822 11.974139574648541 1.3090622621703778 0.011044687849935819 0.31163647220092777
Ni 2.755044979388383 2.21485150252142 5.176584027292183 -0.6768256808173311 -0.294515496249925 0.2426360337718144
Ni 6.862843449129444 0.5067594882821251 9.822839647630579 0.44411590502029324 1.8113452624497064 -1.0548894314035575
Ni 1.545875871183409 5.238527790557682 0.7202906369913392 -0.480741783773443 -0.6174905333921237 -0.31180565078894046
Ni 3.7229775326031502 4.589652123597592 8.622277281302056 0.6098792967037691 -0.19915533688036025 -0.012156947077508095
Ni 4.446261899339462 7.516406642280705 11.312998676435576 0.172663975458051 1.044071514852447 0.0851719059826533
Ni 8.614702349924489 8.445304214077082 13.09539214133114 -0.06438582247523751 0.6250318360744913 2.2868165418528292
Ni 5.495195274962216 5.492061011887647 10.28282927399819 -0.33382560670345734 -0.2000840193422167 -0.40072545384980024
Ni 4.301050289164842 1.1480556010577538 3.7410804444025842 -0.015433046725618583 1.1242289983396445 -1.225466699535909
Ni 8.240430658120161 0.9400847644814199 1.2383815495336206 0.4780318410414477 0.48014811605350216 0.35614483902594796
Ni 5.193557125086565 2.847963397970767 0.27694404000583106 1.323864874400849 1.3796192464533337 0.47320433774581727
Ni 3.3390811568441685 6.612139385619003 1.380050240504184 -0.31942074413203697 -0.9379286630450814 -0.8967516745861395
Ni 0.07868202246963266 7.448331187950148 7.077760515345673 0.05950689711638139 1.4130335602477213 0.05851882217149922
Ni 6.3698950587257634 1.9335259661408437 4.749571656188217 0.8358967480822959 0.5731477456106904 -0.7918290683391201
Ni 8.900216149351616 3.096032461551261 10.416294331853516 0.14921320063427848 -1.1429306885142059 1.1625194092794109
Ni 1.444516207211401 6.906630676035531 3.149845632050456 0.5834383289034211 -0.07102081129325187 -0.676573455597209
Ni 6.8398958357044215 4.187246029032448 2.848598571638092 -0.32042116037209334 0.10937035760572777 1.484517684330637
Ni 5.680172270044581 7.87349998366453 7.232173360363396 0.6570502979626167 -0.3599541854697091 -0.7918959170213136
P 8.840313817610792 6.3459674102390755 8.906581754445542 1.486697465590775 1.289443973718818 -0.15981540163015703
Ni 7.694199795448791 4.745209575602429 9.312457727865809 -1.3020140970743446 -0.906320035000865 0.17149540907124658
P 3.834821722612215 4.51706480973786 1.5111604405273757 0.015036582618148298 -0.3958496138147376 0.027722662726249032
Ni 2.65257584176166 4.729168435678007 5.635558485265732 0.4097813934044814 -0.7684639112506185 -0.12541301289088722
P 4.680046489615499 4.256625114907295 6.6757418119983 0.25914714405296013 0.4886494686562939 -1.1707903910389514
P 6.66924029638167 2.0732271904970454 2.246862591144086 -0.819797271417272 0.015434589387515352 -0.43300616826037686
P 6.043108839343238 2.162373398653399 11.160304591021282 0.005844374595918967 0.2839305216452271 -0.15400445137533475
Ni 7.8103062134147185 3.541282730415984 0.7935722964466465 -0.7178080367669637 -0.863563617869945 1.9222734514608573
Ni 7.136171529582283 4.2719173601147835 11.984396658586382 -0.7512855996991191 -0.3349862026704618 -0.5424755133378142
Ni 6.560410176467914 5.503017064227958 0.6511935423370656 -0.05015759469099749 0.6110586617238508 -0.5449530283440293
Ni 7.068327215596459 7.461506187599889 9.403337488607654 -1.6798485052585845 -0.8954206144795418 -1.0698830765989122
Ni 8.880763377938944 5.141208459811594 6.966055009543447 -0.10770016899215645 -1.3017965817469 0.35428438877844143
Ni 4.481385986124983 5.530596730161416 12.627039857291111 -0.26448629687768643 0.33978105295594385 1.4998401736203202
Ni 4.902255571427342 0.3698060603441008 8.248526117554064 -1.5809451086224513 -0.4206149936848756 3.600006967258968
Ni 3.6043193252313768 1.07628190121148 1.2279987252482458 -0.7235840200187926 0.5156601929171829 -0.8814446119154239
Ni 2.5653527212734795 8.294933551408036 7.576559530155218 1.1359619705058566 -0.010429165753123974 1.4197811633842
Ni 6.4113893734121055 9.107280915776599 11.899416524003485 -0.2954084403778396 -0.641648875805882 0.393033227411865
Ni 1.9873909120772588 2.2500403086034653 11.26948049689076 -0.586557591258693 -0.24214469595769267 0.04214140925474033
Ni 4.346104165160062 3.653885060755771 11.462458646146377 0.044133757094420765 -1.5607591205928797 -1.147347843745295
Ni 1.9181690016368298 6.959598797434385 5.570984344877179 0.786334363773136 1.4282164386357465 -0.17659879173608295
Ni 9.117552792696502 6.209335729660919 4.790465005978255 0.27575827024707994 -0.8475564438084112 -0.737879096485226
Ni 3.642892025960303 2.2896577636905815 9.465868348348772 -0.9326884976920646 0.3751203516871862 1.3893578138973361
Ni 6.2860003592017275 0.09935336577973168 3.2200891828146014 1.5809564214763612 0.00710344381400067 -1.36213240252248
Ni 5.742062408750102 0.5971926858779478 0.4261044518298576 1.1044217338057303 0.7971630789575239 1.5570099379630928
Ni 1.7311672171346097 8.396792478524667 0.8892551535520292 1.1123772412073811 -2.9453274835213725 0.9704045241855997
Ni 9.10595879300473 8.277246692229122 2.2633845029855504 -0.3629762601254845 -0.394960526341565 -0.17388576368029407
Ni 7.090331776414973 7.9004786847016835 1.362093409402621 0.12915242532866145 -0.33204280377142165 -0.015206789647425424
Ni 3.2768951584973904 0.20548006822149867 10.278255468856628 -1.6136893929330078 -2.301252000551869 -2.378807527639845
Ni 4.720708699060805 0.4536952124998627 5.967807013274971 -1.4420659429243294 -0.1860365401102151 -0.8743712500084102
Ni 8.451776143729587 7.978779787883197 11.028544424348706 0.8647576381780462 0.6115893374163403 -1.4545165099828563
Ni 9.24792519273931 8.70230454057803 4.477757082712685 -0.46795388798015536 0.01555877367020546 0.8409921603273323
Ni 1.6476515877759355 5.96291238533492 7.953950692052054 1.2190250576756232 -0.6239450307682157 0.41192929298541964
P 4.189982730714077 7.304413963706029 9.180968457677256 -0.07995230945492682 0.24642738249344653 -1.5885056945785287
Ni 7.384961751038341 6.636788191981255 6.090527743345759 -1.6657732581124407 1.1314995638591288 0.8916459779284578
P 2.2421907824963565 4.3043417276738305 12.031772108204093 -0.4281884351567593 1.1327267513980106 -0.7449915391602911
Ni 2.8891895898572204 2.975654570014679 0.09608411674383802 -1.2909082169691704 0.9063871407933746 0.28055826273888457
P 2.8696628535342357 9.162717616057193 4.6609515234564745 -1.171347291983686 -0.7365665483213896 0.6062715247478526
P 9.336128348289153 0.9605453077971229 11.264189232119147 -0.1237767628390449 -0.06201809357400932 0.6051752063598803
P 3.3226332099130182 8.702507944081395 12.848394644388824 -1.2716174870603583 -1.4537924873326382 1.0606314760936573
Ni 4.018023559847036 8.496922475862698 2.3010576054927783 -0.001639592485952015 -0.5559154408928039 1.0987159416702046
