# total energy = -381167.8200842904 ev
CRYSTAL
PRIMVEC
9.26816905325954 0.00000000000000 0.00000000000000

0.00000000000000 9.26816905325954 0.00000000000000

0.00000000000000 0.00000000000000 13.56490225032756

PRIMCOORD
 96 1
Ni 2.2192537771973693 0.8444979415075762 0.9780717186473689 -2.396588248662034 -0.8716042287862344 -2.142907527040284
Ni 8.295734091126992 7.257838195802946 5.820034714289771 -1.3183028069320393 1.6065923768769106 -0.9081830563515326
Ni 4.33352700515747 3.3670052786050504 1.0565907188312844 -1.0948256054768628 0.676571655824996 1.9074003910037667
Ni 4.823850213142677 4.157014728277116 6.807546062971409 -0.21655707729657542 -0.39291495666644594 0.12777842779927026
Ni 3.388081094705125 1.6010205700929316 2.6026566081925604 1.9985256863563772 1.7842345222758433 1.8800183994463882
Ni 5.024821187775052 6.361569189584108 11.034342688601509 0.826423518484538 -0.3467999074759382 -0.604128767373237
Ni 7.451357562632129 7.436435810687924 12.611316994458887 -1.1536195356866197 1.3981638422247404 -0.08994413056031607
Ni 3.2305314914134926 3.162697763165275 8.260564170566326 -0.03800527559917971 -0.7450308770386589 -0.7077987321600777
Ni 8.12719243950876 4.892304908707827 5.678973183488039 1.2211233349655486 0.7158046331836898 0.35778648839442895
Ni 5.322598186666567 0.550012996212696 9.67503040276552 1.914212528829594 -1.8408584414174747 -0.4723584448057543
Ni 8.343631988050996 2.8873497330346134 9.423578492534078 -0.5964152007790631 0.15360850148849675 -0.24952736157500896
Ni 4.428952072249102 0.3734562321215766 7.639969434023761 -0.8263970361219768 1.7804873965285852 -1.4054076682713472
Ni 8.839395611186045 1.4161484048562591 11.419883686164109 0.3684845915382235 -1.6735279623571953 -0.9245147036320207
Ni 2.271896976603009 0.8844780417322432 5.978825325398378 -0.951194269805736 0.439664811227475 -0.3767977393896092
Ni 2.4035420477927465 3.2870858580989175 6.134917045720554 -0.43964038574744285 0.27568036582129296 -0.8075819602980027
Ni 8.157656910714099 2.2761881388080814 3.655984931567721 -1.1414677308154342 -1.2672592100916626 -1.413651139227062
Ni 6.895378646092424 7.241980358798887 9.693954150044823 -0.9567823054164749 1.476648051774573 0.2443401609471147
Ni 6.631671436112024 2.0219808019598613 10.838627692557678 0.7217739633932473 -1.5092321563581814 1.046966834122371
Ni 9.351582429628628 6.818035776543116 3.522574274200734 -0.7405047070335311 -2.0771762462807453 1.0378193632951482
Ni 8.729910731858787 1.373375805339177 1.1665325188857776 0.09370308338211604 -0.21249113475731793 -0.10110297539061297
Ni 8.830442560019524 7.358332951288043 1.2996975697766637 0.4525869186057818 0.10980615959156574 -0.8938859230025702
Ni 5.417050096022707 5.28939033746403 8.825474821484061 0.04025550508593712 -0.09717947196649071 1.0636823471048389
Ni 1.765030087114446 3.1268021449789996 1.4851805073444684 1.3095237751878286 1.583251902378757 -2.1740194179537395
Ni 3.095725974625635 5.870041119640674 8.113480183607237 0.05291973081716693 -0.4509028460351396 0.2955339102121104
P 7.232258049612882 8.646145021255236 1.1555886650375067 -1.7163445433020892 1.0504221396608233 0.29186700288348444
Ni 1.1971508416950156 4.860839475260266 4.524003632133684 0.12278637390131758 -0.5438801069948247 -0.1912895609790383
P 6.909911134942432 7.959614677457108 7.460452416782966 0.7620999167058037 1.4298408616130474 0.6076236679003729
Ni 9.270115224914619 7.3495003863173425 9.71765193112938 -0.4882581467551462 4.65543067389944 1.1925509226444948
P 3.3276155607399147 2.3613811474236877 12.870745090853797 0.21681341628175563 -0.46889028375149566 -0.2063845076389478
P 0.48004388184774216 9.061173625020123 13.457182917697496 0.7418763905700771 0.5994547589363354 -0.43651906650964173
P 5.099531897354078 0.7832075405094254 3.738636608268357 1.3272492174920496 0.4173913445412553 0.8975062933639768
Ni 2.728539658771297 8.130603125667433 7.175073447441614 0.24110417050832025 -0.8903509132661183 -0.2638684607880294
Ni 6.969477656523425 0.5141155243926389 5.248151619901461 -1.7414966170876847 0.16132026831045765 -0.2594543908807338
Ni 5.497766579055052 2.544483092398656 12.986522130053675 -0.10823161601559425 1.0882690353052675 -1.4734763389148107
Ni 0.8303853007091664 6.1886714985784375 6.539151013156612 1.7805493601147722 -0.9006972894974488 1.4315809842326055
Ni 3.7351925567016084 1.7432962310218008 10.546738761374334 -1.2614965965762728 1.497322292294473 0.78806548753163
Ni 8.295798968309358 3.1657006498919347 13.004807300495118 -1.3154103158755928 -0.5495797284827632 -1.5285488544089223
Ni 5.321411861046158 2.8797591026977796 9.230183319168281 -0.06966532570662196 0.7968650881011309 -0.8842512281262837
Ni 1.1789018171123211 2.5227214317992823 12.673036511677545 1.5992575337783943 -0.5110381207641392 0.12595011634127987
Ni 1.3557940889179623 3.264629084831336 9.634078071622254 1.2329748349874958 -1.3071925559514905 0.8694915533186058
Ni 6.184139363981719 4.182122197852799 10.922771544452734 -0.8590438756227207 0.938893598061512 1.4905767460405233
Ni 3.290357521723952 6.930393788232301 12.431079840493828 -1.406742585032687 0.9074492635093017 0.2853207171245344
Ni 3.1158842420036748 6.556886581181723 3.532490288116948 -0.7970926307309046 0.11930844265504613 -0.604008696855605
Ni 3.49310798478694 8.954330173832057 4.515539013468689 1.1020807443773795 -0.16626578524119104 0.8905080076692728
Ni 6.4326004361060845 1.8479801988539668 7.639969434023761 0.5218017870385465 -0.9601535358815528 -0.9969704475995862
Ni 4.865121369296428 7.590407900780511 8.420317744424624 0.3389801543212033 -1.0159577873353665 -0.1152756673465692
Ni 7.9843328839385945 5.336518976368551 10.263585079388138 1.4029005855787773 -0.8681970028768983 0.7425407636269535
Ni 8.237038777423484 6.110874488752567 8.087177120242234 0.6123257013617325 0.4604238981516973 -1.3631626435592072
Ni 7.976529085716843 0.36579794415170336 9.044154486451712 -0.2364119072389735 -0.6559179841303865 0.5657594235664192
Ni 8.447602306877135 8.933884593217822 3.1225452749988922 -0.9238660143044283 0.9958931553750074 -0.753368964590709
Ni 8.828783557784732 1.7416001561113725 7.154088459396851 -0.2538095338901306 0.15184446760953849 -0.30862211085463626
Ni 6.853699690506656 3.0910084766507286 5.4162215217222025 -1.394709565127553 -0.8834935240246526 0.4505955992073659
Ni 6.138567777453985 7.508875818884135 3.3100662829098835 0.18774118150614763 0.858476947375657 -0.051890775332020314
Ni 6.855321620065808 0.8901010398096026 13.038366413299322 1.353130970354818 -2.2436767732405616 -0.06596936491227348
Ni 7.143913863568064 5.857872013862575 1.306227921590258 -0.7688626893509338 -1.4803643242838957 0.7969118821786663
Ni 6.21759745374481 6.037674490705781 6.820690180118781 -0.26438936628850596 -0.6747631418613476 -1.46354905249877
P 5.913712731541973 5.660654647638523 4.559218039905114 0.8282135205054253 -0.12056545499059881 1.9853138156517935
Ni 0.5511094205946832 3.840386273823793 7.607794058837737 -0.31474853546734827 1.0403616701010276 -0.9785847460035468
P 6.890095789814041 8.936238708120822 11.139348261894831 0.5149032601465003 1.0706510651131884 -0.9091901574598082
Ni 1.608842904652502 4.982595410223627 12.763162039786758 0.17328952485719187 0.35707275015685597 -0.2865648739442807
P 6.153600747425102 5.3249523015695654 12.989872573114441 -0.43734721883789196 0.3089620106925582 -0.7329299800100668
P 0.2810201495032405 4.020791181646113 11.25672498704848 -0.9649255033488995 0.4358089278164946 0.38636224314959267
P 0.10758675833460363 2.7963548506816958 5.228225056746157 1.2417523240698098 0.6610295943253389 1.1878440040871285
Ni 8.44450673846138 5.492696890661586 12.914994109678155 0.6789291003135791 -1.1128654936977092 -0.7573534031597537
Ni 1.7034987137246498 7.72353587899576 5.059694526930615 -1.2332149760227602 0.17420663735482256 0.4244593071316303
Ni 5.964882292091011 1.2249460802544372 1.7843949992338375 0.06925086387702267 -0.7478212952996024 -0.24221977217000218
Ni 5.421647107801792 7.453368755285477 0.7299424469699618 -0.15126622650856528 -1.0714715041319547 0.0555355711734592
Ni 6.08667529973001 3.2713114346150447 2.9212017199763562 0.3405809231494199 0.04019559838227916 -0.384031538133887
Ni 8.146692666894229 4.673400027235678 3.3750565369366843 -0.4743047698988476 0.13859145925437422 -1.0622594986153835
Ni 0.5777850643498439 5.083377478944917 1.3260664371409219 -0.6301565588955664 0.6052549105578802 0.8620374110334058
Ni 3.08731047725586 8.703996931587982 9.525762835211367 0.4789990900507234 -1.0040265831154194 0.9379613160552298
Ni 4.078531873951948 4.67320539568858 12.445702230582256 0.46284382044709965 -0.9681810341717197 0.7295623490894145
Ni 3.3183844645061087 5.667086756861678 0.9267686964660344 -0.003758952821799978 -0.6668837391132708 1.145842462844362
Ni 1.7894609803597394 1.0571551503178696 8.201028233942731 0.8980487961310083 1.7915374836951596 -0.5569420823851052
Ni 0.6719997085819023 7.345403855659369 12.190370664845322 0.3316283419418224 -0.11497459116638263 -0.3472228539459698
Ni 4.203902394789992 -0.01936861938695531 0.1810425578432901 -0.13515903653405756 1.8986270156865106 -0.49000906800798194
Ni 1.0378588226484078 1.9315790824171484 3.015003003875054 -0.062176730639060665 -2.3744338240521814 2.5610578612347505
Ni 2.4275651416060247 0.3505573671970142 11.828838858842635 -1.1400469392085075 -0.7927022149726929 1.0197848743909406
Ni 3.711076781199236 6.118131465008662 5.73307055859557 -0.20999536491865767 -0.258966909721354 0.4694266158709399
Ni -0.08827467477799592 0.3026112757946804 5.178360454379568 1.7480498448251702 0.8930623986600104 -0.10414793286452385
Ni 0.3296604267568916 8.687425445577897 7.33698465102203 -0.23657877183414094 -0.8495097108800402 0.1045125152927942
Ni 3.5401902828469143 8.552999923715328 2.268716141033288 0.29712593728957865 -0.9885421143265749 -0.39415037173544376
Ni 4.324453467795125 3.691984353245782 4.497945248427891 -0.8056418058524963 1.8157207658095824 -1.4743762250212606
Ni 5.374935536498195 7.885534203363925 5.8129269555531184 -0.28134064943086384 1.3488549686872835 -0.5944899587318924
Ni 5.001956615075454 5.4177081360152775 2.7591014457501872 -0.45382207656446355 -0.46696401326306025 -1.7996999649012941
Ni 3.683272274470905 4.287352987650622 10.196112809727389 -0.7638025012192072 1.0373743053379296 0.20401163653139706
Ni 1.776272376001601 7.369834748904663 0.8787076797692236 0.8257321488444681 0.8150137339856997 -0.15890985909675212
Ni 4.852692754788865 8.55595646959744 11.730683389190283 0.16246158100375244 0.7312939870685405 -0.6128882587334219
P 1.3288051810536625 8.346430975061647 2.9259219984019365 1.3844572912719253 0.8941471470837569 -0.21916623278464836
Ni 4.479769442379582 1.9852695849095552 5.849022766187837 0.7536271033481021 -2.0010152855474503 0.1388341713927996
P 2.648184634326421 4.520660603608047 2.8733853829387552 0.8194763977427436 -0.1639960153704079 -0.16786038342182058
Ni 1.0492123295624762 5.646214840477611 9.346461766306161 0.5995881991904061 -3.810426049978606 -1.1126317804203483
P 1.144405692431372 0.18385730074108814 9.88749761411317 -2.448249167371435 -0.5372482035006038 1.8519293545196558
P 2.53241593647856 6.552641759821198 10.396222771468077 1.683491244217494 0.5595841479936426 0.6153338920604371
P 7.853030734998506 3.464580560883673 1.3798079145623308 -0.4569169134397034 0.8046033372856529 3.197975393003235
Ni 7.207410088766663 4.153956232536999 7.736538193158818 -0.15606930432416347 -1.895084035530259 0.3580891072365123
