# total energy = -340859.86975902936 ev
CRYSTAL
PRIMVEC
9.38036844585567 0.00000000000000 0.00000000000000
0.00000000000000 9.38036844585567 0.00000000000000
0.00000000000000 0.00000000000000 13.72911740268788
PRIMCOORD
 96 1
Ni 1.9342694517819226 0.4985834564180248 3.326496201107404 -2.327758788593146 -0.7951743306622693 -0.3622746060727696
Ni 4.8712627465430325 9.027122329182358 13.133548309253618 0.4081407724772648 0.28779720368948497 0.9499894508643576
Ni 4.425911003791921 1.3759499343619888 6.5262317340914455 -4.019028391204478 0.6452453349078888 -0.23248403293947703
Ni 2.1393805836351527 4.3093317873521535 9.0901715362453 -0.661397519187719 1.9260460311294119 -0.38424005460026733
Ni 1.9603281147421474 7.9980208907229144 8.49829562753393 0.9995106975229368 -1.4378233655978916 -1.9671862528131474
Ni 5.581506707916818 2.388279274415068 9.886652974961969 -1.3261621550754579 -2.3734416353422416 1.283085378490642
Ni 0.14601199785456087 3.5584802118837633 3.113392995516912 0.9883909334606912 0.25606233448004934 -1.6529781632303018
Ni 4.872707323251411 6.381183100054745 5.603017768356122 0.2803749430834849 -0.018985025742935042 -0.3957565398802991
Ni 0.6581707231840461 4.637597773778743 0.8614001531690905 0.046881237932570874 -1.293792480495501 0.1836472139424321
Ni 4.670672952179661 5.264487783005459 12.53851403055711 0.5886975204198313 0.7246176034896294 -1.5728816148880267
Ni 4.870915672918293 6.764464946186775 8.69403201937188 -0.37827535237640014 0.4595666923577247 -1.2731251819541365
Ni 2.529782129258477 4.66479146129555 2.334759583443303 0.9719057913214746 -0.3420780765202367 0.33315197767520044
Ni 2.057621294088242 0.7756889144842591 7.079103133639781 -0.016777990789287236 -1.1192449148614918 0.32788250174614497
Ni 0.17135869086565636 1.2961230006717395 12.560082311242656 0.6960387634106723 -3.7128295450793534 0.3662053085857435
Ni 6.274181239584159 6.2888615158738475 1.1316241730972323 -1.8923391257952702 1.3615883570935519 -2.8446297139889785
Ni 2.045914594529437 5.32732686981991 11.487001016307685 -0.9980312847639328 -0.7952535206396368 -0.4443146512946606
Ni 8.005290676105986 2.1975857685409106 4.1905388040086375 -0.037383068634148524 0.22083256474347773 1.2350831395797501
Ni 6.278805761124617 3.897392916258464 13.432663863349322 2.2991352113191823 -0.7682101433685996 -0.05521058373387266
Ni 8.662892010938094 0.9990842601035335 1.8768803589127165 0.7018797955724816 -2.041717391252503 0.6237627395540806
Ni 0.4879104734388514 6.89875429785653 9.88105195708812 -0.824376149037206 0.5590437021091405 1.276165254332041
Ni 0.7361281494848164 6.728716362838534 4.710666152154794 -0.14428876674946764 -1.6153603528775275 -0.2970729725644561
Ni 6.045666088981555 5.643070064651143 10.20931512940424 0.008647391262352849 1.0821801487987106 0.08678553032667634
Ni 9.265843320425972 8.487366560501908 3.559410744412796 -0.5677144904102609 1.2313529831133567 0.5201994755484332
Ni 7.029938747640094 1.398603523652465 13.682753860895238 -0.8715571775983829 0.3793202487011467 0.07859528120640014
P 5.631672917244134 2.5003934355743933 4.521396586178895 0.41745947877502937 -0.3432669546220153 1.8793635394712087
P 4.95640834902322 4.280196363610448 1.2811463047457874 -1.0810100397500093 0.6285915284012915 0.9977073257656107
P 1.3500413572935435 9.106874219926718 9.99508534158858 -2.189018205355417 1.316754745718629 2.501290254257815
P 0.9393219340705631 9.368295702301989 5.379397293899179 -1.3334615169503485 -1.1417744634225757 -0.35057274425480917
P 9.265036608757658 4.124632336780942 5.1103476960742125 -0.13223260691588193 0.10081398339528444 1.015422740767503
P 0.4563314637716101 8.696905226162635 0.4993929821968108 -1.1214663479928428 0.8664237130265595 -0.4709235121314406
P 2.1032098837162807 2.2801892912290813 12.391434546797267 0.5785527186763455 0.4835170325257351 0.046983567838390056
P 3.675856759623609 7.15632982925495 13.080498574730488 0.12417245561556679 0.8646231694827109 0.09093451949804339
Ni 0.4691919486234704 2.919198736216997 10.403306772750252 1.5270522152587378 -0.3518014744555876 -0.7583592187164488
Ni 4.067196342070555 2.1339587307946166 0.7051907570049326 -0.06626118512107942 0.7348228261574055 0.3204532991616094
Ni 2.1887119401894446 4.527425348844315 4.814815442644743 -1.1758798897467169 -1.208075500642655 0.3064734399427496
Ni 5.648276169022246 6.853672248113246 3.176354965155258 -0.25292430307169994 1.2549562243545935 1.549788480513989
Ni 9.114284710833333 4.234879804661259 7.347576776855044 0.34309983291653173 -1.3767666074958869 -2.7275679012762635
Ni 6.245730582723699 2.6581993704123557 2.52497656661106 -0.3180737431858393 -0.25499147001337374 -2.3010172588332436
Ni 8.7118387723947 6.31363506838571 0.5710242881590729 -0.28380710869348547 2.829918890141365 -1.1927432411609586
Ni 9.033416556268863 3.276750232277071 12.509435827061646 -1.7943628689590967 4.25987082341098 0.5418278524514862
Ni 4.724328658490851 3.4999467140897376 8.052168128329683 -1.1891539811478036 -0.1097231129594562 -0.6594406525716643
Ni 3.0213040444682733 0.36050162187036605 11.476128231485081 -0.8086751933621815 1.355384285165369 1.9090006456113509
Ni 7.7021828372889445 6.760618995209924 8.463465382236013 -0.7662843871007964 -0.646449382518319 0.5387260735977109
Ni 4.3544325978319085 4.002227911666481 5.599461670757771 0.01970056375272091 -1.0379990834061221 1.3887739163694082
Ni 3.3684902336273224 0.38223499703686875 9.241576307798866 0.25541030271834725 0.8679769164462922 -0.7594305974037566
Ni 8.884831523407106 7.957647785834215 6.69288992243393 1.9520506827232897 0.9598450035021986 -0.5579584394647616
Ni 7.160288344650636 6.21228018959333 12.449123811450033 0.4014877859371214 -0.6701737227184522 -0.11087805249950582
Ni 2.17762434493423 3.004250535014822 6.74727073120978 0.5254280709372241 1.3077779961413156 0.7730669572402686
Ni 2.7631563106074437 5.28514335386162 -0.011789246799283818 -0.5511182766144767 -0.22419993855381387 1.1081452054039045
Ni 9.153757300371355 4.8926499861216195 9.346563265172309 -0.4997556058717845 -0.36053628322542425 2.3744739332614975
Ni 5.362587674019869 9.214739074275034 5.060950676942268 0.5183007158638235 -1.102389790977366 -0.8356972304769802
Ni 1.5307072495231793 7.3874527222272235 1.843106343078199 -0.7059863615416874 -0.3306510656302177 0.46221004351784273
Ni 6.805635382375554 0.4982945410763492 3.315046523638271 -0.6599733851466828 -1.0644215392637086 -0.025333593668782177
Ni 7.967891147948169 1.5857700110698028 10.146366292281423 -0.3814732904884075 -0.4620863734557848 1.0390077271762945
Ni 7.37142167291152 7.867586870398246 10.632968204351322 -0.2964872752643152 0.2853726534083924 0.20939964031618774
Ni 7.432722379335231 4.7072563883009275 1.820000620038737 1.9174271791121498 -2.8310033814547952 0.5694538416988709
P 3.825389209677224 5.702757347738224 10.235990082557583 -0.14755818152935876 -1.0863029127178323 0.07561125887741171
P 2.7999836363028514 2.402030894249369 8.96236777117407 0.5619652466313095 -0.43002420281391746 -0.932804968665271
P 7.132072196996079 7.625320099961342 4.585909130686688 -0.29767229671135187 2.281569434521277 1.1409689368021445
P 5.255426347289269 8.887711296455626 8.863957389971041 1.950653802375763 0.5367540374730047 -2.590125725134984
P 6.263300012430142 0.6723313270734469 11.612031944528287 1.110549443970023 -0.4306564370812777 -0.3988202664072873
P 0.8898301732194321 6.051753947966864 7.640913086080413 0.5168272166420905 0.9983246476346355 0.6960845290469432
P 8.583468433082002 2.7622651756250027 0.8951207009046613 -0.8000738248464156 2.619024924667838 -0.5914583709944201
P 6.982248955527141 4.278901872793849 11.33153266923419 1.2622738410619294 -2.1743968558978164 1.1921076644594888
Ni 5.255735899441064 4.58568681595949 3.538693263126276 -0.16555616076867616 0.4057172506374368 -0.8047028389779947
Ni 6.405300026790071 1.7948771797916634 6.786631694365791 3.678692751296645 1.1719669278455558 0.27674814496417505
Ni 7.672418928875412 5.68461571556937 3.9675777694387007 -0.5735845760377929 -1.199118291449367 0.16264490065915216
Ni 3.815708669657443 6.805944934527349 1.6838896008575084 0.27993168489847925 -1.3787823523743352 -1.5122249204379181
Ni 7.54202243002369 8.48711329055953 13.319865873345575 0.2208899003439744 -0.030950168524611216 0.05481309118513786
Ni 3.3144593125866835 5.53189394031544 7.362239230445082 -0.39908354737100304 -0.37234047494920386 -0.42521315457851927
Ni 1.3352766576897301 2.1628221238574716 0.9064034078191892 1.1829218841951628 0.021642517970440145 -0.12553694006326122
Ni 6.990381734787946 3.7166144596099935 8.995413870433456 1.064928303696798 1.6643758635442818 -0.8635088533726096
Ni 0.031339810277217724 8.456477007900029 11.775010214411703 0.972278344169545 -0.4357634192905398 0.016498768985971586
Ni 4.994267515224612 2.3094185186531493 12.174115803721417 -0.413651674993165 -0.6372407194358574 0.8585551089117602
Ni 4.1081510297899 1.3163189334843255 3.323736496772307 1.15610399267137 1.4941960879606653 -0.3061119428382728
Ni 7.54835417858314 8.088184990209479 2.0705014777133983 -0.1822179376950733 -0.770846295439866 -0.7872764159714313
Ni 3.7428419691984702 8.434067308183694 3.203346036718163 0.5068842464967657 -1.7765824050472243 1.2387788432637827
Ni 3.072023695521526 9.26790700143794 1.1003556536186099 -0.1413620800209759 -0.1900402619529695 -0.650780148683189
Ni 8.423486252813236 9.00003182571615 8.79263469812375 0.8812492080751663 0.852144577399726 0.12958591332165423
Ni 7.879875152787697 6.031595536627222 6.231962078226572 -0.5925806575243214 0.34771907685609793 0.35551003365542644
Ni 6.599567452962229 8.64413127446565 7.008481155299736 0.2397926507857483 -0.16822008075408448 0.8617782438347481
Ni 4.93445828735046 8.421319387750668 10.81235273827989 0.7715764887376712 -1.0181499098906788 0.8284040392496765
Ni 2.733045328569171 7.485618275819287 10.791031161278958 -0.10455648115685219 0.0031974238913751386 1.1078901519703048
Ni 8.718874048571866 1.0404892054982173 6.367591884517282 0.017213278554492936 0.28148463120789585 0.5462110691208464
Ni 4.183419104517346 8.301138109908191 6.992911620101255 0.02857164099010563 1.0146449820612138 0.27379266188027684
Ni 3.551820150436045 3.5634424266807248 10.897336060389591 -0.2800522696367435 -0.9064753296318067 -0.16008202502798236
Ni 7.008401422169729 4.069532053761375 5.506488150984456 -1.0304858057482122 -1.5937761989488486 0.8923741143437341
Ni 2.2087765478467234 7.403793323694723 6.407571013940061 -0.9327064954141936 -0.06326816393102652 -2.5484609984063464
P 5.454665368626624 0.5397773435273937 1.5299868372426377 -0.34657159351521605 -0.06427989302499251 -0.31312874047573813
P 0.24526755023567318 6.195977109598776 12.161251566722262 -1.4007768543675552 0.21699056528956825 0.11691268872935993
P 6.003989112908021 5.151576290546055 7.464946758337125 0.4746924922555696 0.7226278267531103 -0.6668431156833224
P 9.142941735794992 6.22002837375645 2.7121599386912227 1.780608495487482 0.5130734060266132 -2.0291878913269246
P 8.389004019176884 2.3353083349851222 8.111327296685063 -0.22589223865457225 -1.378417769946065 0.25167089028057305
P 2.9137675030082244 6.2710200554885525 4.013885833310458 1.1086105750760973 1.7507860128094106 -0.7270503813008382
P 3.174485457765779 0.11586630845381422 5.102096724173631 1.2770036910729363 -0.26887465575336916 1.2489858657037716
P 2.227612327265057 2.5065375767691185 2.956991301803912 0.09291324049096902 2.058185307000539 -0.5475884090843472
