# total energy = -340858.10513085424 ev
CRYSTAL
PRIMVEC
9.34001040232695 0.00000000000000 0.00000000000000
0.00000000000000 9.34001040232695 0.00000000000000
0.00000000000000 0.00000000000000 13.67004932652219
PRIMCOORD
 96 1
Ni 1.7222138828222966 0.7603487757462819 1.4841986583183149 2.751053900213346 -0.6651053070566094 -1.1457617302050975
Ni 2.2180470221695927 4.79688931135082 0.7126418699283206 -1.1381605208190722 1.7671459422246725 1.1303824195355499
Ni 7.1726330714174455 1.3852823427312317 11.747616808437513 -0.3310891816089007 -0.001276295609262318 -0.7634235206132336
Ni 0.2620115795741699 7.983243245863402 8.60477704901309 0.8744769223483391 -1.824387697455961 0.7732075965831909
Ni 5.717599530000177 6.188653621394333 12.478116778511481 0.3442406313891942 -1.4645065313160328 0.43072457131505176
Ni 9.00790778178319 1.9004212838573225 13.392301131799037 0.8520651303120422 -0.1460908529552129 -0.6452188525453274
Ni 1.4403136848118594 8.24522120139964 11.051045360638168 0.7206786734465395 -0.030272682841612383 -1.2005177429000549
Ni 3.0379691871203662 2.054699577898022 7.82923394412615 -3.5682407305909645 -4.0354525981987726 0.3411115988419093
Ni 6.348405161609379 8.914451636355702 2.6972923028041946 -0.8424129519342589 -0.2136082790808966 -0.752977128468929
Ni 2.3652549282342172 0.681638638953705 9.709384603116266 0.29220356028729677 0.49844922835553507 0.5212577416096184
Ni 9.260424306646028 6.466406854726596 4.160424567357598 0.643136258984686 0.22758788118944032 -0.7734163701598874
Ni 3.9127265539305025 8.722318279610864 -0.13176233064053552 1.1445036894282805 0.10032855911843366 2.2041229222073393
Ni 8.328991755900853 8.738896798313021 3.8678039052534503 -0.39422596216838557 -0.7654297524099849 1.4815670863427453
Ni 1.196446009705752 3.2640721621861895 8.95287083569624 -1.3169300949542286 -1.7820575692291827 0.18208886831637675
Ni 3.8972875165137886 5.7142091061754545 10.849220808960734 0.6575961431637578 0.13746403051815034 -0.4593244944399315
Ni 4.672732551290097 6.654561366982916 6.168513756674635 0.8713861992381574 -0.21554946196766747 -0.1966981335891193
Ni 7.775306591290929 3.3623477530504733 9.499412760247905 -0.07810008673753646 -3.7209418897738433 0.06754673670172238
Ni 7.565679394811363 5.602549280212471 5.634739626526265 -0.49439871243524536 -0.40988449464124893 0.36170767782570606
Ni 9.293926924440191 4.806070541708128 7.2372930303600755 1.5826029559408485 -0.044873463473922716 -1.297863822351397
Ni 9.072279134400244 1.106258867966014 9.977482133555972 0.818323772195539 -0.35782814026564186 -0.13859274480595485
Ni 6.04355655771094 8.280974761733082 7.567616512996618 0.5303329644380093 -1.1307567721558331 -0.28099869271041283
Ni 4.204994163636374 0.6037532250914944 3.374519654781545 -1.6622595885322275 -0.5924328190925473 0.1759740136678905
Ni 2.7449637165821175 7.0154220140683075 4.862450581310216 0.3758448885580366 1.27140485682892 -0.6514470928432264
Ni 8.213250345333451 3.853361446960973 11.698650869199241 -0.3318851951476348 -0.30871287079622967 2.236365070070497
P 3.0706312039662516 2.5049908258697005 11.434217424892978 0.43554436130119834 0.13087249334356169 -0.26720986645643663
P 8.004445069781092 7.015412674057771 7.138322542711881 1.2692124771632916 1.3297542433020906 1.3976359947457284
P 5.721307514183138 4.79900949374259 6.579108091864392 -5.108339494621015 3.6625999594998406 -0.8756778846349758
P 5.0802372109944045 0.8165980552008594 7.932073998139587 -1.7439815882930674 1.383165311933379 -0.46850024740192864
P 0.443043399795411 4.235862898459264 13.421692276955065 -1.4079193789496074 -0.32442513932516387 -0.538056558334512
P 7.990892714492735 1.5599592197834882 3.9226073510769885 -0.8646154561732271 0.0607669947757276 -0.3639116274555604
P 6.048796303621876 3.6457330127362026 11.9180962847547 0.13224700509358514 0.8239123220269101 0.06535024327103585
P 7.4920334117316365 5.292068649960568 3.5499203826503742 2.7711082477610596 0.29659191916297956 0.7004260938450906
Ni 8.94208872753299 6.431335115162314 13.558611227412761 0.682002082811948 -1.6814557018447043 -2.06138170245065
Ni 4.947683781461434 1.888251250128358 12.501930069375156 -0.8755657845371437 -1.0137409821897057 2.1132573082740187
Ni 1.0908104905387639 2.962744742259984 2.0079388151474005 -0.18560048101406101 0.183453095653755 -1.5281937850623488
Ni 4.638258572400146 3.138794600861095 7.653027173348028 4.729769236712015 2.543117474706246 -0.31760528818985306
Ni 2.5427898485106204 0.7417266627387539 12.54146353197269 -1.679780113914494 0.15012080005021244 -0.788055717339617
Ni 6.802796674206549 1.3507990238307437 8.951312921938765 1.1841804391926123 1.0615210777874622 -0.7414673280571166
Ni 5.357345983599655 8.299318542426624 11.898520556671404 0.9072862555688761 0.34450699767670345 0.8699900902215792
Ni 1.3629036774859529 2.7771493928906446 6.272433515906082 -0.24026033445078618 0.10878003231989652 0.16138737410296722
Ni 5.6877581963362935 2.3388600584582746 3.126763733289123 0.8784521049460031 -1.4903754286629944 -1.4500561602186575
Ni 8.994934507148093 0.9071569293599476 5.763593477885759 0.04708821173705438 0.5511961810402636 -1.0979901192477737
Ni 7.367418991154629 8.55902687540251 10.087567233742513 1.5867180065504867 0.4491570669886265 0.08910697937100137
Ni 1.3507803438096708 0.3899379678873949 7.422878105717825 0.5584844871715607 0.4061224564956554 -0.2015384924005561
Ni 3.542656656456195 4.625201237670221 5.048376567052545 0.10800484471676883 -0.4696114781882364 3.1078461430153057
Ni 5.33503269842813 0.04680839680435716 10.007693331637096 -3.2005876338151005 -0.6022019826641692 -0.8662439929155854
Ni 5.719084591675469 6.543910262157867 3.7031208394751705 -0.40945152086888836 0.8451799731564348 0.5551176275818569
Ni 4.18304513887577 6.295297861699256 8.544710507252276 1.7252732132502866 0.19996472015553304 -0.03182717181292583
Ni 6.99766665403856 3.5655396822704413 7.081386772482876 4.072181835299006 -3.913405673566641 2.261565737705841
Ni 0.5522281229662417 8.106111084470097 5.7469028790571635 0.43099273737477384 -0.8495855584232982 0.9641798834321267
Ni 6.590133974302644 1.317072245783706 0.6835010370546686 -1.170890149841609 -0.9861558734825854 -0.4557174938149635
Ni 2.9163715899466243 6.918706204963606 12.612849232502601 2.2699012541547297 1.1689692786698127 1.8381122461309052
Ni 1.9964459321823274 5.925059844035292 9.264164980865868 -1.865512749631045 1.0764815557520364 1.437492207510718
Ni 4.226728368154639 9.131485461190655 6.177632408961349 -1.457109210410697 0.43271691915473215 -0.8588816390132434
Ni 1.2526822131455786 4.469260421754037 3.8274083596834036 0.3630762760384586 -0.7972237569921303 0.7430341583236042
Ni 7.164357822082171 4.522993502370102 0.026321083692704708 0.723942688909792 0.025856813162103854 0.26162285928696233
P 8.109352068126237 2.392723899221849 1.560764328691728 -0.2098621817749031 3.2307353610430747 1.0857388126842462
P 4.3084161003062285 1.2159666317268845 1.064849931252765 -0.1444466324835706 0.5522703879410489 0.5553675388091338
P 3.217334749461909 4.041179718837982 9.510321892554453 1.8678992475853509 0.041649814330302466 0.9168283907313566
P 0.5380509209729993 7.411186280528325 1.6290192576898288 -0.2245444663774262 0.3072905365274063 0.4537595987576444
P 8.883620261574956 1.9586469095414076 7.736906071971464 0.5228112021396674 1.913721191015472 0.46936593783633357
P 3.2953798775042924 8.028065956427715 9.707416662896241 -0.3683994880235849 -0.5165744772013362 -0.05368154868385593
P 2.240808627846865 0.6573527435568878 5.225854513264675 1.132407934606011 -2.231980824959872 2.3505755293773456
P 6.4344733587025535 7.871340579626471 0.39098685107063563 -2.298404760911061 1.3408279846177489 -1.7547015458137327
Ni 8.186024214619767 9.349257146857985 7.645809213205477 -1.096501193407073 -1.5391335719033044 0.007665744075373896
Ni 8.884591622670746 6.922208708914766 10.87930871890278 -0.6475744972616977 -1.202919153252696 0.010955984790871454
Ni 6.238912218090847 1.2706430534071278 5.810727841057837 1.0166265312676168 -0.62600885527578 -0.15975883736060872
Ni 3.574720912627749 5.304313403773823 3.0396447850106014 0.12984765162347314 0.9467804570087565 -2.586055411720353
Ni 2.8840177934484417 2.7493908815763834 0.19054835695680658 -1.28448148750722 -3.583566048094125 1.1546921999255082
Ni 3.9256064284602354 4.276398544187358 12.817735439633877 1.3670941174031295 2.0345298723651286 -2.5629895310398245
Ni 0.837628956925732 8.368677460670131 13.247658926628768 0.6865701617986048 0.5100461891645152 1.3944704525335534
Ni 1.4494482151164847 8.405112841772732 3.353591493172573 0.39597996874501484 0.5590491014257792 -0.37049802242382646
Ni 4.248378512578077 2.4198379498090965 5.505885775166774 -1.315820663940134 -1.1881396809506763 -1.3624597039549116
Ni 6.246421586562133 4.719619404182961 2.149341904663636 -0.11422022949886135 1.654612356399615 0.4444293224956539
Ni -0.07486205245156907 5.0729800228076005 2.0472537214983824 -0.8831155718599436 0.533875430373629 -0.9390285809774794
Ni 1.1903843428676113 1.87206501186873 4.073921125773427 -1.189462770637474 0.6488335664797793 -2.058910615202338
Ni 0.9623760056523573 2.754032866812988 11.40623475332584 0.14230618910180007 -0.032992395765620595 0.22288944727250645
Ni 1.5275120231799408 5.716058428261667 11.734220431325115 -2.962486254688846 -2.7153492477228847 -0.5716017412798091
Ni 5.588567284439439 4.383836685387876 9.28207258306736 0.38032375026499665 1.6980177199684432 0.9940095651990494
Ni 5.120912956880543 2.3074682830453437 10.32260953289275 -0.5693993343118516 0.9751587510411334 -1.2320104141916977
Ni 5.148400607889248 3.534783027573987 0.9316258889632789 -2.126483320045989 -2.9168463453625444 -1.530059634626494
Ni 2.5922825643431464 7.331833551010843 7.312902283654558 -1.0449634305390973 0.8825049348591381 -0.2689895840646787
Ni 8.975768805527345 0.6224108301390608 2.01953070222416 -0.7162880005780116 -1.6802727372801964 0.18038499825139254
Ni 8.500511709391796 3.1618083868228513 5.280466488872217 -0.22213508560498518 1.0134157376398032 -0.7191938613708969
Ni 2.515909298186784 4.4262963732864735 7.583842913301552 0.8195285911369177 1.4340065629549625 -3.2871389366437835
Ni 7.653027173348028 6.924170111127417 1.6046726522245247 0.05712271315492097 -0.5922016769183479 3.4421893127851293
Ni 5.924845023792955 3.9247191274592748 4.561107283366098 0.9123991513154093 1.506000536794761 1.128026517708864
Ni 7.898781530582493 5.3431491675842855 8.872613993158831 -1.219730311272764 4.616288456482341 -0.32556182403276834
P 6.476998426674904 6.671971146622816 10.255175590820803 -0.6795160831653007 -1.1399374102138369 0.532633844657044
P 4.059990500058346 5.828502815109711 0.9343083399893406 1.4705686783497125 0.3673929011359414 -1.0695632313656482
P 1.5853266884004236 5.501014025670973 5.63669449073154 -1.4105470463804417 -0.5023771026550315 1.9794244467505524
P 6.086090965693829 8.291613033734073 5.155085253430169 -0.15046815608730213 0.4023233944645394 -0.2027785354552443
P 8.81909946878932 9.366629566455739 11.953050340186223 0.34691817822135734 -0.1747671378439829 -0.9922840978675106
P 3.819233048460869 7.679085802744659 3.006262653352358 0.0647573468820433 0.28532303111737956 -0.11069087618936421
P 0.05865059616349286 4.585384772753433 10.198732039147066 2.116467073460568 2.17392840090183 -0.29566529358365207
P 2.996228680033074 3.133405414781577 3.450497838492217 0.48262794505256246 -0.38535694181352986 -0.12341269463140679
