# total energy = -340890.3795502456 ev
CRYSTAL
PRIMVEC
9.10218739464980 0.00000000000000 0.00000000000000

0.00000000000000 9.10218739464980 0.00000000000000

0.00000000000000 0.00000000000000 13.32197131527167

PRIMCOORD
 96 1
Ni 6.391929031874461 2.031253194675527 11.784948543397464 0.48462209266445566 -0.43081687391854195 0.1600480864662534
Ni 4.752998309301607 0.3721238085176177 5.9793132334399965 -0.4989341384117536 -1.0163293117421721 0.19730774214866018
Ni 2.947634094027779 1.7809794558018066 4.685563845313396 -0.35731366252306845 -0.7754223448463226 0.5266966532370025
Ni 3.4167608216082104 4.357271619191269 5.0895653337947735 0.7674537248185492 -0.3379655970137599 -0.46439985208030987
Ni 5.112580214095262 4.525489140580752 2.912556085049326 0.14707044325966287 -0.7232873147139801 -0.19465050703147121
Ni 7.389437725617951 6.009245776002049 2.5712468210321116 -1.7529390545966714 -0.25575148810784987 -0.7186554723689236
Ni 4.841007357205665 4.8985604867844605 11.293714423579017 -0.22684997458215125 -1.0263447869966456 0.21940894492307375
Ni 5.835685270734225 7.868686085349516 12.526129633569644 -0.7097900515584936 0.05635061087558682 -0.3505241504050608
Ni 2.18211284510079 6.522408885189662 0.39871220750743536 -0.769208759836443 0.8119829175791758 0.10564122958059871
Ni 2.754949893481599 1.6719079467487157 0.5463205566697624 -0.6111185684275088 -0.8056019537534965 -0.42653881536847826
Ni 0.3938115899263468 9.03033452062304 4.712767552157006 1.611782662828598 0.40888099307739906 0.5482162724763333
Ni 8.801915133183556 2.5109475615792194 1.262314984678811 -0.5463308825281623 -0.25613278270666856 0.4875912025951086
Ni 7.134294316599576 0.6103253165261862 4.9598227576416605 -0.8820223387957649 0.11240605910825802 -1.0521866877604138
Ni 1.0420912065818477 7.265074542091924 2.427902846566553 0.6575789167725772 0.327670642845655 0.024677962362654272
Ni 7.52029076860779 3.9258370487491874 3.9516699662025445 0.22716467760909267 -0.6786856168442054 -0.788021778777888
Ni 7.551811642833848 3.9213314660919827 12.6525954223357 1.177032258183605 0.11141669861179522 0.06464550389452738
Ni 7.716005997486999 8.795743850271265 7.475610862366539 0.4341953034724716 0.7062486140641384 -0.47601583905268346
Ni 7.166352219869624 0.4134313544063549 0.43716166661968325 -0.024981866756318267 0.41657090552248904 -0.10876691969377397
Ni 1.9682478549721556 6.5923500915289726 9.053505048324412 -0.42960099923356976 0.18982043263267953 1.0394461002652937
Ni 0.1464205137345187 5.1476782478855245 1.1813128004707443 0.4414640692197429 -1.4261672694162018 0.5732655021354772
Ni 6.659242065160881 1.905597500569049 7.003733453818416 0.6318344608186215 -0.2529785533484031 2.23994250300911
Ni 3.5501442726358325 4.319661381737595 0.21972770889531185 -1.9512065895554398 0.5064970383606762 0.3358984300720861
Ni 6.120529116541404 5.81199227748836 4.861400807596508 -0.46857120984918016 -0.4531566750663228 0.014754532601355235
Ni 5.023742867157251 2.7158924082653075 9.784001991177348 0.36375144772861223 1.4593255013357254 -0.9807359880185949
P 9.443792271372235 5.614292771802544 12.358392707663597 0.432648527810642 0.5250274930646958 0.35977009448336106
P 4.05167478659939 6.477808167976932 12.733858839316014 0.01457121294595555 -0.8437764079406889 -0.11320567219141793
P 2.5839106940643717 8.671407973306797 1.5066085865711512 -0.17081895182951226 -0.9713854000416303 -1.1017562711584252
P 6.470280659173885 7.892360874221008 5.9088268060882285 -0.46759727597168504 -0.30816034072686926 -0.7680895586303353
P 4.733911022771996 1.0216203875999232 12.833853647306956 0.41286568875675994 0.06583849576136402 -0.9502463040701697
P 4.05973022225924 5.959465914280331 8.260142029232057 -0.10247517314779127 1.314327624334375 -0.2394807759722843
P 4.985604702846775 1.3882837940244965 3.5526765011110535 -0.8274745854568717 -0.8528372325913763 1.1148750679285702
P 0.10102972667402015 5.643201318306142 3.4690146578071577 1.4124074966279483 -0.9305004889018105 0.5798464977871046
Ni 1.4393379619522932 0.9737155764385764 2.6102269376573193 -0.5541596345439618 1.1410234441891638 0.19533056381763136
Ni 1.7220609981450712 6.33214586643503 4.8265904029213305 1.0884909215080867 1.344599021624407 -0.8301585600469381
Ni 6.192900606859449 5.820803194684672 9.305010313124434 -0.6158738237243071 -0.14010532479573937 0.029214673890743236
Ni 8.446820606672734 2.4615499917193238 10.412958574655113 0.7873463499774183 0.5555706559588754 0.4174494514727004
Ni 2.016243688005365 5.346042213235938 7.043672030754339 0.6916756013459701 -0.994566466143784 -0.29147696653391736
Ni 0.8026973120518777 8.957380490325074 8.821422940761174 -0.3653187922157321 0.5062784945919667 0.7887974806016479
Ni 1.491293246411531 1.109065099898433 11.443626536318188 -0.6978267085490304 0.2939601379670873 -0.6282688549545502
Ni 4.413960040987367 6.636777867185164 1.7967207783217443 0.38673942398335326 1.4747672898120923 -0.118358420036951
Ni 5.516598996732292 7.740372552584647 7.876442059050938 -0.6326654413603491 0.42185657940146054 0.7902121015609874
Ni 5.321457205645819 2.6184534944362716 5.455040904791539 -0.8848937468062889 0.9143588461449415 -2.9898597616057927
Ni 0.38733265308715875 7.374546547381211 6.818398359206431 1.0854372222834274 0.2870911787613959 -0.10261324138755229
Ni 5.167630242197831 4.475845811666827 7.087288801532233 -0.8640482708158473 0.047515014861827846 0.8879489886928449
Ni 8.286476477199377 7.262134535630758 9.208239499834871 -0.1551961576905908 -0.19966724351977225 0.330747739109082
Ni 4.748356193836608 0.6299141335697609 10.721589166236175 -1.088027351608107 -2.5441839682975473 -0.3696765549637956
Ni 8.272122328006626 7.1104829949202895 4.705480341095677 -0.7477549608380413 0.2034089699503916 0.15642720188421444
Ni 7.2373128711737955 6.086741797705964 6.896571583637005 0.780329809450269 -0.1400402758857588 1.661844869592312
Ni 2.636466722877903 5.332325217146227 2.5051967997149327 -0.764476130247464 -1.2841685842524917 0.9207763196355109
Ni 2.413454034627066 5.333799771470403 11.574274780096337 -0.8436262555160696 0.017607428669118064 -0.7117934551417677
Ni 1.0007035614458712 3.6758181711166826 3.8072464723366934 0.6600363771741342 -1.1780774116186679 -1.2848154738078712
Ni 3.4653391946213414 2.709193198496212 2.5651055753375345 -0.07117507748292903 0.9016036033618022 0.16369853873464713
Ni 1.0544610789679907 3.5080830656480724 8.399942522225999 -0.9524289135437854 -0.4545242448378108 -1.0979698075327995
Ni 3.5348799047244555 2.5187663403722262 7.028805428423 0.13044671866005275 0.8790249467303376 0.2578075993059302
Ni 3.750173938241334 6.865251867747763 6.182687042617734 0.553534342255137 0.47418238538837043 -0.016573330977648876
Ni 0.8967656859658374 7.604831883193879 11.364320999801643 0.6925623748262976 -1.1166879527675928 -0.19137183628019944
P 0.0618120429632509 5.579504212376615 8.017095426984236 -0.023477771406966018 -0.2537858797410468 0.6104405685238777
P 8.53903486505685 1.654449951725447 8.310325117846126 0.3789219848214635 0.06853224054344326 -0.889156892958017
P 1.6424077580780096 3.1648122802922165 10.390297769436172 0.09671538784587859 0.11059086027639019 1.5915352254334718
P 4.120314380171063 6.158057434310402 4.152324952067743 -0.6468157647188022 0.8331932331082038 -2.0725562310102306
P 6.599513512844568 3.977127873543827 10.60800570299485 1.715711794814097 0.2718273106237899 -0.49814172441744536
P 6.295673402379641 7.9629392336633575 10.12700244157377 0.2666084854270118 -0.7018569127543461 0.8377014053912025
P 2.306057328016249 8.615429522111228 5.832319281912742 -0.0606428104930375 -0.15408801222807655 -0.6267650167155142
P 6.89343223927646 4.0257062465569575 1.6054710824761202 0.45119363780268107 -0.16577084788264354 -0.4411339395738338
Ni 5.058831798760328 2.7704418160726325 0.6566782047722736 1.6324175654701305 -0.19888511393810906 0.48009335155616667
Ni 1.510444248251446 1.2061490284272045 7.006464109974298 -0.7267179376620839 0.5908233085135824 -0.5599212196180874
Ni 6.780983818777262 0.8920680471590028 9.477862668229166 -0.2378422119275968 -0.06624498717116334 -0.5977591164014673
Ni 2.8145055042413727 1.7398557740942322 9.199620638788192 -0.31262788957991966 -1.2041759084779324 0.38049267174269313
Ni 6.683326452455756 2.013649564657278 2.394291199943808 0.21341878877790985 -0.555055921105986 0.5641745955778026
Ni 4.033251959734377 6.979420601625167 10.592658505180077 0.47601789593521243 1.4737378201063134 -1.1861244502928605
Ni 8.43601631048263 7.148839611723238 0.2646624763777782 -1.1867980793211172 0.17115962299838264 0.2544895906762908
Ni 7.523713190989827 3.890784525894856 8.337222080981558 0.2585154240062322 -0.10169972843434744 0.09616671443126018
Ni 3.0498152473808626 8.606318232737769 12.510502998608255 0.7183456544379887 -0.32094232298288594 0.09444330398225025
Ni -0.09993018246191854 5.0929467963344734 10.280032053424241 1.382121186939581 -1.8604456195207832 -1.4566502684964076
Ni 8.708098889854657 2.279597269865757 5.70540020422481 0.6825255594155859 0.8599381053022157 -0.12089507041587565
Ni 3.436594487487096 2.478753125501377 11.643628895362133 0.40591445424990735 1.449268888430672 0.15749909479215454
Ni 1.1370634276834042 3.511469079281365 12.674895780942066 -0.47518665828316864 -0.5454248257741252 -0.8958613015613862
Ni 3.045273255974913 8.515742368047183 7.966485445791129 1.0338292682991486 0.37672420583919636 -0.16828358700216825
Ni 5.920881742797726 7.824622397180776 3.625587751129244 -0.7716993874687806 1.0003722741922836 -0.3800172747681713
Ni 3.1860840917465327 8.493396498504886 3.621031196223796 0.5824757078798356 -0.49643296925645475 0.7762332707833921
Ni 3.1897522731826005 4.427595117392402 9.45149909326285 0.39446044677669484 -0.6359518254211047 -0.3679850261939856
Ni 7.564827770510215 6.283166997185703 11.427680414586561 -1.9896155283509414 0.8408440647852421 0.8899230817000802
Ni 0.6479246313552363 8.991477283524846 0.18632541257785143 1.1608700466014459 0.5645502337496664 0.7570674964882188
Ni 4.754472863625783 0.22066432395677918 1.4471521896517074 0.2146439194342626 -0.5871995957180661 1.459812468274473
Ni 5.72750577602539 5.2416128196478455 0.19825200844802293 0.8912101759426201 1.1680187418310852 0.6058946010244082
Ni 8.092426948575255 8.801551045696106 11.393123050715161 -1.0361144647888993 1.0530698616963154 -0.171622164457098
Ni 0.05106053945882704 4.902574551333606 5.617568648970884 -1.1772263764722821 -0.7583322221332552 1.381423389541608
Ni 8.270156255574392 8.52367947527361 2.5376888773137662 -1.2441169676472446 1.1370243503320998 0.09023595076912203
P 8.60019246076141 1.5487189453697174 3.468442130233141 -0.2962677030543414 0.30996011293976944 0.291904026769007
P 1.6297739222634648 3.403835715803705 1.4558648032264063 1.9050311194406415 0.4949566418212444 1.1969480232709255
P 4.810760789185686 1.1588722681817105 8.244367938838248 0.35887329370070453 -0.5768287940067034 -0.7007706216687027
P 8.750624308388918 1.582333322648618 12.572597209374278 -1.324012455722307 0.22116552260286426 -0.3765804811724805
P 6.445049396293541 7.564463683022765 1.3804495415132727 0.3098009616540858 0.9569363144958357 -0.2437963726285027
P 1.7624018917546262 3.306214758230943 5.892907080699439 -1.314763426320213 -0.5526498827676546 0.7987443074017148
P 6.920720596460902 4.031795609784574 6.016574857124436 1.2172800499600582 -0.49441516749547754 0.2540069946129174
P 2.507370402015015 8.612061712852308 10.17008582418255 0.0386868750472366 0.19960296594074012 0.35871439952533707
