# total energy = -340896.87008857424 ev
CRYSTAL
PRIMVEC
9.02440590475984 0.00000000000000 0.00000000000000
0.00000000000000 9.02440590475984 0.00000000000000
0.00000000000000 0.00000000000000 13.20813024255242
PRIMCOORD
 96 1
Ni 6.46522890212687 1.8526564206176768 11.372860657319604 -0.4250457757627195 0.2509628084699549 -0.03664876157128527
Ni 4.566466790875586 0.22284146407394476 5.990956655535593 0.0652563980056489 0.21301666824348478 -0.45604299547518234
Ni 2.6710617586839422 1.5863100997407387 4.916792429798759 0.9527585289690624 -0.3994003072804734 -0.9768032286230919
Ni 3.506902249285758 4.544889435951931 5.000889065123961 0.11828771470001564 -0.27384048439907677 -0.572765422570607
Ni 5.239109922029731 4.5794619356225805 2.6568943435878962 -0.6132176170483826 -0.2808688520007679 -0.1978610435489689
Ni 7.180088204896597 6.007456879601845 2.497023380219213 1.3967039698497623 -0.9520890137058634 0.5356114392281291
Ni 4.881662221832718 4.588107316641761 11.599789274904602 0.5522950705313971 -0.6908307368471716 -1.2295637524234178
Ni 5.7490249628520695 7.777747545979371 12.466850600761072 -1.7516941264459769 0.3802116501671645 -0.668639545462113
Ni 1.6967507812780418 6.5516285658822335 0.5051618861430041 0.9665265292874322 -0.23921183858161385 -0.2156250524006093
Ni 2.822825195635472 1.5213343760057672 0.45004352116299207 0.006384306259789005 -0.2993933931675167 -0.3905163745272823
Ni 0.4933832313348256 -0.07833545448736778 4.810084242613788 -0.12607687172713125 0.6800932958250093 -0.3971063690399742
Ni 8.596838738907284 2.1260598270447186 1.4242985472512315 0.08823151874458353 0.9378715845549009 -0.6094118701490473
Ni 6.941094858830868 0.788616676055603 4.849840361133516 -0.9277144415162409 -0.9196645746285709 -1.0086352855320242
Ni 0.6016770066670525 7.4610089415835334 2.6822547295378985 0.8949668147715748 0.0019290987019128067 -0.7746849524596658
Ni 7.841577170142906 3.933341533920807 3.9278339388936607 -0.9325265181929036 -0.5827341037475448 -1.031826636046823
Ni 7.711400112521106 3.838504050485971 12.49228949904392 -0.3908855849412429 -0.6565641023548177 -0.02237631081267114
Ni 7.908583385244596 -0.028768001683658704 6.972968158644694 0.25637446640382944 -0.32610741212359323 0.13759978476506624
Ni 6.799492903119002 0.5823936557674848 0.4525279401552473 -0.023910488069010437 0.460515172313923 -0.9873540075557447
Ni 1.8555532549675275 6.562981268723704 9.276875565958104 -0.36256694050220784 -0.42034014275693415 -0.26946369548761984
Ni 0.13841002328338622 4.741531244310963 1.3672399349652447 -0.6333087313713028 -0.8678139085058667 0.3985161049033072
Ni 6.3748765485109615 1.9732405345824948 6.725184138621987 -0.4867280832638649 0.17681579284289548 2.4441348880927456
Ni 3.4928783222462934 4.3100743898986025 0.5174973468059669 -0.6810718576881948 0.05672367794428941 -0.37064508952465197
Ni 5.9728843799311955 5.683336311037228 4.6647019631973965 -0.20785003644088076 -0.2091358451318398 0.7829842163539806
Ni 5.129373144166224 2.9846598697659235 9.17048413542634 0.6483707679107479 -1.3206993321886737 0.029400050428671953
P 0.1765715292497855 5.572038310922867 12.57260851798642 -0.36448061258515296 -0.3973118001825609 -1.7533409180207804
P 3.8275664703239176 6.186483047303841 12.599777394913712 0.05982957056312277 0.3009465965872494 -0.5160476581635887
P 2.451182104683583 8.356780512924786 1.486284485253787 0.16832858130749076 0.9852757848704773 0.728767621102261
P 6.404395380780001 7.758002145488799 5.738324724569771 -1.3291865437240786 0.710328440560467 0.6919828481737438
P 4.7158748578417224 0.9660085238175427 12.397164137055315 0.15689822798336206 -0.5176736238027859 1.0075685348304066
P 3.958420358401291 6.092457760415692 8.177549491204903 0.7440996234736411 0.42068184236706896 0.1186533255695505
P 4.85206216990901 1.0292605859923227 3.7789384581925436 -0.5474405706525732 1.1268859763465173 0.4325418270294486
P 0.2663562477236197 5.456065668462016 3.417484824139148 0.35870154400953064 0.6919324545517825 1.0794275257542378
Ni 1.4361891046947313 1.1042353516576204 2.576853276352485 0.4992107891119079 -0.15044733015169576 0.7568242701291611
Ni 1.7085276312050055 6.555193206281582 4.709768042251243 1.110717337006455 -0.058730423961673044 -0.2071455541746884
Ni 5.990653435491495 5.652779672069642 9.253787525457613 -0.40913527518005016 -0.2718185688730415 -0.41878308268245945
Ni 8.503219550292478 2.4153191149443085 10.163524365198846 0.6709859342071025 -0.07673894472395171 0.4837245205508508
Ni 2.271813009550764 5.316322740401456 7.0505663191557915 0.04714734710976396 0.08436098004558373 -0.39750591847123795
Ni 0.5419020481527008 9.038935368081244 9.067685320952755 -0.1285225050541464 0.513578884908122 0.02952474893199431
Ni 1.371105088086868 0.9664416953091092 11.52816166145226 -0.1995320034934886 0.9829463654063522 -0.7923083219683837
Ni 4.005004342556836 6.5501034412556765 1.5546633125193776 1.0680300825505735 1.6972867553396898 -0.24115919211597178
Ni 5.658609438393642 7.844771809893209 7.995119317531682 -0.3571275146541914 -0.3759654732963009 -0.348416874254071
Ni 5.363655750261168 3.0166423648932486 4.760976132079261 -0.42055020188521125 -0.29404806969520325 -0.5373320214636617
Ni 0.7466188950670182 7.449502823838798 6.848851892142394 -0.19591986066219808 -0.24223905544371185 0.6033209267599609
Ni 5.290549036653251 4.457506111934468 7.092119196924913 -1.1861697017084991 0.431582805550289 0.24105351977604292
Ni 8.276905494761143 7.091946830768894 9.234675638273455 -0.7426695758953339 0.24179631147933842 -0.2211912336344771
Ni 4.551332861888982 0.45184479261542265 10.211693937501646 -0.2742845139150309 -0.8566566063374665 0.4827613853066331
Ni 7.9845869332023645 7.131473729374335 4.528697846573419 1.1029616043204358 -0.1365142650103713 -0.26025734639800335
Ni 7.3464350820641995 6.190083785327487 6.820718306205759 -0.15031183301509599 -0.7645761461604381 0.9994335644280983
Ni 2.4217264432570627 5.125095575687004 2.511354137065204 -0.7084831598216121 0.08842023771662191 0.9257053815060122
Ni 2.3264918859549573 5.049281540256796 11.36874011350608 -0.20881265746446617 0.581490975369063 0.6902465822089274
Ni 1.343273819753722 3.399042547885705 3.7620059650753315 -0.7468324490237719 -0.3266414302501923 0.5494470595596409
Ni 3.833405261053991 2.667506142690667 2.5408874083839637 -0.5916483755180392 -0.3207546324521121 0.6057089673761632
Ni 1.100418027888191 3.515728118426425 8.247962419599643 -0.223010546231403 -0.42955394804571834 -0.5795719039694793
Ni 3.5061171259572936 2.5927208895529295 7.256229826267303 1.613761383821524 0.4786000548400919 -0.606490068516562
Ni 4.079464717075899 6.820059524562335 5.877076772843372 0.11719679562868203 0.3865890144484181 1.0706572357607755
Ni 0.8404600840712511 7.396520535776574 11.442190656985426 -0.360653782639895 -0.4370484566505505 0.01924599271380556
P 0.17051073813028453 5.594427862393209 7.965361338501672 0.723192955227961 0.2052809901621239 0.28341167302727965
P 8.635679782651078 1.835455902640058 8.00008544819437 -0.854417946814935 -1.1090186091477932 0.11523375836504024
P 1.6576299809459445 3.1652111620944763 10.393451792922333 -0.28495022115899316 0.18256889327658882 0.5466856947644199
P 3.9334227535754756 6.38070631483496 3.746935206931248 -0.10856945897098723 -1.5979311016574866 0.06704074359958133
P 6.728741559496476 3.845561136036075 10.324927672718946 0.5075059392411647 0.675111783450018 0.9396410177504977
P 6.326821586165305 7.6183494614889815 10.253419181426787 -1.2474133790103292 0.0009423093086112803 -1.1608435642388848
P 2.3781205131060372 8.44439847150018 5.773260907805215 0.4076620330686334 0.3996484187355375 0.8159557861839948
P 6.900376738623619 3.8375564878481696 1.4286311646075036 0.40776564852603325 0.5512535166407603 -0.22556905098719862
Ni 5.176354202189037 2.7996144232123683 0.2695147898496253 0.9649638127860027 -0.3730321016995898 0.17000854011307495
Ni 1.4737396583699005 1.1112112175530555 6.9785813392229095 -0.3661669991486403 0.0372056625160198 0.19325439801489297
Ni 6.872861324503074 0.5792062355420414 9.162281852745407 0.08039222520582284 0.6141774098584907 -0.28647745643679695
Ni 2.5800055013942385 1.656510954592731 9.142403793485544 0.09005623065814813 -1.3211808998107828 0.987826319206473
Ni 6.411533685984775 2.0679516763322905 2.5021348038196973 0.002446918878595786 -0.31318993273097673 0.864057269676912
Ni 4.087297901548393 6.879674751089172 10.441569023669901 0.12363226684138064 0.38500855733517564 -0.05175476397478829
Ni 8.059435357182622 7.259376636665412 0.3041224847039646 0.41762145827419045 -0.2830560894600738 -0.03360560386958729
Ni 7.693757398645847 3.9168629684291325 8.279213035394342 -0.7451244651937295 -0.12501037813582988 -0.8939435157133829
Ni 3.0210552994635815 8.382897144103815 12.455372458675166 1.1256194509292679 -0.5947367846353757 -0.2554421843975472
Ni 0.14138536996608347 4.979613125363188 10.165809344816859 -0.11979438115252918 -0.794542096394909 0.6666561964834969
Ni 8.596739470440466 2.420814978243558 5.747425838095704 1.1222351078380672 0.07784606174520142 0.4298200572229114
Ni 3.4965963775489057 2.5502881321915636 11.379293253969367 0.4002693401489881 0.3781905059720777 0.03636079801722125
Ni 1.0646813798339565 3.281310146240366 12.71349935049963 0.11921768271345275 -0.2164334072345176 -0.6459246203631005
Ni 3.1108932619332545 8.204547806857393 8.082767959087729 0.385998946272903 0.8305712221043244 -0.6533499662928941
Ni 5.640407211341776 8.008673073014675 3.5338220526054 0.08330348531534686 -0.7711653693421815 0.3130361807619319
Ni 3.1534072389492893 8.494565144867224 3.6878686642937284 0.06724617474216806 -0.22376027991323397 -0.48387775829926344
Ni 3.2558342478926128 4.308152191404776 9.175965559675872 0.06059447375360532 0.200946367342512 0.31904099219511506
Ni 7.256795656528162 6.006238584781815 11.410239747279363 0.2794737714254542 -0.34235447011007486 -0.0671070780611425
Ni 0.6462837434517179 -0.05184611533747024 0.4942928914671152 -0.44568376372804536 0.35369277794102955 -0.32110661647489214
Ni 4.68089625989773 0.36691430216895526 1.6406478535953237 -0.7156979324024964 -0.9696097961984462 -0.408125088747981
Ni 6.041533036938408 5.547049730503125 0.2875527727109394 -0.4470096816283205 -0.3424334029771264 0.6025804490495106
Ni 7.8014005143001155 8.669918379296979 11.26711627670337 1.283691130395441 0.5988634052092395 0.8599283351102028
Ni 9.234855223954334 4.9704262799795496 5.786706370415316 -0.44457073316952467 -1.083151254462728 -0.292417990290948
Ni 7.783857068891674 8.853474798848273 2.469207453376393 0.10386382596520176 0.15015448150162528 0.4135912540688748
P 8.517604453574915 1.6076437957003877 3.6613197640637405 0.6418723046705977 0.3642042189953147 -0.7896999378112592
P 1.837468345194627 3.105929838592388 1.559272979142131 0.13817365499066525 0.14948188091463288 0.4224458762460273
P 4.754093217566391 0.9165006320939239 8.102144261369862 0.5653195078155231 1.0264273194081226 -0.21346789684829043
P 8.46023630416058 1.448778151168382 12.391749493410734 -0.4347244365030642 0.6988674911087189 0.4517718789036542
P 6.206318691855155 7.463887727121235 1.403152558937928 -0.5940508143119446 1.8656191933019224 -0.09328373645651032
P 1.9763449302720548 3.2599042550321227 6.020767878561441 -1.6738691477466978 1.0743236288687692 -0.5848817462181668
P 6.9701444219840445 3.96114572903573 5.982609079916863 0.7151988812788909 0.9024209570567748 -0.573804919578715
P 2.328179449890852 8.523145438904537 10.227160867072392 0.708068955102329 -0.047631742945350226 -0.2129847865642848
