# total energy = -340876.1126347463 ev
CRYSTAL
PRIMVEC
9.19282641774663 0.00000000000000 0.00000000000000

0.00000000000000 9.19282641774663 0.00000000000000

0.00000000000000 0.00000000000000 13.45463068750414

PRIMCOORD
 96 1
Ni 4.513070960278254 2.865927931989774 11.05721690203289 -0.5531016255930926 0.13927228737148273 0.17583465987654878
Ni 6.166740895201429 1.7526399022881485 3.421284031883515 0.07593161833130793 -0.29056911000766733 -0.9266505190281009
Ni 2.716406613097772 5.308057381210402 7.307317829614454 0.011347049581703038 0.47816193886140873 0.4111224808134081
Ni 6.573762470071534 2.9051721072341605 9.961136004498622 0.82733523166553 -0.1059523330631143 -0.8107027653151715
Ni 6.734811593076083 5.248120154086156 9.131926530017678 0.003007419367756111 -0.6085924595715454 -0.585503438962566
Ni 5.765565957823813 1.8139928246542856 12.69891042292271 0.51617441354944 -0.8980408257112081 1.0118265387758123
Ni 3.5160721825891597 0.5955342662847267 0.7001578217910204 0.21058080510848248 2.236758963074806 0.013563597617047608
Ni 6.486761562478918 6.837394341155752 0.9318289938655974 0.9482799243724184 0.610629287495916 0.7057148530478556
Ni 4.039134803163153 2.8695499055307176 4.096370258653684 -0.9992224768585566 0.33789103502208256 0.3090810527689258
Ni 4.6609559560984595 8.020363993802436 2.071044470711582 -0.022517978596857995 -0.36975754471337613 0.24944508627384782
Ni 2.146258336491513 8.457777052241982 2.29888499208943 -0.25412629379960106 0.48356048416916075 0.9172521085323364
Ni 8.923448858561885 4.561820517861056 9.911582074619288 -0.6795595348087264 0.5599870398590162 1.3525954095663222
Ni 3.7281414912592847 5.140701979401064 0.3451152443639556 -1.2502071397053824 0.24484846804210086 0.5834334438074145
Ni 8.183775673152219 7.068272172325296 4.952932068347123 -0.794066185199755 -0.44613370678127034 0.46200949747126235
Ni 2.861359097345487 7.258867038884648 4.2704456164488835 -0.6844109493637567 1.5993279820050135 0.18397091583043798
Ni 1.5490463794168818 7.786976521067722 7.606804480906141 -0.3584734871591246 -1.4452391984459885 -0.26395947783993895
Ni 3.2198977065939247 1.16687301388985 9.617746253621048 0.5602240955704868 -0.049697110114811184 1.8253660022088307
Ni 2.946503054036401 2.8666173939582276 6.541695134277439 0.6747983659746571 0.05005397923359767 -0.3957609107556733
Ni 4.406866238657639 8.558659127466134 8.399510161646644 1.206828258499115 -2.0192449211816 0.8634458613451581
Ni 8.660331785747445 5.6769103415069075 7.652671168178182 0.5252144122645213 0.8232428067637112 0.43110689435513494
Ni 6.001702085606096 8.005067130929008 6.358133699078938 0.3867695058903403 1.5052729146001174 0.5343631686433249
Ni 5.157589201215058 8.892211634977807 4.257556354769298 -1.7234469586748253 -0.34532306582009564 0.2133622245083616
Ni 0.9604481005347999 6.768962942580157 0.9026454476648874 -0.19740647251005358 -0.702198869474797 0.06541040708500993
Ni 0.7915749631122388 1.54246431582471 6.543632982050107 -0.1190860422315949 -0.016540420857184414 0.3484047900692129
P 7.33470785541456 0.11619180805432291 5.219171944237346 -0.33838494393936563 -0.4869494552460517 -2.252417752657985
P 0.8103853241769061 3.6358179372702057 1.1221903626382999 -0.29966875831609036 -0.34997547699044246 -0.24219586091060225
P 3.7796672823683943 0.9603929435773235 2.929732581115732 0.27829646328790136 -0.28116658574684483 -0.31087748254771624
P -0.022133567752614308 -0.2330629659682289 2.526402845266041 0.10733250124009257 0.19404681200920132 -0.050443501362532485
P 4.612142048731934 4.38431623587608 5.580643984340898 1.1014834771130126 0.252158628550269 1.5960495683640576
P 2.867049456791792 6.524148786821603 1.9617390087981748 1.1073890439641703 -1.0049892041390047 -0.5735961460020186
P 3.3804963811124162 6.735344776998353 8.965102473565361 0.27596704382377635 -0.0421555503221274 -0.03261701470407286
P 5.826109911480297 0.8419957765065733 10.386678366406642 -0.754272707351901 0.5868918346696602 -0.17416395704234522
Ni 1.490129556005948 5.835596908166221 9.54093375535693 0.5226052567764484 0.7421206453703993 -0.12693947683774268
Ni 7.098948633508364 8.523441410117517 11.61999712840294 -0.18209169652985413 0.5526246859566741 0.36750422990282516
Ni 5.9349805527122665 4.471666470866045 0.2674487325415785 0.5352203744372976 -0.5376068723916031 -0.3338556886104444
Ni 0.8802131130592765 7.046053111288593 11.713615032327464 -0.23725008686955268 0.020666012989783766 0.35234526277419964
Ni 1.3717535324355636 5.855186820896553 3.382937995763367 -1.7250487559443064 0.17396803898145524 -1.0542481982751328
Ni 7.442530514454479 0.2818033307247854 0.8202951908701479 -0.7006307536567288 -2.053850684180927 0.7249716443949386
Ni 1.0171310671679434 3.715427812560998 7.881278371264951 1.4671601668887957 1.5360245939606771 -0.7501142050988372
Ni 7.633879192766007 6.06425007538422 11.395830060393015 0.8779155157162428 0.5161093646394597 0.5300475719871065
Ni 1.811280940911701 2.20591058600213 12.917790696558534 -0.45736402827945105 0.31038563051296225 0.5741815861918433
Ni 8.518403741334682 8.702343001691892 6.892242419670185 0.0295273200351556 -0.4810202342458103 1.01786888831515
Ni 4.71599340683356 6.599189827468108 5.06638165633225 1.778283704009047 -1.359555385823923 1.4605475466682845
Ni -0.008739619912119625 2.455624518149829 9.26402468532554 -0.4453569765162459 -3.3045753869526764 1.022375260825936
Ni 6.796026623048529 4.565773433146858 2.6161046052097467 -1.8527505648693703 -1.8536327103640076 0.29479986025956323
Ni 2.2367525180576275 3.6913518006225927 10.933448366586573 0.8974818678839447 0.32270404286899906 -1.1797280598482134
Ni 5.281251099876921 1.549809383995304 5.586927281080072 -0.950116206250209 0.33005276992458643 1.7995930070097845
Ni 7.370578263426647 1.7359089585203378 6.540121322424114 1.28260998151612 1.792561811194616 0.6758309210042296
Ni 4.475113780708314 8.650155327093069 11.437377957894661 -0.3944306219800239 0.8743884763995908 -0.5473487822697154
Ni 8.395210676811367 1.6250802452979605 12.917306234615369 1.437806139206711 1.5548977767160963 -1.2556812754460762
Ni 2.122540844776704 8.220013794214148 10.162120603281258 0.9563249061640821 -0.01722330585682195 -0.9233209404342356
Ni 8.947819040940162 3.7875639201137514 5.915301469567347 1.0291691438193178 -0.34465766432195477 -1.1483729425756997
Ni 4.965385590062646 3.4649049117036466 7.797927015692016 0.4775728991271582 0.7449881967261814 -0.8228609979442603
Ni 5.696776039024621 7.0724089441360185 10.049384378612825 -0.3088699651993842 0.6152433892291598 -1.181630676187565
Ni 2.6012113074085215 3.8084592141710223 2.2899642735002628 -2.171134640206777 0.5783102636482362 0.5372304628887908
Ni 5.6574675139965125 1.2417577764901724 8.033046416891487 -0.6174895049508591 0.18571875175948016 0.6531463349225203
P 6.651460237503148 2.280078308155261 1.328192405986032 0.7109748158952143 0.945933792737745 -0.7499709946527535
P 0.36125325083889614 2.904657308964382 11.316582382456318 -2.0282085581327904 -0.4369785226445635 1.7172225750316683
P 5.850875385387156 4.796099694741638 11.314671193879763 -0.6387579274113322 -0.5947964342287175 -0.8690585795462451
P 0.7585166406488189 6.106353219591128 5.998047017890666 1.220500613779885 0.4476414016750484 -0.8144033540952104
P 8.473671448821403 7.422600467153043 13.056965489510608 -0.7979482938629806 -0.11975967125985182 0.5463100565925559
P 0.564413791593974 9.662211954173193 8.599056083121775 1.1092533508664186 -1.4570963548948905 0.14153074438835625
P 1.687113436806305 2.796310658828438 4.7300290139460275 -1.3910177180982624 0.033786352421825684 -0.8633934108406679
P 2.543691793586987 0.2989580637825391 12.146813179933194 -1.2351456173865696 -1.3062548746285696 -1.2682447139333834
Ni 8.949188772050825 1.3815898565188371 4.26483523459092 -0.8124775978274072 0.419144065566304 -0.09196193232129322
Ni 9.486261259823797 0.27248364347654 11.064186902892644 0.04564865107705041 1.0265597312209287 0.06535667102893906
Ni 1.4613008528983356 1.490120363179702 2.50308616077556 0.1263388671392663 1.5331387877724498 0.17854923059423444
Ni 4.646753039548312 3.177794562387016 1.8276772658041556 1.6532584134748818 -1.1406735170489128 -0.07669137931546792
Ni 8.270896087486033 6.209138209848211 2.7315453593597674 1.1674330445309444 2.0262673752460203 0.58974293096521
Ni 7.609371117994038 0.6202381482557364 9.160854515648747 0.08108025241178293 -0.7825281026531684 0.011855613787005389
Ni 0.9298543747879459 8.4800788487149 4.9158243059223174 -0.6088727098161255 -0.3859212989574321 -0.11541373558633027
Ni 0.9977158181362861 9.104832513222695 0.280854631056193 -1.092248588778306 0.31013623350631747 -0.7942258507060709
Ni 8.31463555476474 5.109777311909352 0.825724474051065 0.008987291100274845 -0.7821702050931175 -1.6118412839806757
Ni 3.041336249590652 5.9732319027220795 11.568761830603204 0.13879123397000612 0.2371351585582432 -0.31134259510959283
Ni 4.193712176490481 4.822473913241556 9.706506668157159 0.05117600865318283 0.3523162093084771 -0.44940440711274215
Ni 7.493780520776207 3.678242830395726 12.185252982881051 1.370780308005465 0.14099569782049265 -0.6602027275486695
Ni 0.9961806161531958 4.831620775356375 12.784199626268313 0.2305330798606933 -0.5694319873220001 -0.8640693538617699
Ni 8.690723269316885 7.570494655799493 9.465359530788154 0.665526196644112 -0.34288591713351274 0.36774539937935374
Ni 5.086133362804512 6.074978103613359 7.409801295170667 -0.20935901688623945 -0.12112004194248818 1.1521372947141384
Ni 6.932843456068489 4.843534678171255 6.223936821539103 -1.871094871704513 -0.4439143305324484 -0.5006274669537765
Ni 2.7097693925481243 0.851081965968169 5.000857029415655 0.42897647827569346 -0.00675891599038836 -1.5509292789866516
Ni 9.0704973071937 3.8587899378681456 3.0715438766351713 0.8537458604485749 -0.4775495020883904 0.6228996202228368
Ni 6.961433145693705 8.468247681336234 2.9654540653426333 2.2774294442109744 0.8661750873508631 0.08235500535914848
Ni 4.243068460605523 5.327996621338085 3.198058309281184 0.9191860923302557 -0.08290059344997336 -1.2094860078369365
Ni 3.367074854793183 7.571257660377915 13.419339345868897 -0.8870002516263303 -0.5065525741889598 -0.23495460596715667
Ni 5.412910757372847 6.594244086947733 12.369568229831728 -0.7482046467809501 -0.2188525581989715 0.18210223805281542
Ni 2.5874036823869546 4.831657546661359 4.93927520567599 -0.6336051795657991 -0.40131577913563143 0.99293895784269
Ni 2.820046536195739 0.5209206920586628 7.452695022434736 -1.6410307610604382 2.412567654809426 -0.20325084710597252
P 6.251314896665089 6.589445431647295 3.5145912182809216 -0.6478102674215875 -0.886473432588583 -0.14557328988884607
P 2.954601933959171 3.055998807453101 8.715492420354243 0.43248063477421 0.9732633337906335 0.5437826621850119
P 3.74937691988766 8.50537750654403 6.1086983095664955 1.3099413223412215 -1.5531126597912155 -0.7069695513905631
P 7.072758271533369 7.46058522520172 8.069697295851864 -0.667395902862999 -1.4537667763010254 1.5033751833567723
P 7.776211721533597 3.5371972973025825 8.019336235828128 -0.8421550702871818 0.8473224734207343 -0.5454271397669703
P 3.850396887505502 2.991970772649364 13.306252874520489 -0.09541980896290664 0.03882751439015894 -1.3469176424552545
P 5.407422640103955 8.826924182978361 13.466739396558777 0.5283946097647158 -1.1789369314054858 0.47918575214023273
P 7.340811892041938 3.1956102596518607 4.460882366396804 0.47916544042525866 1.1003192816015823 0.4864594029835106
