# total energy = -340860.3392982608 ev
CRYSTAL
PRIMVEC
9.43811290957076 0.00000000000000 0.00000000000000
0.00000000000000 9.43811290957076 0.00000000000000
0.00000000000000 0.00000000000000 13.81363226223101
PRIMCOORD
 96 1
Ni 7.436091120216447 8.16527973921495 3.9445376233140026 -0.8544552278107737 0.7342556408000258 -0.5272779796617694
Ni 7.066296410392729 6.651566844044914 0.1377039579201654 1.9937830294650694 -1.278025190358915 0.5159255307634275
Ni 0.25194193521107916 3.344772905602899 0.3225899870962902 -0.08227555827146475 -0.9168579584177113 0.3058538040808797
Ni 4.332292118577692 4.167568730441776 9.913090872947368 0.18509834456666185 -0.06750611327177405 1.6363161291935884
Ni 5.389993140649986 2.0692119185766518 0.6766721262118959 1.2983890987272477 0.2382062801352349 0.09024289274765748
Ni 0.8876356619152388 5.507054057572565 0.8437087958714535 -0.49180035558044977 -0.40155360617805036 0.642654434252261
Ni 3.439635380487108 4.858844449071176 13.032996958422297 -0.057608651652404017 -2.448027795389249 0.7991924506827268
Ni 0.003038128610608576 2.1539284218659422 5.710196228940364 0.19807598777325242 -0.8682216854672465 0.21216229066298944
Ni 1.9368423821871357 2.1805722151798532 3.970590590747131 0.2681087241216221 -0.5579036749674262 0.27003499461005753
Ni 2.8736034228480025 8.95390959459001 9.706217815466573 -2.1668162153370814 -1.859688172529468 -2.625363979511988
Ni 6.0851667999944565 1.1399824921788035 3.245513213820018 0.44231664702802537 -0.29260902325583155 0.22686488698048674
Ni 8.198586840385618 2.186848560399035 8.858806447821456 1.9854490556780773 0.09198867179417061 0.32580196506803244
Ni 6.813600369944037 1.2769767039929802 11.07318787178951 0.3487043235875027 0.3771836619741181 -1.580002542203524
Ni 6.421644970534396 3.3142406096870287 9.398408857314283 -1.4198919779304513 -0.587311181595266 2.2557632720914507
Ni 3.5273532037458715 5.35736558362335 1.647399992149927 0.48376925774585716 0.5206458190572324 1.125289835503991
Ni 3.068066305398419 2.111721180031082 9.333926724724849 -0.12964067781898964 -0.47905616854090405 0.4054143746850372
Ni 5.8646075346906 5.929437933653849 2.8311866549020657 1.124854033518153 -0.31859747689979323 -1.2600140984934751
Ni 0.38304770825495865 0.6966035334808712 0.27477839369579027 0.7390738881242755 1.62485389419026 0.5191324677364996
Ni 0.5181505222015803 3.751168618073215 7.225621197828838 0.330181839303283 -0.33907785624133213 1.535092311954395
Ni 8.450169183487148 8.307587608710932 6.099146533135288 0.6925222656169816 0.06222789559197025 -0.3105707499405748
Ni 8.4237424667748 6.0305956299834635 3.9646228718266965 -0.14706427261207575 -0.7654156113425978 1.1231334512826208
Ni 4.5581084128846845 3.0643288126062442 2.5228114099630834 0.01868909176907104 0.9309892556127709 1.511255100325481
Ni 8.906162180358669 0.3904641775380161 10.282660955679031 0.40591496847053965 -1.1773518463065529 0.3932857097423033
Ni 7.137157763634262 2.57115908818832 6.823713308143065 -0.41576769289490334 0.14188838483809113 -0.786432065693265
P 6.325715988868582 3.3716620898577103 11.690339481474716 0.759971300398575 -0.054581691900622134 -0.0832147822562825
P 7.94251195544299 7.481526196735458 10.432152173064214 1.5959215274266254 -1.0397831718897383 -0.05370905948768169
P 2.2492250499532824 2.239343345525487 7.226726400874201 1.5224509690413006 1.6968555813395423 -1.2953708807262143
P 3.2509391850478493 7.748067949118798 1.7812541437318903 -0.13265195384148767 -1.0137803200680735 0.00844478833324352
P 1.8885003668297662 1.3580972861867693 1.9254269843787135 0.732204928918584 -0.4859927477597372 -0.6493315891621204
P 0.5228639158894893 3.5987147769823165 9.508917836114822 0.6849490812554139 0.3134593843422795 -0.9731728309593561
P 3.1768971876877243 3.3683304359293325 11.597580762003073 -0.83017038712148 -1.3811968753530988 -0.8003561319735248
P 0.3905661091596209 6.1240707022402745 12.718321772981355 0.13752265167022767 -0.09764432741805118 0.21490617195671374
Ni 2.1834602777919883 3.5608962577443273 1.738349425338086 -0.7552666958340541 -0.9438216314907488 0.675741703724533
Ni 1.1304122454836898 5.026606909629012 4.97793550412405 2.6108639861236003 1.663434582676935 1.2056815464891815
Ni 7.568319084909289 4.627252029539914 8.169561811133661 0.9932433764569862 0.6415822842340048 -1.384482745193222
Ni -0.33892452945845325 7.830962896577558 8.328819587966679 0.8515375399433465 1.0842483441816488 0.18380867922096086
Ni 9.257420436031298 1.6482437594620996 2.6047398946392213 -0.04356142953071853 0.2725227940289177 0.7269709342131544
Ni 7.897058002697756 5.555650901983946 11.809371076414987 0.3617033069503319 0.32332676405466254 -0.6735158997178078
Ni 3.8226340105538865 6.844415809253254 3.857373817294887 0.6292438172733099 0.25468756561970973 0.5272047032216727
Ni 8.970605616684345 8.129216709015711 13.626624071176959 -0.7186868398274913 -1.1225348984666734 -2.085274449907848
Ni 5.997071452211231 4.535796713488976 4.765123042062154 0.429345431579338 -1.0470833050955775 0.9097419161982203
Ni 9.323543856490831 5.779456878198178 9.299102918777155 -0.3664094541767496 -1.8546621800697864 0.37758706806012393
Ni 2.891677409456624 0.8383838124539159 11.363315468838618 -0.5823042152989777 2.6494161353651857 2.4817562979899455
Ni 6.8287485414880775 8.092568515803555 8.858945188084196 -1.0426833762556689 1.997437081277889 -1.356357704822232
Ni 1.2227736203933373 7.917095116833581 1.3120572266173076 2.8187343342794553 2.308130215728941 -1.185205280912701
Ni 7.5197411167241315 3.8494382517906938 13.607574183672602 -1.7343618058151165 0.4188064797212272 -0.19475592226108393
Ni 6.735811441678626 6.596910731015916 7.07624040636706 -0.201386283093408 -0.6512164648896591 -0.17337000038614012
Ni 3.6986643948336515 0.20324315917809338 3.509795481924452 -0.6694736113276342 0.01866003830334851 0.16845739357587117
Ni 4.5402986934431855 1.9332747754309687 5.160247759854655 0.1659060879089272 -0.24521305047037123 -0.16608220847547528
Ni 6.949273245922597 8.311315663389994 12.05127557833193 -0.6073061366599541 0.2923292872318836 -0.7148402123878914
Ni 4.785868958492656 2.6337715305703555 7.73575876199871 0.2580587960847878 0.5318797400998388 -0.9305776219966488
Ni 2.763894796039322 4.353886521376923 8.203929756218068 -1.6138138343260144 0.9418578228961586 0.9139261294828969
Ni 9.367619844721778 3.6834973470633874 3.980646900267489 -1.6761540871261327 -1.2269533113837645 -1.6055515943172218
Ni 0.7274586128651569 7.278040478050397 10.935010120591146 -0.1564883941394531 1.7231980758888128 0.4333573809522085
Ni 1.696670717837473 6.332766259362911 2.9584246891928307 -0.8768487650146254 0.14532312155125293 1.200721888491061
Ni 3.8473996193585984 6.500264452753624 10.46879942246506 -1.2471454700609232 0.4731472592556367 -0.058246799457035175
P 8.054797187131124 4.277267919137344 5.843622833998375 -0.3890829845148654 -0.7198700615023151 -0.9637001155822307
P 7.888969539761156 1.964637625300656 0.9253352609280219 -0.45603013995937586 0.22475452550570324 0.39573108595900236
P 0.9697283697595177 7.2954443586280995 5.342767654073713 0.41741371313875847 -0.25252089698569413 -0.40851383954596737
P 1.656266155606919 6.977946233555492 8.973556914654328 1.6959428397172853 0.5269797316950602 -0.4242531046580951
P 4.767662838300472 5.399733273381107 8.190890059143147 0.4914758823614955 0.16630640867113938 -0.8764669561951743
P 3.069916175568283 4.040182517775159 3.944966113649267 0.18142012438412627 1.0748177948963684 -0.08424939416838394
P 3.6302286366617884 0.018392051020481304 5.834961477595903 2.0890020352710796 0.8246291455882766 -0.9186551595274501
P 3.564152406767813 8.348331943013502 11.838767023512226 -0.5057987267420708 -1.5044301069838477 1.5706239292021014
Ni 4.823432648676634 9.368072874151133 8.071305390774539 -1.1882546092619857 -1.7529295415149746 -2.8648984915403433
Ni 8.859434082343375 7.232039114744693 1.978084105050684 -2.6629182836166785 -1.0422036084057729 1.4668467494134352
Ni 0.8201352207527303 8.982403258073786 3.4979430994789644 -0.6226749058065405 -0.35142403651151094 0.19540049782361832
Ni 2.540532411141333 6.719964849764331 13.455459170842408 -0.7299665265063686 3.05347322469138 -0.9042731797741653
Ni 5.068870780142542 1.1748280057866534 12.436054236531547 -0.9549575935029102 -0.7368318861676343 0.24950010788149937
Ni 3.101345092229751 5.953127597563846 6.0658979482659126 -0.5997103265905671 1.9635149746091476 0.36220827161120844
Ni 4.827273960713034 7.712108738163783 6.227309502510986 -0.8248590022108955 0.8781242892929393 0.749949911606831
Ni 2.800193779066351 8.092304248636431 7.326819478044832 -1.469167684237128 -0.41295027805076623 0.9868449291298101
Ni 8.799190606352338 3.1462138819620686 11.149162794714881 -0.8839131280605744 -0.5328364475861533 1.128766995419314
Ni 4.989486810761279 8.77383983453471 10.375515943904412 2.2646870569436417 0.5838255370395107 0.5903247716106091
Ni 9.150845262775652 5.828865400337152 6.742627646967789 0.044564416873936155 2.4409837440582733 -0.23703231443179176
Ni 7.868526586761535 9.290491584374175 1.7384315369221566 -1.0097328894715771 0.6923242906735625 -0.14322664403354043
Ni 7.345683434720891 3.2797065538118604 2.8855851074431174 -0.7274111070743666 0.4834180450540255 -0.8651983252598905
Ni 2.2837779820546737 2.3033526286480326 13.40944553798966 0.4353093624722567 0.3613564651338745 -0.8817341181313847
Ni 0.9363750218346042 1.0064048773110086 8.161066565521955 0.17550787266474935 -1.0561940091475939 0.7828008966985809
Ni 5.203628159149281 8.208081582175838 2.167690134593896 2.1948520384283747 1.4481743698149123 -0.1473640632406817
Ni 1.5430654269469646 4.954811183189436 11.078879053995777 0.3023681595251244 -0.6653212797221575 0.21919040115436444
Ni 4.910971147786277 6.71850194223204 0.28175221547391605 -1.7465120680244048 1.043111464932023 -0.11245491006832245
Ni 3.5830569473302516 3.868078525186009 6.183410006995223 -0.08477775586802819 -1.7218616164655767 -2.1794645002287107
Ni 3.1294801074152874 0.20947325764302882 0.35516374687818947 0.2264241998986423 -0.7337514474700976 0.4666521384495963
Ni 6.1967630494254475 6.022629862517313 9.77452615911143 0.24996959131875016 -0.5113991036479838 0.22224795703376565
Ni 1.5792417145035433 0.12001410251518357 5.691838155127085 -1.3154424546651087 0.3779405947448007 0.40151221141715365
Ni 6.409403737828713 0.4289811171462597 5.992049432224574 0.2843010176107684 -0.3768080238022543 -0.26778476512330013
Ni 5.442044334460195 5.428226936864882 12.168414831593337 1.229227966350554 -0.5785200656661972 -0.7873023841133603
P 8.212574124016937 5.220626200863187 1.915122452483521 -0.2705643847509663 -1.28262592235572 -0.2989586196229432
P 8.404233886973223 0.4230539821122051 7.715894365332828 -1.6840440313971707 -0.810621775565591 -0.6341093728957272
P 8.34503804153757 0.7512247254913559 4.619430665204371 -1.2450543918598493 -1.1191718955317114 -1.1467942852346702
P 6.452101761545373 8.767506860636859 0.18905767517143077 -0.9058562079905689 0.2966813935529923 1.5422890868131502
P 0.751911820125877 0.9090280890938824 11.968103150347691 -0.12419790953686353 0.23152809678411096 0.05632207163049655
P 5.961989985775592 6.711829196262173 4.918937859063738 1.3529638486493345 -0.49818054807518075 -1.8086026667075625
P 5.368946148411225 1.3290373359163008 9.280606104701135 0.9747023802300052 1.6272128813407398 2.916953817474686
P 5.362868003567385 4.5743230912103305 0.6723966609723628 -0.2557607440792305 -0.5895799230247846 0.2022254911652517
