# total energy = -381162.2477449938 ev
CRYSTAL
PRIMVEC
9.38335492331039 0.00000000000000 0.00000000000000
0.00000000000000 9.38335492331039 0.00000000000000
0.00000000000000 0.00000000000000 13.73348841431356
PRIMCOORD
 96 1
Ni -0.11218832966797769 6.801646791856819 3.8966304861439705 0.7787987175177233 -0.17274265121478635 1.4809891023520882
Ni 1.4148222536895538 0.19247606764031686 12.916922753588903 0.7249338491784676 0.211493546730739 1.8077752857102607
Ni 2.054382341162868 4.504789176402985 8.66757570963031 0.7093840743693267 -0.26734844891682985 0.053016147185715144
Ni 5.016547969969603 7.3661775734506945 11.229777711967577 1.2969140568436182 0.8389535326307488 0.5900722892801709
Ni 1.978405316437279 6.360178709938884 7.153623002968855 0.58191289339783 0.7396873533385584 -0.06714615882919404
Ni 8.034985578185916 5.089512937768316 9.857224657151846 -0.08914785991126582 3.1167920393546837 -0.07846749737928421
Ni 6.033497208664167 9.078133143795862 12.663196836757988 0.304478778110224 0.4064968091159387 -1.297819599377023
Ni 8.423963172723964 2.420305032681183 0.1306979355681502 0.7736994486179449 -0.6470337942668792 -0.05197819283950403
Ni 8.160131382652407 6.306806187197234 2.0620419737778484 -0.8484858976012161 -0.3555496286441102 -0.6007696210930169
Ni 8.2141419735281 3.092143861053105 9.175000331562897 2.2799594097216795 -3.517463242927781 -0.05268833153265119
Ni 3.9306686060886507 2.966116021224849 1.0933269326749127 -0.021088959459815294 -0.08177856403038819 -0.3844699112228862
Ni 2.679632812394794 2.501968370483678 3.135479009044977 -0.6536497569215001 -0.07266888841963613 -0.37698183037595717
Ni 8.222859110241707 0.13161093600112536 7.332721221510583 -0.3487758002553864 -0.8369863816020489 0.6757383612904233
Ni 7.133629888657033 2.2792638249931096 4.625218906690511 -1.2952446395609951 -0.7278571934728497 -2.2674198824937726
Ni 0.8773746493792974 5.858169222126236 13.079417125613164 0.33120565258210705 0.7697116676147906 0.24801015359953416
Ni 5.999989248272037 2.6105619368847206 9.924519263577004 -1.9704194150384646 -0.9332124885163346 0.5412614384250549
Ni 0.9126926589340268 4.649686942960049 10.988548547208973 -0.37379597644880785 0.36590320396429243 -0.9543502989362146
Ni 4.27151897328107 5.354527030558832 7.175706728755155 0.4824142863798595 -0.23282650388056028 -0.7706033261911245
Ni 0.8209309545748221 1.0617547584012077 1.735432724335957 0.29923424188183306 0.03553213146833881 0.3521143777103162
Ni 4.125288770326447 8.843643104535337 4.615083945049643 0.06630103722007936 1.4750997334508467 0.19921421514275367
Ni 1.3581186399540057 8.343613504609202 5.805914256954649 -0.6371584441346962 -0.017150286527041432 -0.03888716398350076
Ni 5.709292913086321 5.521006513414384 1.6871178298920817 1.4398154563272558 0.285327916213386 -1.0568234152014766
Ni 9.10876041422989 8.636036377098797 9.395024052554996 1.0551773949576213 -0.6941297193134175 -0.2494072910573769
Ni 2.6468192202661798 4.561117455942038 -0.04717012514456419 1.6658339361470473 0.5317984932399422 -0.49483605708298006
P 3.619788674486392 1.3506964062183082 6.392073671621576 0.7081201200552385 -0.24599235183855697 0.6569402547473138
Ni 4.090401456762197 6.644550663913653 9.23888878015486 -1.3072321509401745 0.6268334080596043 -0.6625969388124588
P 7.067768120526996 7.770675237013829 10.300253190991711 -0.1580336271393859 -0.9282245483834402 0.15588727022034446
Ni -0.029618559780946258 2.1590818152752704 7.21249886336662 0.17263749309548976 0.4243621194321336 -0.16599479096799155
P 7.0997747441331445 7.69162985523189 6.664312947694629 -1.3858809110923294 1.6688297855505774 -3.198021158639505
P 2.4008158045281576 8.096014918536074 8.608315131681136 -0.6879837543166797 -0.38484632072569847 -0.16251454572887494
P 1.0308741373845456 9.391799931807098 3.8201899236857098 -0.36549002768627376 0.14056015294497082 -0.2848969993235545
Ni 2.8851564350407832 8.362108097141514 1.8665322674943574 0.6375713633023987 -0.022244670330813305 -0.6498877187759067
Ni 4.9410494963445455 0.44399408106034854 10.485284504844541 0.16335786756577672 -0.029069406562130577 1.9300556665094373
Ni 4.431786675184622 6.987334002218024 3.132691214300507 0.5649428412023948 0.3909760877725202 0.5924762707359732
Ni 6.90665591668133 2.019007093143173 7.4261775597669635 0.759123607686299 -0.5187069501633066 1.4342078803324914
Ni 8.927839948164177 0.09971222097646933 11.669770730493282 -0.8409769908186807 0.5261389809613196 -0.2431505115143877
Ni 2.9954765387457045 3.3698254829753425 11.021468171248097 0.3747210593662385 -0.14585585412627136 -0.5894945623998299
Ni 1.1297746981610934 7.493340799223349 11.229955995710911 0.28204384614547556 0.4333226710595311 0.7228103750775616
Ni 7.047256106688521 6.936973536403248 13.642888526437432 0.019388431828940803 0.2481201968148372 0.31823700823658096
Ni 5.684492706052883 3.3325078804887833 2.567984025634278 -1.3834640741207205 -1.212010574031003 0.9999364722064457
Ni 8.242667372461753 5.9307025555989785 11.955715334751368 -0.25508660083034135 1.0061338592664093 -1.4624954144232747
Ni 7.950300800101632 9.342237051159877 0.5069301191287037 0.04283714977018429 0.08365058424212045 -0.279607468789841
Ni 7.599616676961032 3.4567810329484225 11.486510994047912 0.5173131551395735 -0.20964286667524537 1.6906368541233399
Ni 3.6133141595968454 1.2784445733929366 8.885552920916018 -0.44013172356156455 1.282527963325275 -1.5979843234929252
Ni 6.300125238499614 6.786473906963491 8.265183670909515 0.10901734514168322 -0.9424244940329061 2.5989942312692076
Ni 5.680410946665996 3.2706058881317728 6.187402995937122 -1.9841123391445246 1.418302007735512 -0.5990917191699617
Ni 1.4597403736551455 2.171833794601203 8.96184241136019 -0.6634153209486962 2.7347551630533222 0.02908097652635637
Ni 6.254972534661213 7.972398600920302 2.20253613187453 0.13847524539148412 0.5218539804327207 -1.0919094602713324
Ni 7.043352631044969 5.2673368967129415 6.324971423972121 0.06349133568542613 1.9022299025464207 0.34562439911059833
Ni 1.2345586224677072 3.516524853675584 1.5222607291008818 -1.0316489728183782 0.23558118380756202 0.046352619122610496
Ni 4.455545329822784 1.9985419960792594 4.4592226666129475 0.7316215456112883 -0.09239464898333764 0.5303075105167124
Ni 3.7313098476200985 1.6144343627407403 12.72928192873494 0.3106972482161101 -0.149626119801981 -0.01979775145221752
Ni 4.419015929148865 4.963381881036024 4.393068137809644 0.8304346965264601 -0.5055382739918325 1.8743766277795784
Ni 7.5301986173192015 1.5223179675658474 2.2962251773327385 -0.42849208244010717 -1.2135151836009874 -0.1915494995086443
Ni 4.560901638779053 7.871283568384431 7.096876225800709 -0.6172807313741627 0.7487484350995621 0.47962926743555456
Ni 8.879290469847492 7.141906007689759 7.426781847823322 1.6257432387737487 -0.9943319815354745 -0.305470452599532
P 0.20424185636495762 2.0260164592627254 10.750561331572603 -0.9285045415177041 1.2991118358258853 0.7097499423491777
Ni 1.143990480853358 3.1547308383187187 12.639712176083268 -0.6191792339484562 -1.6117885763658693 0.49369860104442714
P 9.113958792851351 4.652014014978321 7.878435561498651 0.6730937245787246 0.4640671513312395 -0.38939614487991003
Ni 5.337749591975487 0.4092766062200118 0.9392484916715704 -0.794455964439006 0.9275810012621701 0.8775283075801532
P 9.133541854553501 7.86904094656037 13.083084140712923 0.12313707237251696 -1.0374555521978261 0.035489965376493716
P 1.3614966477224646 5.142829160380493 3.8442920091136643 1.1893542700840678 -0.5173092984848316 -1.4500039668244833
P 5.891874232971526 2.2077438938509037 12.171207833656275 -0.5913467851172203 -0.8995996855578958 -0.06600613168747987
Ni 5.501057500870652 0.11972785534007979 8.305258103069333 1.8372432132623906 0.3015829446196677 -0.3221769667209355
Ni 3.6430312446043716 5.059927219729563 2.3655794301611657 -2.563714582131307 -1.8636579558104933 -1.4674098210057567
Ni 8.648309805324198 0.43394356961369196 5.090770307326576 0.6064903256268781 0.40733138920209205 0.0222572687363036
Ni 6.840850448680768 7.300465938999256 4.344574959622434 -0.22006071957445972 -0.4687064498754638 1.7294646256238149
Ni 8.287932676559103 8.678890158983664 3.0162719299025342 0.54636224998673 1.0496405242997924 -0.3840076268744871
Ni 7.306668336596343 0.4748793937544669 10.055536233212177 -0.9207709203188722 1.5563252531912424 -0.5105982050132433
Ni 0.48390336617370855 8.070754927111931 1.372408551150078 0.5952754307476651 -0.5187244336648035 -0.3097400265091633
Ni 1.458098286545478 0.49495601992500793 7.474670737954175 0.9553831110761031 -1.780968964150694 1.110141924118959
Ni 0.3777597937402899 5.1111603375511905 5.677877440839652 0.782995272097574 1.6105418484429617 0.9839956326064732
Ni 6.754467283357342 4.714488391984986 3.9957449874125213 0.8090472319896195 0.9788606253727529 0.7094054145255654
Ni 7.881567725368406 3.662698756500733 2.2347407442693297 1.5378392785719128 1.8725470307700072 -0.5825602971738418
Ni 1.74960159025366 1.6866955789210245 5.425511172135542 -0.5414524713899385 -0.8046010232928079 -1.1592260832401196
Ni 6.136958079928135 0.46365502460827085 5.79851266659976 -0.5799567981127237 -1.374050751226621 0.39234468598527267
Ni 1.8427689211787401 0.7080266749270294 10.53342111554508 1.0358424420744354 -2.0123811041822313 1.3082657344110113
Ni 2.760507948384648 3.8013190586214103 5.62843654380629 -0.26761378676307457 0.26781227592712586 -0.12075957327927589
Ni 8.371407001859689 4.822856757868132 0.16117601065907103 -0.3392663181030544 -0.896585067101288 0.827751236157026
Ni 8.369755531395109 3.503735340930002 5.7959716540894854 -0.23326873362430148 -0.2844645397718262 0.4833491394893031
Ni 5.136232661877085 5.253224330924714 12.800792476522233 -0.32075437534179596 0.5226613068253644 0.7999167304432611
Ni 5.703634750074151 5.41189686249316 10.510554817959086 0.37659539357081595 -1.7939388940478005 -0.4791415291658586
Ni 0.0962375646524128 2.5088088362148073 3.6776774059473745 0.330909718608243 0.06434211372149563 0.160405212695356
Ni 2.7683899665110525 7.441938781013299 13.466578102640174 0.260426524986016 -1.8640582765727058 0.9895965237330182
Ni 1.5308005204066444 5.9596783555684265 1.67143449049152 -0.19607541240345586 0.019876684319268992 0.8512614034638243
Ni 2.2106715005835684 7.469028526645357 3.8166326938384243 -0.26119888437566624 -1.3635117993685097 0.44668263730620494
Ni 0.5649980726685129 6.341055432627441 9.306457380543458 1.2902530998836748 -0.1517789044789257 -0.4028137038373966
Ni 6.45104711891043 4.24524557952639 8.434861001119208 -1.116718548895212 1.4214840050079196 -2.351352773863002
P 3.1684868366202767 0.9671986909490944 1.389526605516744 -0.4781614246407765 1.615215342659231 -0.7399611758252352
Ni 3.0955875523059504 5.8798823053934965 11.23553158519985 -0.461027078953335 -0.2700694473924187 0.7035013903363045
P 5.020676646131053 7.405334313500081 0.4446152591555485 -1.372763914094397 0.14427822522650635 -0.39526777316933864
Ni 3.328491804586282 8.664702526356137 11.824766863607055 -0.013185388342022455 1.1736954805008883 -1.0722405210874952
P 4.087220499446898 6.88498975018863 5.417119637837394 -1.335017805693875 -1.9478875524845358 -1.725255986859106
P 4.403908727739924 3.646277885404057 8.518443235001286 -1.1079729414920985 -0.6401450375668458 0.8268050701936728
P 6.210645566055102 0.3866064207516874 3.5905520172503795 -0.3745094575760647 -0.33163605525130624 0.10100655902206476
Ni 6.275484548499688 3.397168579190035 0.2848983601853535 -0.3678767827508955 -0.28218654237092694 -0.7413331164720974
