# total energy = -340888.6739910459 ev
CRYSTAL
PRIMVEC
9.03357261832840 0.00000000000000 0.00000000000000
0.00000000000000 9.03357261832840 0.00000000000000
0.00000000000000 0.00000000000000 13.22154665443630
PRIMCOORD
 96 1
Ni 6.581598936713804 1.7597128187575937 11.328220942179778 0.003728613804496804 0.6208982735220919 -0.8716420240027053
Ni 4.502016349944446 0.4644213814382108 5.93529741363942 -0.21199156941308006 -0.5687131068781045 -1.2837060427937763
Ni 2.239034174647458 1.716920785910811 4.82774167963898 2.1436035246660436 -0.03482353543708842 -0.9424018683250867
Ni 3.550790201172361 4.548358576776617 4.9048368972712995 -0.573089124458613 -0.18415397837552155 0.8219297443792425
Ni 5.411371890262902 4.537735095537896 2.8631393067765543 -3.390373613665419 1.3333015943337168 0.34291625615081583
Ni 7.141960471338836 6.214763625368617 2.5445396590557454 0.7575760606935211 -0.5224854433691324 0.7888447888998156
Ni 4.821362170752259 4.728569314218134 11.160664433070911 0.5403687514074564 -0.6994117936479632 0.7158113180519091
Ni 5.325534884539844 7.92894723881741 12.561196086447236 0.2837844829856661 -0.04832182703383936 0.6547550741705369
Ni 1.8626323100439344 6.215025598970593 0.4571032843706198 1.2200915512669244 0.6108401179551415 -0.2646768156219377
Ni 2.70250161083158 1.2533720475743524 0.4125677720348295 0.3312120803400102 0.5899200799730228 0.09538407062896476
Ni 0.5389890054900933 0.09405213653810279 4.719140071261522 -0.3612392228297198 -0.33192813257042836 0.2321788429942324
Ni 8.80639620112978 2.0874688955460607 1.3675970548217966 -0.9358021036203819 1.2093556529066591 -0.06460513757489518
Ni 6.809579205439634 0.8755049375142634 4.740175648142886 0.7235976468655474 -0.2602863998637259 0.8249551614691276
Ni 0.9565107886739994 7.228050417091387 2.500736769448238 0.2620177807325358 0.46840563080559333 -0.05075537617599646
Ni 7.508064063312988 3.899964878315424 3.659763992736074 1.8815698030939079 0.3198904846796039 0.491188947248696
Ni 7.889100150599729 3.6072500291842653 12.748426813064441 0.22215179777553354 0.36679640520252316 -0.06502705560366219
Ni 7.9725793939050105 8.872476783834914 6.8683290440757006 -0.2502264445245626 0.14316108090292767 0.0777226487934597
Ni 6.7290087724735255 1.132891291383189 0.3703873120450718 -0.3549721588740854 -1.5228631168780549 1.08479084694868
Ni 1.664769971972775 6.3690570433595495 9.126066327189696 0.9929320158641544 0.529914645953668 0.14976135982826466
Ni 0.37524285725409556 4.622063494656478 1.495647944752796 -1.1464934661647996 0.18434064046503093 0.6193013613486172
Ni 6.385507178849099 2.1914001469503748 6.835737721275485 -0.5536477279045496 -1.396385667278395 0.6123215875966745
Ni 3.4450793359891114 4.210204858061477 0.31376307301399664 -0.5691337393552909 -0.2836441007530599 -0.39149133684604187
Ni 6.130724300569458 5.912030544355026 4.85474031771565 -0.5106385713328754 -1.3830688955648307 -0.7082183361959996
Ni 5.2508724079769005 2.5786874663945936 9.331661403305365 0.8412780669988673 0.1666571071423388 -0.058728624189460135
P 0.3548495673761957 5.470460487867042 12.307263267338143 -0.3069555217854907 -0.16040675535725277 1.3284465802342604
P 4.064610770370619 6.069088235525421 12.781321663900048 -1.146478296656148 0.5296775902421975 -1.215533242472281
P 2.4833381088480895 8.310507273308103 1.3516780933941839 0.33863536938727484 0.3935322785354707 0.1680213344797171
P 6.334648165775975 7.768438722958928 5.841688825510178 -0.11879782156721476 1.4141100811413518 0.30066531790140477
P 4.781036303193036 1.1974452003388802 12.609415489641147 -0.20582966357674232 -0.2713025484685715 1.4068793677208673
P 3.7721217605515083 6.0216439128504575 8.007616104776078 1.5837301275667564 0.7741797306884731 1.0334649429811944
P 4.434129052742932 1.3635274304186984 3.8352799825587454 0.48313496659596794 -0.168841002167535 -0.4567143105105941
P 0.010159155613150048 5.664049946154259 3.528909985263939 -0.13739563917406014 -1.1745370025655772 -0.3097724224089955
Ni 1.1979510803978668 0.8266829950358093 2.5244959684328956 1.642545397932752 0.36962667556246664 0.2903590508793903
Ni 1.4806205969291473 6.546946152673217 4.816635805629727 2.9911885077195453 0.8868889228594469 -0.505706938359213
Ni 5.74003132429956 5.832363468637108 9.282728347885381 0.2003359874520227 -1.2300959707778043 -0.0845692394016479
Ni 8.826405564177199 2.3553504539244634 10.098128410891293 -0.8745414570376874 0.17616196130898049 0.38665277780681795
Ni 2.053529763731545 5.548582822690554 6.948371916408866 1.2753103625309132 -2.9367531115888004 -1.3890564806068335
Ni 0.725039947541162 0.14653628930072105 8.961153944746282 -0.38052866718695105 -1.5279937532364007 0.4829488187270909
Ni 1.4295267109714944 1.2078067079756247 11.422239654499696 0.16371525090519548 -0.9537134366831641 -0.3139126698296142
Ni 4.313711531559142 7.029754467541097 1.6686778954284471 -0.37327969893402163 -0.5854515026787078 -0.34487672231129635
Ni 5.569079998651995 7.976626434376904 8.192149406650186 -0.10920400723119257 -0.22220424828002378 -0.5820813006548944
Ni 5.486540246884831 3.1546048128334654 4.68878365429333 -1.1182069605152807 -1.2995820905940845 0.4922641825907458
Ni 0.7266930913053505 7.218411595253196 7.032857499688631 -1.8803570137327292 2.971413896195779 -0.1796954283835357
Ni 5.155866326184709 4.388952156760926 7.27087226072736 -0.29385292296526166 0.11257009548994806 -0.2689353337879755
Ni 7.961151924715401 7.020097578557941 9.368404556018264 0.7094879469370426 0.4088632524655862 -0.7019710697347071
Ni 4.282762512236136 0.19516491332806232 10.763198084154082 1.0488509385189615 -0.1934300043608088 -1.4020289816071017
Ni 8.25552895118323 7.227562604177364 4.862144233721818 -1.366045364423641 0.8367318423890816 -0.36408183448483744
Ni 6.967088575234125 6.025383811857966 7.2234469085546085 0.9903853381829009 0.291274363604808 -0.6904232169961078
Ni 2.6706763349778293 5.001997486100426 2.5038831627436853 0.0008222387909792291 0.18719662185658728 0.6005371933672368
Ni 2.2572910246333877 5.157844678558247 11.391221980025827 0.8902886925696151 -0.44554183883354237 0.149796069720942
Ni 0.9809737029549973 3.6382532499421623 4.0162296662292825 0.41451299455219576 0.15365246735255472 -1.104035554110905
Ni 4.15534397237887 2.6423560852470582 1.9167145017786014 -0.43549653878239836 1.0786045156323103 0.7170431335764813
Ni 1.2112846333811582 3.3981770276630625 8.15011800060638 -1.1069416720141065 0.7109208227288273 0.606446102652504
Ni 3.60964392589197 2.529996510717127 7.067855366198026 0.4728929771529856 0.8029357197752429 -0.9394780098100722
Ni 4.207332182012232 7.037965984927148 5.8179829246031645 -1.2596189199375853 -0.0485380568097035 0.8116844125021505
Ni 0.683436732832998 7.544532595422437 10.971622475171085 -0.6387669262723967 -1.2755939552096032 1.2157679841909061
P -0.05140102742203786 5.50588112556859 8.066280124473566 -0.3546767391208537 -0.5274839250249883 0.03765097758355451
P 8.563935115715458 1.5750665972274613 8.024011135473486 -1.4715469831025818 1.5787594138250425 -0.3814900026589559
P 1.8767879181230789 3.146022918975656 10.390628260997381 -1.488686985216978 0.7489911472379874 0.021804497469601156
P 3.926433245687405 6.297691820752502 3.714686306711558 0.545930304655634 0.44330755018638496 0.5224607607787841
P 6.944098133267676 3.9437596377076978 10.715732984262411 -0.7346104530362834 -0.6911428687709517 -1.1821256135461125
P 6.16251344213328 7.537314771009395 10.551667047560553 -1.063280226570414 0.6864012403209082 -1.082749133928303
P 2.2698296232382713 8.634920928278264 6.026063136508605 0.056363980612025515 -0.6130461244675248 -1.4814357029712033
P 6.853518501991618 4.01585657968578 1.5737738930053007 1.8915929916578649 -1.7305334332079614 -1.831789132126355
Ni 5.535095698975069 3.2889430692118706 -0.18821357930323665 0.03147775889330708 -0.8376854645516024 0.09400518800356712
Ni 1.4136547241207877 1.3599862700057916 6.96200357728406 0.3048292194711073 -1.0827100531602514 0.790927125350141
Ni 7.25927044358885 0.3345511300093558 9.410065585590312 -0.7361639135663323 0.6317565563928346 -0.9537262921989704
Ni 2.866488052095596 1.611300256452381 9.137609426107073 -0.08677781701719249 -0.8003669306068022 0.45978832145022747
Ni 6.411243826850045 1.9034911583795895 2.62729350649073 0.7817459730715054 0.6824630816087666 -0.029207474801891634
Ni 3.7275952817882 6.734356647382812 10.312263826431355 0.9904640139396362 0.7713846844418392 0.08438283442245467
Ni 8.453273852812124 6.94421556970994 0.4724468072311349 -1.4785280424061054 -1.1453750362896402 0.123892976701935
Ni 7.6553564626304444 3.63164970845789 8.2205491518188 0.060691404342785804 0.8505119268923095 0.6832873772822748
Ni 2.5659772299125536 8.21398355133895 12.315156802972831 1.5932581216618495 -0.9372892296888696 0.24979449919346658
Ni 0.2116168555321072 4.855427772581523 10.182785632048216 -1.1745030640038483 -1.0846795181817965 -0.09057610771736013
Ni 8.654876089890793 2.423192583263568 5.820111234279901 -0.20629246214577374 0.7124382878146182 0.019209225938599177
Ni 3.606509276240749 2.4878458615165595 11.386739521360306 0.8018535424546577 1.092500299777796 0.5267357340050541
Ni 1.2739324585431675 3.187568318819936 12.901558513634201 0.1579536658310699 0.33188828047142843 -0.8822419110057386
Ni 3.045515391541984 8.445586282630025 8.069823994958218 0.7166271290849852 -0.902265405315517 -0.5626468460793664
Ni 5.655856495913172 8.218825546189251 3.5898351081536495 -0.3032361639523745 -0.9923848851114329 0.2926393622731347
Ni 3.057746848682483 8.549201358997472 3.498633063733587 0.1760971695093161 -0.4659083183050363 1.110749218685655
Ni 3.3712750488119503 4.059669406223017 9.076327477104327 0.49534436417796635 1.5611260170139951 0.34989114480675226
Ni 7.405993727839946 5.943503510881983 11.575847424339251 -0.6268015263804044 -0.18372023327221262 -0.16652263844700352
Ni 0.5645061376797296 8.789051741964522 0.27963152610561604 0.8069319854188297 0.5487009254222357 0.22108144752949024
Ni 4.7359678100808145 0.4700809145981241 1.7597083019713529 -0.31478530224255463 -1.6370260107764196 -1.2817504617293023
Ni 6.057904672792823 5.574906652902824 0.385711864403375 -0.2978363330930419 1.2949877863551824 -0.3725744453368809
Ni 7.780615978664535 8.580737560531801 11.572661283324885 -0.3942177346382695 -0.3244500790258283 1.1209346438590888
Ni -0.163567283500856 5.0678522294935116 5.65121956315821 -0.18417300453891505 -1.0573106392505403 1.520268616678001
Ni 8.124072404426553 8.686041914953364 2.484395036828472 -1.4550829240092877 0.49944707349243017 -0.00654551442800163
P 8.560872734644091 1.8764446423687664 3.661601421378893 -0.468850945873128 -1.3184586157836133 -0.13449826302160708
P 1.9825078168788097 3.016752496759599 1.8413121756293909 -0.261760156195775 -0.5369993207145913 -0.13003817036772444
P 4.83853499204036 0.9537284483495727 7.958656851995899 0.2912751349357564 0.4520037924088022 2.0661546983592607
P 8.578867611028047 1.304511101394415 12.52319726715935 0.12412771842056042 2.037976179042516 -1.049141987396819
P 6.408895098004749 7.729142682662642 1.2855333723244293 0.43484553546196075 1.6945045646088623 -0.020703808206254663
P 1.8972308926496295 3.4911776563642714 6.102470899275052 -0.4827174194425751 0.19155104217054109 -1.3434949899269506
P 6.939933656353518 4.098179525713377 5.965099169257223 -0.027712378313603885 0.285341800170457 0.5656303541877227
P 2.347418977285351 8.424691629479378 10.119903837358924 0.550986893242935 0.8610426512203042 0.1732545578541984
