# total energy = -340869.7589529435 ev
CRYSTAL
PRIMVEC
9.28692466111484 0.00000000000000 0.00000000000000
0.00000000000000 9.28692466111484 0.00000000000000
0.00000000000000 0.00000000000000 13.59235297827528
PRIMCOORD
 96 1
Ni 3.5939376397417044 6.540223736105412 3.313326714001842 -1.5041133470743775 -0.503141748735198 0.689568068084664
Ni 2.1890024088236038 6.751074070798895 1.2335831149739516 -0.23165356661838168 1.3505475258983581 -0.190597162897704
Ni 1.2290408801827877 0.3397807080439747 4.716532719571109 1.5770002650420905 0.4611664327446768 -0.47583406205918044
Ni 7.456137381666103 5.799935120468456 6.849893448722296 1.8643974050796792 0.47287343676895977 1.593766685867152
Ni 7.7505607502702 6.93610675527885 4.685868223441598 1.8712583938655707 1.0576662228177462 0.05379339167137187
Ni 9.014083981259757 2.9740725745791288 1.8117517463492294 0.6069706076974063 0.0010778064452110468 -0.3672923710023352
Ni 8.989306466594403 7.622094723146569 2.231700901768469 0.771044270383285 0.4497317085451738 1.8084147190664728
Ni 0.1926721086042891 9.16071523277823 7.45299932986497 0.5805445522953938 -1.591777423351265 -2.0785124485936657
Ni 4.057160148734663 2.6033292601279983 7.258167082613319 -0.174087595278455 0.21358385360086443 -0.354003624313229
Ni 5.413859093606343 4.528295117433351 7.416395845493895 0.16440687765558135 0.7118003971203031 -0.8700314849824758
Ni 5.771944329913216 7.099677357153246 3.5493715462723996 -0.46111758178461226 0.06111537925408185 -0.08724704334412717
Ni 3.5258087613365166 5.625220209149372 12.980737478224302 -2.075544367104277 1.0749355514211552 0.6163433071615578
Ni 4.005181232099735 6.8794565156016905 7.988538191536958 -0.9717322418580878 -0.7934594048536916 0.605868632882479
Ni 1.4725440415492026 6.4451442026931565 7.817492544102538 -1.1844285506476764 2.349233413527154 0.4013378906228185
Ni 7.007068145667896 8.860896161017996 11.480536046710748 0.6423412738872164 -0.7879222770855462 0.4004626871067168
Ni 6.444521978749162 7.745109325566841 1.1357760118251083 -0.30980584675009226 -1.4278644546129668 0.4128651745361277
Ni 7.386661899203015 5.726122644246478 10.602075639116292 -1.0918775785921326 0.9735836932445298 1.780466570592979
Ni 2.5866127959609675 4.489986553717239 1.6205887629822417 0.22882021093464464 -1.168018227610453 0.2810418872435224
Ni 6.353751578322185 2.716861912595749 12.77144270339081 -0.18360890450532893 -0.2514664875792508 -0.45924967533793815
Ni 2.2434795081590497 1.1663169918582734 7.427024730626766 -0.43891790575912154 -0.76179266987803 -1.2997805797581357
Ni 2.9764593141851994 4.510037023793139 8.505278460560666 1.7710421919552852 0.35746561471990046 1.3407310540285684
Ni 3.4256864279005392 4.298564465155662 11.061089313908973 -0.205533215382246 -0.10439321610611052 -1.2908650224360607
Ni 1.2621673400071203 3.847972173533348 3.7673783850142777 0.2715997679940161 0.018361533226323216 -0.5636012395728358
Ni 8.125269581498733 4.176933614491439 9.140979589444143 -0.9845322218362336 -1.1571265203986136 -0.7951231657093596
P 4.706139722321484 5.549968259624122 5.29539044074705 -1.069424906015571 0.7566468640110324 0.2623476532681288
P 1.661792989769065 2.675888001537449 0.5629585063681876 -0.499932497769281 0.3960961826079049 -0.8374422381925448
P 1.7167715830295218 8.692366341440714 2.2719755074091146 -1.8085008510223757 0.901479161968796 0.7938615253881166
P 9.206156154538942 0.32884628309382913 10.979698707264607 -2.0433312727068422 0.9309460610796612 3.3692496872026108
P 0.7378721578723676 5.7026452990163365 2.5647002975153512 0.5016173416708716 -0.403078527463009 0.05101068671991215
P 7.249568319184289 8.592866231948731 2.9979836191851588 -0.4090247177441149 0.7693236881477524 1.4999844125076685
P 7.359506931856128 6.930237418971315 12.878346349123877 0.2328645562073473 0.2712935496075069 -0.37465292513246445
P 8.329609782091609 4.0926269135423805 3.5566153474114466 -0.6093712467190989 -0.004720545404120902 0.5598831672913002
Ni 8.539029930406356 6.992041901766642 8.79442871341252 -1.30156081158701 0.048814193289225614 -0.9169484612489885
Ni 4.6649800727724395 2.2126933533181012 10.616755480732303 -0.5146206959090751 -0.6163960147763643 1.1572915852215682
Ni 3.8993845877715048 3.2389913839284175 13.359284595364075 -0.8477284506099014 -1.1596413164006676 -0.45643354604538167
Ni 3.4355770025326993 2.5247247308448046 4.082694547749803 -0.2939778785789002 -0.8657038041413995 0.7149245445715816
Ni 0.5157317090189645 5.429953333829379 9.968061015728777 1.5149191794406296 1.429796638638673 1.936166921613498
Ni 5.376618526212014 4.8699146365356984 0.6200257289570693 0.30253399567902733 1.1595574984376094 0.5809122200474576
Ni 3.110673947597382 7.7398900739769125 5.799068650409131 1.3853862308440978 0.636995950414903 0.3960270199328663
Ni 2.8711455899329055 6.984835248325744 10.21484339014929 1.7993616077252688 -1.780460657055708 0.48084205679673325
Ni 4.773005578989607 4.37809768689258 3.4377510715668667 0.8525361564111898 0.7890952143477249 -0.09652178377783377
Ni 3.4182104536480615 9.047117571838719 3.48702284969919 0.6044650676667332 0.12232923175924093 1.2465070651459758
Ni 1.2324584684124917 0.5758357559315235 9.4381491016339 1.9298522922493795 1.7544794025005976 0.009111732493281082
Ni 0.7944285996117013 7.845231659002818 10.34190430559044 -0.8182803205521133 -1.2979964912745194 0.4681392645180841
Ni 5.356558769211576 7.805279309643614 9.704233420012613 0.16156040934572174 -0.5743420230291076 1.172626930027058
Ni 5.261488522723858 1.29113325763877 2.8291529032528704 0.43674583780846715 -0.9696501625180785 -0.021794213056956013
Ni 5.212342118072787 6.7325187955734895 12.045012965240774 2.047025690839294 0.7496493496472767 -0.5103130696726567
Ni 3.575744554573252 0.1742858554054627 10.112574848452757 -0.2781352551196887 0.21014063224727036 -0.7629820622004408
Ni 6.5494920867935775 2.210715238391669 7.976033347647566 0.11017228468173283 -0.026520929108664004 -0.09140734536940387
Ni 6.646976933660979 3.3847125168422396 1.8982260154852795 0.2799491683999759 -0.6806489112181633 1.0068501686071434
Ni 8.994154241202843 0.6194174353998801 2.2800216988281785 -0.22184455094775987 1.1684059499671748 0.4516600359161383
Ni 8.28113203600722 9.238112461871582 5.057075884119591 0.3508599364779248 -0.6216048126708134 -0.7324000756485257
Ni 7.802493232282443 4.578732404595098 13.733985068360523 0.48131745377125495 -0.10600581200886906 -1.6636418135917348
Ni 5.594090438100546 9.091778391938302 5.214828227771406 0.6365130972412135 0.29437202869352525 -1.6403609886869233
Ni 5.637627540331124 4.001420027662154 9.761728769822662 0.6162834004578999 1.3179387387244013 -0.22584698723893362
Ni 9.027420004895234 2.179278998833114 12.951935939156963 -0.5282220887425935 -0.029672073143135993 0.7843019067241396
P 4.326174491804875 6.9275256370064415 1.3416671288157038 1.3322461564860089 -0.20552473074181377 -0.7975741983530135
P 5.5420093652957085 4.507910318074111 11.956417562540418 -1.4218071926752933 0.9233273681921389 -0.9089788127799507
P 7.279657954684945 1.6044369438270751 0.717919200504109 0.6519541143866321 -1.3129587690113065 0.9246717980351752
P 1.5978339404810982 6.611528742702337 12.072129856197058 0.1786533602722665 -0.4741882989256414 1.0043310017297156
P 7.052406911258698 1.2433427439701363 6.026264900980607 -0.8683289004690724 0.7771436984128035 1.888767349283612
P 8.679624680975621 3.866202406399949 11.626599867139992 -0.1905285144432977 1.0128590938053845 -1.04930396689598
P 2.1433293139494607 3.294898669642598 5.827951914412399 -0.2502328722824658 -0.43575724864295273 0.05059416800778384
P 4.492837639550172 2.968556141404009 1.8706614947662996 -1.0901117449409612 0.3888446432518142 -0.43490132840056067
Ni 1.1052461761013879 3.2795938180052278 9.932258064252812 0.9388586310585185 -1.6036664614793672 1.0450739879750324
Ni 1.2033532469127837 8.719298422598708 13.523208100370887 1.2232992595709449 -0.402382529837249 -0.7301385333078586
Ni 0.24280942810348297 2.0645761938736715 5.911328065522826 -0.8576541943640456 1.0856079435333368 0.5609674014944145
Ni 0.18256514863041157 4.792749580555777 5.7062328379650715 -0.7593372663590019 0.7265693278993616 -1.2716375416650163
Ni 3.275823326643109 8.326080750767458 12.153452668292301 -0.16627735520541684 -0.35829325282751845 0.7961750040126416
Ni 7.2276140295782545 2.1478148985009473 4.085834456935844 1.6626565668603301 0.06429994762965055 -1.298401954243054
Ni 7.757451648276832 1.9750130936365353 10.753563023475284 -0.5765552286303426 0.5573650288551368 -0.45463043139837184
Ni 5.200724175476701 -0.07354222671794439 7.6387257476078565 -0.22937222678337268 1.345236912318722 0.5707368221763526
Ni 7.996645676657968 0.06879939435677628 9.172663789887842 -1.588464042707316 -0.8566334664090149 0.4476069488926872
Ni 3.24265043219609 -0.05837853633354004 0.9295180613152917 1.7494040448602193 0.0170996357947641 0.010614285180736559
Ni 9.020742706152959 1.9722827378225871 8.44029413480379 -0.6455422973230173 1.718507869501995 -1.2726369294638082
Ni 0.8948462572479625 4.341804385801049 7.813441587619394 -1.265710120436988 -2.439864542852166 -0.5749480320442227
Ni 2.6401797766917636 5.375076896738832 6.229062543407848 1.1284777463136695 -0.5984612846748145 -1.1551467709644234
Ni 6.752587839498464 4.9845524330233815 4.9286414325393855 -0.631685593945583 -2.640737119533949 -1.3781609167402522
Ni 1.4410427935188868 7.364800478842354 4.339331277796782 -0.7179473905583055 -1.527856456327588 -2.045074223539878
Ni 5.470806514868695 0.07907351897232412 -0.06507998107961192 0.27423412029306965 1.5237568323369177 -0.7302963990419616
Ni 2.0304374592747796 1.7622217917147711 2.4232307186546773 -0.36947472336563464 -0.8181602500344813 -0.2246555380339937
Ni 5.602346514014152 7.219395101362798 6.541618632170906 1.0281368459000617 -1.3034163767385103 -1.454360444020966
Ni 8.38016779927234 8.965318340514713 0.04988750122914214 -2.9617421774339703 0.20728387952476557 -0.4489166688430462
Ni 5.417025934873542 2.6064775275461223 5.4363158058298415 0.11778994912799069 0.20060363929111258 -0.1250288900785911
Ni 1.6417053719950165 1.5282563018481012 11.78519546353979 1.1262028342365635 -0.3431422561186929 0.041721805218818464
Ni 7.500501020180495 5.772362241517393 2.235915308123468 0.16902663581577987 -0.9111675929011535 0.65944425211609
Ni 1.389398206167299 4.2488608450323575 12.550254164302471 -0.25823517376165206 0.19297466199094507 0.10548747761155382
Ni -0.01542836773371567 6.4746209011743545 14.02295886964617 0.14673080053205698 -1.4956778147125145 -2.880480919359633
P 6.306676157842919 6.264522807368389 8.64007445544888 0.35569849551714866 -0.9469943727917756 -0.14386067807311353
P 3.7076746045492737 1.1613206264572387 12.571744107681644 0.8072598010718935 -0.4712161036711949 -0.1866464057800721
P 2.3554240965309323 8.207644602144045 8.542114118045173 0.22054562963067822 1.393938234179167 -0.522078694849017
P 8.112221452523912 3.675467550254128 7.013001561754738 -0.12414417348079265 -0.41541159510706527 0.4583050520364817
P 9.490772530831714 7.385547468258547 6.0386610878529146 -0.8980858200165307 -0.2627654575318378 1.001690478783075
P 3.7529483616683152 0.6027919830933143 5.848993299336422 -0.6964766222790392 0.9144177244073349 -0.28514896743336055
P 2.9903989879155954 2.382978401632921 9.066004390270102 -0.40283890064837724 0.06402715358423812 2.058660961085377
P 5.882858069661466 0.5645911477018342 9.899935852093405 0.3268949410218951 1.1333134771394158 -1.0153155257656772
