# total energy = -340892.0796815905 ev
CRYSTAL
PRIMVEC
9.11182995326418 0.00000000000000 0.00000000000000
0.00000000000000 9.11182995326418 0.00000000000000
0.00000000000000 0.00000000000000 13.33608417448535
PRIMCOORD
 96 1
Ni 6.402545700252962 2.067009490405335 11.275178720807016 -0.06597116468448638 0.7737511277914868 0.8938946647533186
Ni 4.435520318828568 0.3316769849432772 6.054595898374565 1.020258214482933 -0.5655992438394711 -0.8485666302404804
Ni 2.586957837327736 1.3895722762974245 5.00868630800953 0.4416715572448586 0.9030457351249672 -0.32335144664501086
Ni 3.5037719335133217 4.128952803412201 4.988748713107388 -0.17772622047230682 -0.7198957725339279 0.17513326293415
Ni 4.970002034367081 4.474336714003891 2.470656263445393 0.8232476918597177 0.1307485661711877 0.3728963474526739
Ni 6.975187759217355 5.92677150445966 2.632196250183708 0.8257151795636037 -0.21287371490771725 -1.1460013570197296
Ni 5.088045790117388 4.6168548447403275 11.647828871051907 0.21709958006360672 -0.30588568576007963 -0.4605588810676649
Ni 5.820664245817259 8.134385641332226 12.333397482120958 -1.273454026048465 -0.6776463769464136 1.0158883675500117
Ni 1.7796497123198554 6.477754743862612 0.49686079243995174 0.6429069165826993 0.3949862373731778 -0.03426663449235389
Ni 2.5778551193042274 1.3525782470927743 0.31217766905708233 1.088937265016886 -0.7082527889783609 1.0596557424439492
Ni 0.5518579750688746 9.281218770336086 4.772357333017805 -1.037060887862569 -0.6663803171142911 -0.12080893845997259
Ni 8.861801242185827 2.396575264371588 1.481199014936863 -0.8055603018822837 0.5466934080739037 -0.49054797123058747
Ni 7.149515287971878 0.638094155167064 4.636649383913771 -1.1765118669037609 -0.6535481983466294 -0.08423448177004848
Ni 0.7561816477006659 7.512211675284957 2.638850619525618 -0.11404436604262941 -0.3709338244096644 -0.3290487541401043
Ni 7.767288240199974 4.05027215262842 3.83757835309333 0.1715198345512788 -1.2614644577867564 -0.40571339398269485
Ni 7.954190094152137 3.91319378431444 12.685056709932656 -0.026933591166050385 -0.5946581088786403 -0.2175132705622576
Ni 7.91595685608743 9.0156636010897 6.853200403506515 0.886779650975092 -0.346769568458635 0.2359624784063807
Ni 6.631999799620325 0.7830998154534682 0.3622216609777176 1.3867496868505278 0.4806209419248626 0.09153667185841655
Ni 2.089552157462553 6.610678117763458 9.162089795650244 0.605806412185976 -0.08072698283742226 0.5321607616753674
Ni 9.125042006649458 4.99362900917685 1.3906602287819159 -0.14274224819795417 -0.4232156645325163 0.7295752046052209
Ni 6.4109285837180545 1.86039874848035 7.035331303347457 0.3768537894385252 0.20028327983721633 0.328226515349125
Ni 3.390511888436031 4.5165518217145175 0.36232918056998725 0.11630642260392872 -0.5651135624523042 0.65806022728437
Ni 6.170886538061084 5.595210239755521 4.927202858362854 0.2259099792663851 -0.5306440679205249 0.2562628805266296
Ni 5.29611442481891 3.1375128207275793 9.043652408850273 0.4355708436637595 -1.0254618701710598 0.34415269966107825
P 0.22602622897652916 5.784645182406919 12.581061573450265 -0.8412220169499511 -1.4347444695622518 -0.40901443333146975
P 4.071183802141886 6.313933154929016 12.647902312522588 0.6900552921337276 1.0930430596551433 0.358952226567756
P 2.3886935315484306 8.339246911925366 1.3854327719950421 0.1876231678710446 1.5979922939127253 -0.06283930392372404
P 6.473800209706253 7.748882343896183 5.805451134694085 -0.5599903822931259 -0.13398249972745313 -0.10836634182124562
P 4.7750270991648405 1.1169918862340977 12.65180946516371 -0.7488168264436523 -0.3595122128362841 0.011156787947767883
P 4.170694095970453 6.051129758298346 8.272386126827366 -0.7565548185178583 1.56010760305181 0.9542137733583502
P 4.755855809153366 0.6042209276871905 3.769043724851267 -0.19627415867782325 0.9446060750652571 0.651541966549878
P 0.3182789503268936 5.625953553680765 3.729288811201048 -0.6708622641450446 -0.38313139491712084 -0.6819246926067932
Ni 1.4548220898773503 1.1149781718365048 2.6407577255139265 0.3650470266115842 -0.3811004805300211 0.020315828739216626
Ni 1.951498823354264 6.340940618614381 5.003058841892094 0.24318059342137474 0.09225838051578951 -0.24709664064632933
Ni 6.155223302543154 5.753254928562086 9.211979797646357 0.10908136561039923 1.059276761837976 0.14722856610408191
Ni 8.66507683565174 2.533516955237767 10.452569099926386 0.6244381683545505 0.18737042843029023 -0.44736706496773926
Ni 2.4629093857040645 5.274738071982923 7.079873572402632 -0.280601200161678 -0.5897974383522293 0.42644599854435594
Ni 0.5325536523415417 0.18856202935144561 9.562012563829233 0.060872667115656455 0.16788018091616247 -0.756624238303213
Ni 1.5623234584873162 1.0777836823750806 11.508013309049977 -0.2639983014976744 0.3590692117615945 -0.3700303387587885
Ni 3.890304867722795 6.56146512472545 1.8171877177667508 0.5259170947585008 1.3687193117113783 -0.43875566914964437
Ni 5.809438471437917 8.0352580443575 8.009585463745651 -0.6969401921790191 -0.8042449255049697 -0.23517314973586595
Ni 5.420755145383051 2.525917689140063 4.912626664146431 -0.2449088889663911 0.36675372489004576 -0.2622851754613096
Ni 0.8781562468497122 7.529496816516785 7.0896624112141 -0.6210972769067755 0.06667076185467229 -0.12302111561994297
Ni 5.240659828331349 4.691216488173615 7.1274965511312285 0.4142882801358994 -0.9260859047738824 -0.8917994727871866
Ni 8.302271106380422 7.47427912760541 8.905503400528524 -0.5328480175503791 -0.11505198137153734 1.2998661974934065
Ni 4.5099913042200965 0.620743408760292 10.533599691629348 0.05167197445299488 -0.9841326724049695 -1.0347129564556825
Ni 8.103760781195076 7.326949950706398 4.30866177887812 -0.14031666947559704 0.12189548665593199 0.8017877222137288
Ni 7.605434806514704 6.226650936763661 7.030223211531663 -1.229989527106927 0.5205087792587358 -0.4459077068133933
Ni 2.2800349605470873 5.169706009263218 2.7742524111465787 -0.27905313894826783 -0.7987160252669405 -0.3244001996244994
Ni 2.435829027379872 5.491563175173527 11.617649579394586 -1.0359889949546286 -0.5497671619032208 -0.9040937167735075
Ni 1.2433638544703765 3.28760288207216 4.086803300876519 -0.40050716719140705 0.3476794818674141 -0.4535742222197156
Ni 3.8077061301020674 2.5649345445721594 2.9395264257588014 -1.4122151781114838 -0.8938427284694607 -0.04889286904596096
Ni 0.9691980060125648 3.569395332117236 8.353349290989415 0.004743171111940218 -0.5952862293809426 0.11093744498253152
Ni 3.8590148440063494 2.6832060960687993 6.873618191841928 -0.631377575786861 -0.5525583514951129 0.9713591747893852
Ni 4.323927738614443 6.840278006408476 6.009332883577988 -0.14332845971872735 0.7971011153713369 0.636350089300788
Ni 0.7096712233971645 7.291514044406673 11.195149519204938 0.5417278365385122 1.5755725314566282 -0.23696803685275966
P 0.36209136181081447 5.686720346972836 8.095629384233936 -0.4372346045194276 -0.23625378439455444 0.22792315304167202
P 8.600182383436096 1.6155547684906573 8.102391273168115 -0.5653699014374844 0.27820493201535956 1.1521015563801966
P 1.7704376523381062 3.29093781179849 10.511568198226904 -1.927841689577254 -0.16805861547555573 1.4369340210144026
P 4.107722239853867 5.875444566895672 4.061771281903363 -0.8141164189824108 0.4566387200776522 -1.5358477020631807
P 6.945073161551993 4.132479081565452 10.320355537571116 0.12583955890534457 -1.1429571708767672 1.7401748129524677
P 6.590814328683129 7.847609020357361 10.387675558893726 0.0027071145185179188 -0.5252622347833211 -1.7847510569009457
P 2.263014062381007 8.398738049037966 5.775164323444495 1.2584475253373038 0.6082330193495976 0.35972587150898694
P 7.017329972289154 3.9015215302722837 1.425787244049612 -0.5423240753616143 0.446718889860779 0.5097595111620318
Ni 5.148320544597378 2.8404853911676824 0.5778139335891618 0.14593812942743253 0.46707251381646653 -0.2820340759534627
Ni 1.4173086863710584 0.9746286566051685 7.2793552186503465 -0.6248238338287433 1.151954489279371 -0.6796035006727844
Ni 6.86476149322446 0.7124539762343812 9.267351476482252 0.30422501022820503 0.0787120092899225 0.197357364439673
Ni 2.7164733868634245 1.8301292497074813 9.258909366123113 0.5517703083761788 -1.2050639675098407 -0.6482743515421997
Ni 6.1584306666515385 1.8943129791945637 2.621207383380553 1.805248148413033 0.70086909491978 -0.08974487006531641
Ni 4.484013477308162 7.086215405980572 10.42129638868666 -1.0010739282449985 -0.14811456825346106 -0.21731838094263217
Ni 8.070129017206316 7.118826645025755 0.4685804061240718 -0.13106918273540005 0.2105754057918438 0.024337034083467764
Ni 7.656224146117344 4.055748362370291 8.225723534965312 0.2983896344933506 -0.7356736041934749 -0.4789967760578782
Ni 3.1828897333973227 8.422447030316414 12.320994459324561 0.08901493387782734 -0.5706494046688687 0.6099137494861302
Ni -0.035860517570891814 5.1811960267083075 10.348854607803476 0.22704614975335738 -1.0972614686118651 -0.5776011533963537
Ni 8.81039229815316 2.3685199402530865 5.989101887754569 -0.3289754777000076 0.008979834901107115 0.06521783145822961
Ni 3.698582855778203 2.7074162279891825 11.50189198175449 -0.18614144111919556 -0.0054664224312099404 0.7921684539564099
Ni 1.5239079838255416 3.234954729179434 12.82359205984019 -1.4595332464711572 0.8853794281934558 -0.5461755878972206
Ni 3.112765090845848 8.660493585235498 7.863674998754809 0.27039443483200526 -1.458944720957539 1.399074784074784
Ni 5.488109791659103 7.490616638532488 3.5810183822781845 -0.25099314748725804 2.010944114625388 0.7299549565421428
Ni 2.860613423313759 8.256538832346399 3.669276477420835 1.4245844983101144 0.36451429403656577 -0.3699053831451501
Ni 3.316040903044503 4.257110690299739 9.630306639763166 1.230573938855487 1.7235498028012768 -1.4709384029843056
Ni 7.130571793706738 6.0511662056177595 11.725632052620808 0.744919291161459 0.3791333295013213 -1.3557858914791618
Ni 0.45642886983162817 8.851495762621676 13.410099590292445 1.460884618292729 0.6646273389789263 0.2603918150933387
Ni 4.5257000988872935 0.30449457412472747 1.5518002061896683 -0.4664266527023515 -1.1701728120596107 0.06784986976443799
Ni 5.898215029699223 5.837721591302753 0.3916565161360185 -0.22223792973143663 -0.35605793573909644 0.6516684648254132
Ni 8.021754312514817 8.94885566460485 11.574600739252377 0.211341594533907 0.1395365967764629 -0.3813334224764336
Ni -0.07625508167681659 4.883011394757034 5.800702960157499 0.8275905422094456 -0.4549276509238165 0.3407773554309421
Ni 8.176491407084612 9.110946005866307 2.0603050059992314 0.45151656835973847 0.7179175657616346 1.4815786563069708
P 8.599808798412107 1.9172292312757693 3.7213806540713152 0.16113257777968376 -0.993790764320024 -0.9700365993232197
P 1.9880919320453663 3.1010108303350115 1.6965233997506182 0.17739711926766225 0.3482626080643938 0.17535617757823346
P 4.728748115339614 0.9251514205014124 8.229137737611367 0.8352102635382326 1.6708488728631354 0.22153190480334753
P 8.632939411758933 1.648284461323934 12.581781408008682 -0.03101855986870142 0.5241432906875295 0.24036317857723768
P 6.468661137668956 7.926216776502316 1.6722248830806576 -1.0928473987045695 -0.1770965573081079 -0.7186001936509561
P 1.7259445871641392 3.298327505809567 6.287390394566172 1.2764779004764533 -0.7734901608206163 -0.7375528234940587
P 6.946367041391171 3.7781109067383474 6.023416127799345 0.24687269756098132 0.5298871351498422 -0.32708365999393346
P 2.5588478422301137 8.535615957095171 10.15972217790321 -0.622579774989573 0.40692875444703464 0.3473195274248341
