# total energy = -340895.9201637898 ev
CRYSTAL
PRIMVEC
9.02473453289985 0.00000000000000 0.00000000000000
0.00000000000000 9.02473453289985 0.00000000000000
0.00000000000000 0.00000000000000 13.20861122305157
PRIMCOORD
 96 1
Ni 6.435511235622384 1.8898065189911528 11.542688918726792 -0.417578520851397 0.33560455298075104 -1.072219952262205
Ni 4.593689230995762 0.2510437523852695 5.8348510661637505 -0.5068235684621594 -0.16463981960199386 0.29963250576151623
Ni 2.5015842591185207 1.5323367777876382 4.698303053087583 1.6995794080286084 -0.4609345192395287 0.9730954407542016
Ni 3.5181935481200934 4.3623852808052535 4.984018933691226 -0.7477870996275573 -0.6501219462738997 0.5970114396021653
Ni 5.112972465251007 4.440007023902739 2.660002646978613 0.33822245021957237 0.691913428388389 0.3335582119746836
Ni 7.301398430510352 6.188973533269503 2.656582272529834 0.42471770299933953 -1.1770199168884308 -0.9740117819208838
Ni 5.1000129462313595 4.781701528862281 11.554285702807745 -1.2013101568943634 -1.818812774471345 -0.6369918366498449
Ni 5.567232486040679 7.866816108517991 12.419489725279426 -0.9775699315857873 0.5890129947777211 -0.6323952184180981
Ni 1.8619742371968675 6.6855685845056705 0.31159791723069596 -0.14494825471033745 -0.8301012244464414 0.4260539053122598
Ni 2.468084443936813 1.4390390705278067 0.2628589350458007 1.1499881095816193 0.3569295397107724 0.7444986586842727
Ni 0.7008085528241849 -0.20192302392284564 4.535930026484865 -0.2181619598898501 0.2517539369126826 1.2511605047575873
Ni 8.552208609538999 1.9217360303362179 1.5461996727500902 1.1831777089597109 1.922621321718579 -0.8646468236317947
Ni 6.690730732750265 0.6481311764191124 4.806376055987364 1.3042771820769086 0.6841816069617701 -0.33697520807603254
Ni 0.7610667063716694 7.402267890177902 2.5447179785853775 0.5150531554608032 -0.9278406826814602 -0.2469233482932586
Ni 7.61386181979814 3.89936224262834 3.772775898978625 0.20354318153541073 -0.3806561939037509 -0.24160784961761617
Ni 7.421842539727774 3.830647912673188 12.698890999018133 1.212476200813512 -0.06941978535471915 -0.1784939518762668
Ni 7.844173049172381 9.094856881915321 6.9561301306122445 -0.15068952806948885 -1.044489576226472 -0.03469755138218541
Ni 6.785499471765113 0.7389994250994949 0.40656520040879707 0.02479674732870568 -0.40148058684826987 -0.21302952375929116
Ni 1.8106054473223305 6.5820458528382755 9.076033090291935 0.4739116482254871 -0.430415267604749 -0.09586718091297039
Ni 9.248638361089972 4.770258165271117 1.12455233572177 -0.3792459438197856 -0.25527583402301196 1.1017842961828832
Ni 6.301683444854726 2.020385405269205 6.984410039247319 0.09192747953893199 -0.2343437118560351 0.06741586755081291
Ni 3.3254613140089537 4.367782072151875 0.4523937056550875 0.33885982669325515 -0.2027044876841993 -0.18879996178796518
Ni 6.062807742256498 5.6604670201576575 4.837455437324317 -0.3094561767201574 0.013907611220027661 -0.4616436294914114
Ni 5.301472098790967 2.7498908094712977 9.349504210863644 0.06609766296002165 -0.06138148843127492 0.181805532748003
P 0.13694403165727068 5.741707681867175 12.388052964448617 0.7304192977730711 -0.8497876471317752 -0.5948851372877819
P 3.9272667223001725 6.238582499878837 12.551285145794141 -0.6529370471251917 0.7635204512024141 1.3714109996109285
P 2.534560639688014 8.418073977791767 1.4651918491956597 -0.25837581310457436 -0.006246238020027953 -0.4828146071420717
P 6.44547454272384 7.70629315252741 5.746248025891399 -0.29334435875995934 -0.0745877027089038 0.1652345157631993
P 4.631331399401717 1.2531385605795309 12.612374477406883 0.44273830794647623 -2.233159161538689 0.4307916771075613
P 4.1651948277556 5.992532133199397 8.07311612876711 -0.734090061756439 0.0937539912247095 0.11832808101964783
P 4.777098914168674 1.0450913516937792 3.7096388550639623 -0.7098756692937646 -0.041010895194722924 0.6584294376983305
P 0.27387542868597065 5.413351734784402 3.5778560691778174 0.6707843597192577 0.4268049245456715 -0.8658197608939734
Ni 1.5643384870102501 0.867615431581744 2.658259068235858 -0.3035902048576836 1.4181086607777835 -1.3111448557310192
Ni 1.9510122696814387 6.480580760680964 4.774992541091247 -0.23248737537358669 0.23879352009727262 0.009633923545338248
Ni 5.97016884062928 5.6581025396680005 9.343864654153771 -0.2522694430965204 0.318169131113123 -0.6409364231198897
Ni 8.568353859905399 2.5959649345415543 10.288504391396302 0.41057997804637675 -0.10865456248562577 -0.29317980815763706
Ni 2.2863894603556374 5.356694450379563 7.025172058436764 0.007408376648929176 -0.3341580503422116 -0.32319358091090794
Ni 0.5321073822544918 9.269305003537736 9.031506854261895 -0.35677398796951454 -0.3097366840750536 0.24545190595405472
Ni 1.4864550266066567 1.0727611882635844 11.123117270677941 -0.6524881325132311 0.7817608854698408 0.6502980668404479
Ni 4.115621960085038 6.721721671687223 1.668432484383734 -0.4160592559933931 0.698779559380603 0.23003814250214574
Ni 5.6140618343644615 7.799771354481108 7.884405316435326 0.4623671379209973 0.39830964531945595 0.6295796033461739
Ni 5.325550090952819 2.9489945062759415 4.794184541890121 0.4126556296284829 -0.6307268295767395 -0.11319590199940506
Ni 0.7494997039152053 7.795222888195662 6.973341202145927 0.022566829556922425 -1.4614299492732379 0.06935242245189346
Ni 5.340612373156017 4.195048650121194 7.346550080654641 -1.4763197219008768 1.1156780234458399 -0.6739216197966587
Ni 8.17345854392857 7.245372877534047 9.156962398654533 -1.0569267735485603 0.9940453035329913 -0.031001076367204672
Ni 4.653153207890232 0.3157601248712681 10.302769789526078 -0.2066544734708828 -0.008401336689817789 0.3531816426325659
Ni 8.3274024683277 7.024104432322541 4.719198923796561 -0.7029725144160279 0.10353806719466685 0.6925050392258009
Ni 7.292969328306764 6.078564929031083 7.063556060034512 -0.6910541657118873 0.324119435159287 -1.054004714805759
Ni 2.3910763827984742 4.993638398400867 2.6230580905644545 -0.6859104167274187 0.3049572604085393 0.34807234643045865
Ni 2.321297134149508 5.25428176107945 11.486895301432106 -1.316802568237429 -0.2854140481692891 -0.37171363999848245
Ni 1.0005272117780268 3.15298960928438 3.8679570683689586 -0.30382083281125094 0.5763641956654589 -1.0450259083459164
Ni 3.6632300593768896 2.586488963113539 2.547003041409733 -0.5175849207437215 -0.15879338812354588 0.10872243960908372
Ni 1.09886974573144 3.5462694977510996 8.226336269443834 -0.5755332151237313 -0.2050300504935824 -0.3788445946163088
Ni 3.6624810063973414 2.3902280577373 6.903520439717371 0.35911831983197506 1.257190770112067 -0.6035297003366573
Ni 4.197422155345545 6.77996730939809 5.980766586579679 -0.1479117082140356 0.3290644378693881 -0.022958408568386268
Ni 0.7049527109953702 7.413729303238455 11.017236375835175 0.5288946893295859 -0.024096635937887533 0.9575420664006347
P 0.09194670447623751 5.6746448783609065 7.985556347825309 1.785579466339512 -0.11820672495043512 -0.6337273069659601
P 8.40751503820055 1.881413515726339 8.007866394460734 0.3773780373731114 -0.02129901858809235 0.7781978507089308
P 1.7754721551611268 3.368843213679878 10.290301216073749 -0.19870128006207716 -0.5419522938444924 0.5128103821732135
P 4.003615977805897 6.067518653766425 3.8620530869325704 0.3582749979950733 0.7067623204757635 -1.1157942373087297
P 6.801031040172365 3.9427080433604904 10.536839820900097 0.4691216830360114 -0.2532775726460606 -0.9938825527028817
P 6.183378197759627 7.699452403629852 10.245166712925375 0.9380392204810168 0.1865391907782465 -0.17051196211205474
P 2.4370303318570024 8.530991458274936 5.835921399698383 -0.04981743774275937 0.014032823943982285 -1.0158973664110762
P 7.02558448881225 3.8339148666321803 1.6223738484027632 0.25126157065729626 1.0238361616421785 0.28667671693179664
Ni 5.361585856583358 2.9208283092980025 0.6357925591463671 -1.15953487272979 0.23563491986363289 -0.9997446679106138
Ni 1.5047030401566064 1.2487074158450968 7.085125175951614 -0.37100247286407073 0.05464494103838976 -0.5790479131452092
Ni 6.950715289796235 0.7736435766403192 9.263132987480958 -0.4589632544457709 -0.6932421745021415 0.052833855971579975
Ni 2.937208202766429 1.7327761353268976 9.151480774801794 -0.703092327823344 -0.29972172304121286 0.2351440962701434
Ni 6.389259470318976 1.902125281847573 2.5542941245684894 0.4292677842638672 0.20499894014533082 1.0781306613196853
Ni 3.907998913729874 6.91468854890039 10.490371461964049 0.7781549132861373 -0.00481233378697881 -1.1989108034242513
Ni 8.148216360991276 7.161289424396124 0.43502831115814733 0.1460826254250968 -0.13957979130957252 0.02714467873559196
Ni 7.5160156462528604 3.968572932991626 8.218556948138168 1.0425828461220623 -0.8959124665142958 0.7208761341693263
Ni 2.834876736078556 8.407857978118898 12.209472416810117 1.1983703575397493 -0.06469358352364342 0.07092465203501978
Ni -0.017724578937735488 5.148701389901971 10.099172677317615 0.4028386435380611 -1.3087236478840365 0.6802017963784156
Ni 8.508664264643594 2.2402820908073227 5.819753587495249 0.40136797252980555 0.623459863601681 -0.7538387051382759
Ni 3.5719358432189807 2.654752056334023 11.581785874365313 -0.38379756774621 1.4662281419928296 -1.1746994962853705
Ni 1.0109237061447638 3.171788131650624 12.366522654890696 -0.2918945136873102 0.7425947567933404 0.7832151014178641
Ni 3.19204866103719 8.253336470699393 7.8205941248390705 -0.05311230644394724 0.03866064979499148 0.999749038785988
Ni 5.783699772395324 7.8520155436209 3.4716322344167034 -1.0758138402610504 -0.23918432777778806 0.3580500264684608
Ni 3.328168734416958 8.320083408491394 3.6064527460006293 -0.2099048620873804 -0.21651259721188518 0.33015458560977334
Ni 3.5043135061617248 4.412138643169681 9.51075456047051 0.3876691348864743 0.29025569253230654 -0.7828584894093937
Ni 7.167696986028401 5.982920790750981 11.481493095244668 0.4548248067973651 1.187735503533722 0.13185619741306967
Ni 0.5965142063405086 9.03881327946963 0.36496568583980943 -0.4040321496255299 -0.5389800985900459 -0.3551567640810658
Ni 4.647449575564036 0.3972164777399579 1.5578370681371625 -0.8675058903471445 -0.669655388321137 -0.44455839187435053
Ni 5.8052508388430395 5.589162591345514 0.4391733718028021 0.9485252076140052 0.008383338967688787 0.7546228916024681
Ni 7.895262072271424 8.676984591409228 11.547655230228541 -0.6959755142729046 -0.09046992115679903 -0.5988682903052461
Ni 0.16177649163948704 4.814723033105241 5.715234525117709 -0.31058591944922637 -0.26828870134291216 0.7974695544543492
Ni 7.8093104990519775 8.734697769773188 2.463392484369741 0.48352294606300605 -0.08176853672805919 0.12411229180159271
P 8.515414766194219 1.4078856863663691 3.657266514691525 -0.3034907031653418 0.612290477248423 0.5404042326310822
P 1.7726113142633355 3.136032132795579 1.5030740755444572 -0.2803790568485429 -0.4944753313094516 0.09166548412679697
P 4.720324308212822 0.9014500644205751 8.075229721632294 0.9284310079672914 0.3471009836561248 0.4940778387607168
P 8.498051176644218 1.5427242474196818 12.342060209030908 0.26636757306079933 0.3764498691318871 0.35504234999038853
P 6.242201418490869 7.731634607546331 1.2262791451851884 -0.24952736157500896 -0.5116929807393188 1.574714040111075
P 1.7633699859373473 3.227768560953461 5.968244767192659 0.49594420254549426 0.22153858967156684 0.3854767552208458
P 7.0050622421195765 4.021575199845659 5.908172523179857 -0.4132999480807011 -0.4184712078689954 0.556697313364151
P 2.380463294799097 8.506516377786578 9.982540616034663 0.46001817807284645 0.3817607398218393 0.06713278909275536
