# total energy = -381175.252129698 ev
CRYSTAL
PRIMVEC
9.20476380847973 0.00000000000000 0.00000000000000

0.00000000000000 9.20476380847973 0.00000000000000

0.00000000000000 0.00000000000000 13.47210226550231

PRIMCOORD
 96 1
Ni 8.426271043224961 8.601437701282773 6.712744402093129 0.6028311316077359 -0.11651493907030902 -0.8317228192102644
Ni 8.406600462653783 8.236330739019868 0.2650410528350386 0.2323007132840773 -1.747920261225841 1.9807704192554854
Ni 4.42171087044385 1.5496312165365438 2.0563415060492596 -2.321912357114698 0.0735122102565379 -1.5462305879594016
Ni 5.622509147389388 3.9528201945917814 10.57025202736325 -0.13494383519945793 -1.6502147415525514 0.20111683148210524
Ni 1.508881726509117 6.904705151986277 0.7036811924264034 -0.17496742678024707 -0.3351798067385066 -0.05930249441505915
Ni 0.15779542752251344 5.521229129595899 6.682755281128739 0.06677154909859469 1.65180676863002 0.2727768190212528
Ni 3.8096216817486206 8.023360115400134 8.781318118961781 -0.12673070326104624 -0.44060840608766694 0.17509161106293716
Ni -0.31350689648568436 2.2944623062224023 2.3036486606491864 -0.08081414323458985 -2.2588120862201033 -1.0140374303842021
Ni 3.5125195155829902 7.248420242818474 6.458256611132146 -0.5155848595945572 1.648052186683594 -0.21628402614084688
Ni 0.6663706022124501 1.584388405229465 6.787272614405094 -0.78568258912175 1.0263910668535485 -0.7314294842051403
Ni 2.6272329327124684 0.7286573989410677 12.879087572500906 0.643692131488156 -0.3887338287055628 -0.43780873185534275
Ni 2.4079938648395873 0.8825196308257407 8.118558545648757 -0.5054536846978263 -1.3415553497020767 -0.8094516665168898
Ni 8.933959799146061 1.4269501225483936 10.890564926317035 -0.34099538497901916 -1.9144953501773352 -1.0767561495696616
Ni 6.931279305523476 6.450127884083757 2.616565531765375 0.38339339032925585 2.3039840547710515 0.6441024795526972
Ni 2.201945223713782 0.1197107166599706 5.81837179672293 1.281847649428799 0.04144669718056088 1.1364684778286298
Ni 8.373730250571572 6.019841988257672 0.5985747542569488 -0.2879239590753364 -1.4343937710910521 1.729556671116989
Ni 3.886932494204088 1.5700105639322341 4.801820677476508 -0.3273243152498298 0.3059666755096601 -0.6520415318941157
Ni 0.8774597720798459 9.10017942663991 1.5759669666873162 0.21865124082144277 0.40715321175301494 0.28708680788602164
Ni 5.243696291597947 1.126617084234666 13.043204831907502 -0.7718971053018835 0.8388224063695231 -0.25203444426757887
Ni 4.6470619015826475 5.97323826835506 9.785919613642221 -0.9053558713153828 -0.5438307418141279 0.8205719447997675
Ni 0.786164161748013 8.681132547602505 12.118856912718845 -0.24236581082956327 -0.8246006063431863 -0.04638347236054593
Ni 3.1984897885046792 2.9450274082482495 6.669889782549264 -1.9672042505352765 -0.6647049862943972 -0.206606908062399
Ni 8.906943816939037 6.396583772159307 11.903626519548233 0.5726528082521428 -0.4232483175426646 0.11348540821536585
Ni 4.354157107780357 7.141746233347535 2.373690471009633 -1.5471459006848194 1.631025055997978 -0.44178160046016174
P 4.426230409545604 8.694157288598396 4.9672717071801396 -0.8539610617831744 -0.4532464065666516 0.18388761208801235
Ni 2.137484261739066 0.20448935411188077 10.381965819240815 0.10798170478831726 0.16209905545801115 0.12850116489790772
P 3.2179578642688553 2.4816687955329515 10.973149148042145 -0.23982196136178696 -0.010794776622658828 -0.5889919117317985
Ni 0.2075904390882169 7.182817890113375 2.8204252800227545 1.2783776886023273 -1.964051820949224 0.7354409193573785
P 6.563061133043886 7.067675497804118 12.241344706663947 0.19346394292253777 -0.7567394237248386 0.5985466452997692
P 5.912569669129677 6.682584992995577 8.31775700143948 0.9072502601246181 1.2533063474559965 -0.9146871760186376
P 2.734670937591647 6.712021828122686 10.85646679872327 1.1364167986550882 -0.07139619235479962 0.14586099633259395
Ni 3.135437155415031 4.855282867001761 0.9063839018546781 1.781704556765138 0.39640522920789145 1.407024377939164
Ni 4.0032623010635 4.133472891966589 4.677042738259479 0.9610873605497319 -0.8104955344003718 -0.4689617604193794
Ni 8.001820967746152 8.806897237515477 2.6310611940412256 -1.549144419172087 1.1944291135038139 0.6586119860227818
Ni 4.474573829835653 5.302201771293976 7.030645652890784 1.524583184892955 -0.6557884005310576 0.5372204355864619
Ni 6.718161405680466 1.1977883191323533 1.451673198054304 1.029755355340091 0.8039086252114735 -0.37120096202812203
Ni 5.218327962138812 5.837679709594295 0.43581427705727394 1.615980245849714 1.0578693399674877 -1.0196810018232243
Ni 6.531893802293295 4.429267981650653 8.382692008757862 -0.9117754016884814 -1.002218326262087 0.6483679396972705
Ni 2.4065855359545196 5.193843290019329 6.0087465657866845 -0.8618443211859931 0.7229083341080067 -0.5485600289689972
Ni -0.40754368552322484 4.602142653483744 8.85797447270007 1.2095929657284457 0.10817299486351693 0.253406384914441
Ni 1.1351775147125307 2.810960021248144 12.01770852304991 1.345883030543153 0.9318914557120661 0.5913447282346913
Ni 5.7225741363408575 3.4158510845308028 0.928450482483264 0.22773237718710457 -0.3364100796011819 -0.601205423078855
Ni 1.2996298275270783 7.6661692501382666 7.43343507783141 0.15637192316624682 0.4705195918248025 0.10927239857528279
Ni 5.657781802863772 8.295176794982222 0.9157433058438101 0.8760650927710655 0.06423875537441194 -0.9488949322485981
Ni 8.600480405831485 3.595960700832283 0.37561327984078985 -0.30165647817008046 0.3791122464553987 -0.7394482407445588
Ni 5.751928128592374 2.5267537293830387 3.6164781196872946 1.226738367159481 0.06714795860140693 0.14158139512063359
Ni 5.088807728532325 8.420757389616101 11.210634819502413 -0.4079510250639619 -0.761158892948773 -0.29449775563811215
Ni 6.977487220576036 1.1968678427368842 6.7515572097844885 -0.2372097205499205 1.2665614126936897 -1.5825754451370229
Ni 3.7220015336638967 2.907094575990959 13.066996385301199 -0.35100803202001485 -0.13640550734664894 -0.4475511559540873
Ni 2.711171175215316 5.7113719386079955 3.410597005265464 -0.8751335820957317 0.08136410220078891 0.23487104511441487
Ni 7.886779827840397 8.202457207666598 10.630970332313987 0.4276595592364828 0.25501460994182534 -0.7605107178418128
Ni 5.687522395201386 0.041160942976201285 3.2740581391435235 -0.16055870755408477 -0.8035067617873646 0.568784069325356
Ni 0.8385696443712674 7.117611342258329 9.952744914604288 1.3288085915593697 0.5307479404882408 0.6820092819007996
Ni 4.899281638705194 6.455871656791485 4.614141063298687 0.8082172798891565 0.35644977186087645 0.1794884545790522
Ni 0.7572805329345814 4.409164777173603 2.393588409250493 0.3250661153432724 0.5499538239927303 -0.2103635468913538
Ni 8.157556369095605 3.6780027619604634 10.934793817119335 0.7756223766722706 0.21742662438572233 -0.2971151386563012
P 1.3165573884397588 4.69586556007043 13.631342304316224 -3.0804230138073465 -0.16781616044744646 -1.6499409190658745
Ni 4.40521593343704 0.5553427393909416 7.010882104203662 0.34410487714227833 0.8610675909209685 -0.23188882255763935
P 5.8685708974262445 2.262033922810019 8.550298794179684 0.17392381600708112 0.04519870802382539 -0.4467677408208435
Ni 6.828581754080965 4.737710417008465 12.534349832393344 -0.480195681461986 0.5345259194734343 0.45744373247745085
P 3.112195126429431 3.5121513250248024 2.658086381012205 -0.19194750627801135 -0.7436723061282353 0.9768032286230919
P 7.2485030856940655 2.1902643782552764 12.190676162998942 -0.14730441364733987 1.0790179490206449 1.4958871025098432
P 1.3132896972358428 3.9741016088550323 7.600367154055352 0.7092912575452043 -1.2323258885495876 0.23623810066527057
Ni 8.585559483460926 2.910988191143794 4.3115040725671 -0.8760440097251428 -0.38553434793165864 1.547956826621889
Ni 5.464187207368666 3.091318721780187 6.438115667122882 0.5940744684610284 -0.3693191716243769 0.4247004766081589
Ni 3.752018268920151 3.6107435517435205 8.79918272484505 0.5533641352258599 0.052156884509213394 1.3970027320371037
Ni 9.006060715203173 1.2960583791126574 13.545659759043964 -1.2371053122161018 -0.17181062631882024 -1.2823047915708754
Ni 1.5447711011684657 2.530398815909097 9.377148933083834 -0.9245548128413367 0.6587330849816784 0.44623629379740565
Ni 8.575388219290991 5.3282512532857575 4.45467220968921 1.0153903448676707 0.519269507534996 -0.42160898216702875
Ni 6.928784814491755 5.737522673003278 6.5135321391564736 -0.052647450992386755 1.4415805186474786 0.7563496444855877
Ni 4.275704904594507 0.9966274076664896 9.435335007470636 -0.3474645376431306 1.1117846019287048 0.6870435018905974
Ni 6.19551490833299 1.2455794535851201 10.551862749934564 1.3926781365198209 0.6068315110163807 -0.16438348061681368
Ni 7.22018923176943 5.842033562944864 10.337966127060987 -1.115026763015086 0.24982766642424714 0.08229149911106472
Ni 5.12855389928869 5.074549549166505 2.5376862275320278 -0.9533555391231131 -2.8015416245502527 1.6048347707558555
Ni 7.124082291318478 0.038255919472100136 12.43196156101971 -0.6186300463132056 0.8606235614050145 -0.2679174340464225
Ni 1.975139839870143 1.4233878788979273 2.983141574355447 0.7645897730071929 0.7326507582067511 1.589843696663662
Ni 8.043490934169046 3.656804190572805 6.52824411338526 0.09688688042673636 -1.243050216945627 -0.1887498252763201
Ni 7.437973946937469 4.270789560642701 2.4886745413788685 0.29624070647114786 -1.06130073424654 -0.39262082246479474
Ni 1.577309941748306 4.648424206647941 10.460158448083142 0.2234113812142475 0.9530470067437586 0.40166879159967595
Ni 1.7389363920287626 2.2430629042993964 0.917920232519095 0.323345790218056 1.9616352410879312 0.0031015217434591747
Ni 8.32792734513302 7.032089880355276 8.618629438920951 -1.3579363621632614 -0.2670838824015336 -2.2594103819257345
Ni 1.682235046067853 3.412638621910615 4.626630087032415 0.06823862056242443 -0.4637660751510529 -0.4801326894345344
Ni 6.764360115969071 8.928004316867375 8.52490377090508 -0.5742893154143013 -0.07919357691203135 1.594284763154151
Ni 6.041463978787245 8.247855103491144 6.411198175890173 0.16659462933551952 -2.2350725765113184 -1.0044186763475151
Ni 8.282428196904972 2.1744874128369323 8.443545623738734 -0.3960715000175566 -0.16780716158638195 1.6325836587343494
Ni 3.9676398645588375 4.984876738719885 11.974044804754428 -0.6522888720182314 0.7789069609608135 -0.31168300916814706
Ni 2.4945462603055675 8.380357680618953 3.723581071158522 0.5677872526297254 -1.1624114229466367 -1.0582827733558227
Ni 6.419494429642538 4.41255213030893 4.741668465508983 -0.12855772916745603 0.4571352000980966 -0.8821503797331969
P 2.931975052960494 8.869636908630666 1.2871951119006833 1.8574343434982852 -0.701748669311256 0.38714000185588165
Ni 0.4387128572266068 0.14321231998909312 4.505192556654544 -2.1438981730883273 0.40331224074037 -0.7848878611345966
P 0.21050006497429538 0.09763953364940742 8.691661877090278 0.0572137302068305 0.11249501927763851 0.28379348184673064
Ni 2.4411770388962566 5.834669751781109 8.40523171425372 0.090449866552141 -0.45644228779613 0.39672661710305224
P 1.1288630466396112 7.023290126014588 5.230813303966958 0.42830027814427524 0.39247401247428537 -0.48845560747793304
P 7.330149341972194 1.012155844458057 4.419254118944342 0.7875224705439664 0.4502610986860826 0.128755704110875
P 7.207044828842128 7.018632515453514 4.807142871995111 -0.2889536858914314 0.2585457630235354 -0.7214525754980866
Ni 3.5984920109198244 7.405158963438988 13.025340226024234 -0.4042812895218586 0.23815460096169305 -0.5427601344577684
