# total energy = -340864.1011429622 ev
CRYSTAL
PRIMVEC
9.29064740728197 0.00000000000000 0.00000000000000

0.00000000000000 9.29064740728197 0.00000000000000

0.00000000000000 0.00000000000000 13.59780159358899

PRIMCOORD
 96 1
Ni 9.143845780930159 1.6377460152028067 5.314387756550869 -1.440215777089468 -0.9464865799174216 -0.8907931430098593
Ni 3.4653742799005336 4.737412545476737 2.218181992395779 -0.7700556812177705 0.006428272123846993 0.8875350410838779
Ni 3.0119999823615085 4.61397700546355 5.189587420449473 -0.7273326884279474 -0.4690910869083921 -0.6704010082379099
Ni 8.24857113526625 8.644854405153534 5.017316521974348 0.8649031626169751 -0.17105189377592475 0.8509238176187475
Ni 6.070676176752691 8.258735103411246 11.453428232387786 0.4200321245982121 -1.0218592404214661 0.17123418499005993
Ni 6.26639295275132 2.6539384354618996 9.656193391263681 0.7641043487303422 -0.39880432556768736 -0.40799833336212954
Ni 3.81830738949115 0.2391310417616592 5.8259233643104675 0.847503736193605 2.093629249630446 1.950213886624867
Ni 3.094853974973099 2.276970421309029 3.5008487584819235 2.4838345206752126 0.8955026326703868 -0.7813857615186091
Ni 6.33979835705993 3.4935342318634994 12.895149022101641 0.3487022667049737 -0.999213477997492 -1.110363810321778
Ni 4.831424605494306 4.353179245136126 0.5195729467378777 -0.46945361245413336 1.3763603731964038 0.09590163369533161
Ni 5.168563614676793 4.857763590586688 8.69801084367419 -1.5341577159552675 -0.6441580153809809 -1.3133819725916542
Ni 3.838180084063497 0.4568889494121988 0.7239439606954321 -1.9181236909585417 -0.21835582106821105 -1.243695820949426
Ni 6.832834427917959 7.5564922366765845 6.31015468872333 -1.1036246918257315 -2.3711718654714584 1.1285808475504369
Ni 1.022491479127747 3.369950041493531 4.302969799938681 -0.5862107494422355 -1.3741322551968334 0.8746018779619776
Ni 2.074620123138985 6.877280884595898 4.4152881513940025 -1.3044368475832244 -0.37765751628674316 0.25926490057774704
Ni 0.06031209507026964 1.8655062337353423 2.3277939782929318 0.11505043870964057 0.632809166027065 -0.7583985565948165
Ni 2.7419858999135758 6.686135107068327 7.935132567343258 0.12562718578422236 0.4753936320876522 -0.5194780240013763
Ni 5.486461693303256 1.3722193154002427 2.095027029931019 0.12110435821320435 0.6053017046354155 0.4775834406501195
Ni 3.492948921083669 2.925299661768173 9.369224806559984 0.37805860837990374 -0.17247422804474813 1.0842162053921327
Ni 7.460649919141131 9.079823930393436 2.0182268230993916 -0.5864429200576997 -0.0006612877330827321 -0.26151075918913025
Ni 4.789616692649256 8.328034041613742 2.451669894988086 0.9070736253374377 1.014223321142763 -0.20020974628680357
Ni 5.025729203103503 5.356559862770036 6.32214798532148 -0.948868706996353 0.6847163964193175 0.6504165946961831
Ni 8.45998910520002 3.281614566975589 12.24525523663736 1.794735421807167 -0.5725545921113817 -2.1844565541266636
Ni 1.080232852090411 4.069182738503349 6.715532573251506 -0.6978750452884627 0.9957998243302528 -1.8839421599808266
P 5.015593106900402 3.45627873619491 11.052822953377055 -1.1847915904140498 1.475518309045504 1.410963822202886
P 2.8326440362562426 7.5448789275529595 10.09129577275996 -0.3203612536684354 -0.5407765283688365 0.5365774026858243
P 1.6436827388268038 1.1974343677660355 4.421923531694877 -0.9409448241635859 -0.9308565866896484 0.7055736994843009
P 4.452133929516711 6.670545400900772 0.5107171017325661 -0.3649058730480296 0.36905100556465475 -0.12217213735608635
P 3.0658207021640367 4.611756540759113 7.3990259846722575 0.9957648573272592 -0.5590125917608888 1.0294702199995045
P 4.654205508267787 4.484177372050617 3.8471985153965393 1.573961992436399 -0.2869011742377769 2.733994116517582
P 7.19180645825286 5.05320164716635 7.7970066558210505 -0.6232891423517717 0.5897951243593842 0.9518725268196832
P 1.5487694860212406 4.566548251002665 12.715657432545811 -0.041269291062432156 0.8330891034301717 0.06164862604973254
Ni 8.429905989246182 3.7053888622203184 0.7471111187999693 -0.5398666149600573 -0.6939263450533598 1.5535278929517633
Ni 7.547508180738549 1.585300311200516 3.7605669455932156 -2.212592136020615 0.5425639592865624 -0.46043546811592323
Ni 3.4460404428715226 8.052594221143252 12.270125370391787 0.9049128702406931 0.5531689884959182 -0.9642325910469327
Ni 9.545861380200863 7.409068245337638 1.0034958216604157 -0.8699574372114307 0.14982409474540004 0.9831841924487713
Ni 8.86332397638717 6.6255415053849 3.62926687264151 -0.07061843364851063 -0.18648211228806594 -0.502279914955535
Ni 6.6012929159347715 0.6000624696118985 6.12507570388194 -2.0826727506189426 1.34256990700952 -0.42659023743170404
Ni 8.311348039064917 8.755487433188835 13.026639553322973 -0.1833422811075036 -1.0095613968907193 0.13497031756201916
Ni 6.094720371962245 6.2837757538475625 2.1299598637748836 -0.13932268099344391 -0.10179537347194727 -0.23072668392873813
Ni 8.875169551693267 5.532106643482752 13.004515734910102 0.4844976512714494 1.428079141726934 -1.5117477236911836
Ni 1.4575446201933409 4.797727427741195 1.2704792949594474 -1.923944668515693 0.509146045947749 0.029397993546142916
Ni 2.015039202011139 6.70536674697705 13.30759708922428 -0.5961763452953798 -1.7308476220142708 -1.676254617259739
Ni 2.692661853403715 7.084926851726314 1.7732891267759197 0.5433172925128191 0.47567619632507757 2.0753597618972965
Ni 2.902277437761499 8.916810232886936 3.818752411496767 -0.3582014644446605 0.3787738892793735 -1.594838578775092
Ni 0.24166738847425895 5.171471587281348 10.719432720379674 -0.08580336891906513 -0.17503658945528563 0.3514206940774013
Ni 6.491700440396946 4.963872073387425 10.422333613861257 1.928111912519505 1.2427720235835757 1.6946364622010361
Ni 5.004304970432239 7.207173188885241 9.423045526362515 -0.5253517091733338 -0.39998523324966595 0.585835625491004
Ni 4.525130545344169 6.661840064381703 3.9444771670044023 -1.2360200495717228 -0.8226023449662347 1.1793020280543884
Ni 0.38053562271564834 1.9480536349860695 7.2817993842489255 1.214105508886819 -0.12843842998077235 3.9236800589094556
Ni 4.912466921882611 0.48916558719330755 9.889476899615412 2.443178694827063 1.2376786682210683 1.5090385522901366
Ni 1.345768842540274 3.8258142325086606 8.864311572195042 -0.8230751708375953 -1.4465085520767151 0.9552363010855938
Ni 7.269327619314883 2.807122628126164 7.198743784590948 0.9067542943248061 0.49191888343618506 0.3698634741636211
Ni 7.266521843830614 1.2205959514821934 11.94229651886753 -2.683323843856224 1.1653406807782898 0.4087951182318121
Ni 0.9486494143960892 8.421674475739357 9.093475607534442 0.31556023273536626 -0.03534289827566816 -0.3022005235990086
Ni 8.355199894315726 9.157456579223046 7.432735240266857 1.4669490793192543 -0.20829252329493808 -0.5973433690202874
P 7.918585924503917 5.918105166810154 1.1784916669883079 0.19139009111264457 -0.14568487576604588 1.6552571890724652
P 2.098729352879631 1.2606758039296484 8.871178289613658 -1.852843124583177 1.8581943615927612 -0.06314963607529124
P 6.3779736268111105 7.960821207124716 4.141591256356786 0.2706708284218435 -0.7679301502343355 -0.7559526661574851
P 0.38230456196135887 7.443109177040808 6.722127074704265 -0.5719308424844537 -0.6238645552392675 0.2388508556977693
P 5.6831354059736725 8.568494575003873 7.896528998751598 0.16330901660571231 0.6763299721278352 -0.07413878809694328
P 1.601001505135657 9.09796856456819 1.4715539872553525 -0.07577015305277919 0.3273608249147201 1.558570340471677
P 3.502601903627226 2.581889465658929 1.0966995953629814 0.8656187006267609 0.44974764938477385 2.3405366570841046
P 0.028801935691320134 1.0914280820855855 11.641730142777162 1.8906681658507503 1.3863444809923091 0.7556112236576664
Ni 4.591828102302973 5.912047664771271 11.912870251677722 -2.6085962731353463 -0.8256380464687652 -2.0255466950299112
Ni 3.0149544082025588 2.446552606455852 6.727403233305312 -1.1376326733400601 0.122933183891827 -0.3262984450884767
Ni 1.725505469588217 3.1180898838676487 11.291492249967957 -2.295918504154098 -0.3838564460086034 -2.1747074451597
Ni 8.312202778616415 5.399566269116644 6.035723832549499 2.008208717972096 0.030603069597837616 0.8291460596220236
Ni 4.961800259039771 2.0531680185258248 7.826853789333496 0.9390023557252344 -1.6773059413423888 -0.5626039086565731
Ni 6.304549641207903 6.121811899485837 13.085749438632766 3.5309944446449957 0.5877796365912523 1.4429406322197988
Ni 8.694438589787763 2.636769319253532 10.00621388292609 0.7305954183396192 -0.10255513445610724 -0.7036875382051816
Ni 5.985629591378559 8.65012220217201 0.37509223246322276 -0.9416619048352686 -0.5287926165340828 -1.5319098004613554
Ni 6.576533340883202 5.6959750805407525 4.711040114054079 -0.1418495611803557 -0.522116747175804 -2.4622974179343853
Ni 0.3399429265372941 5.987218292066672 8.523768469842238 -0.6888196199544137 0.23740023929417178 -1.4033906378413183
Ni 1.453261631788548 2.5394497887975542 14.042449198913351 -0.1457334696157942 -0.5338132096771259 -0.7813456523092932
Ni 0.8395001027344213 7.864960308294665 11.353416272344587 1.080529757679481 -1.9649761325357065 0.45676856078729716
Ni 3.4518192254914384 3.0959688526489675 12.68964547823835 1.2872888750490283 0.020009096132075216 -1.4654578394857083
Ni 7.555618915830489 7.402304654104039 8.78416580327108 -0.7327988537488412 -1.4206239710004696 0.5428177271685812
Ni 8.343716654254285 8.950154366042689 10.446307200151338 -1.3879550200125388 1.4263079087591242 -1.6621837409889695
Ni 8.38515294120738 4.207938555912421 2.963028980449006 0.021912483802375166 0.6464331845684028 1.0689235408991205
Ni 1.3791873008744175 9.316289485445044 13.00225810761647 0.8477366781400174 0.9323735375548071 0.23736630073244283
Ni 5.486331624241072 2.959610022243011 5.6528506829734475 -0.6180384354757936 0.15259214440884042 -1.7432053722486751
Ni 1.8233545669402325 9.075122862860193 7.057381011549804 -1.6110252158372835 0.2769008684919554 -2.8224336375079138
Ni 2.7886249493540536 1.0785884075185057 11.159606866236421 0.041535400239625236 -1.031954419873939 -0.43647844307969347
Ni 3.4606639217199913 9.102929770225801 8.504472724467153 1.3971004339572326 -2.0460286170333477 -0.8611228696389363
Ni -0.013950835984028357 9.037523613241545 3.2020513216372684 3.7488381019634796 -0.16449763759717476 -0.8401889476997466
Ni 2.69692626051391 5.214329343271174 10.02236846044942 0.8919254568420897 1.3831804814420308 0.5905831674783183
Ni 5.957153757407431 3.719659296471429 2.4708569397897744 1.4366735682641645 -0.3839999135650032 -0.2527489538361002
P 7.529893113459834 1.1430654997728722 8.832696428501615 -0.10940789571188254 0.5728500118646134 0.39909486022491264
P 3.5817675092611534 7.50475262186901 5.784763009582151 -0.0501118290547266 -1.534246419014332 0.9951159108893506
P 8.009346257966872 6.972705123002899 11.110029185055302 -0.2690057820145948 -1.7987982790226313 0.5471410371342835
P 7.328964284326522 1.7764367980807871 0.8697625281811286 -0.002131187410389878 -0.22590740816322383 -0.13852949566818723
P 4.726709719788404 0.5085988341484169 12.201945955188808 0.484966620488068 0.41802974945620264 0.1984040605366325
P 4.951348280828509 0.9193866625987436 4.209783678465983 1.1134571045351211 0.6379801687050431 -0.8178378336980562
P 7.5962190445266815 3.517578427073053 4.944214921832413 0.18991530633933099 -0.1735486920558495 0.24490734630449432
P 1.3198107739871472 5.123438940746035 3.4513667709679816 0.05367820624974627 2.1416965374513177 -1.1968024988319967
