# total energy = -340893.41164876206 ev
CRYSTAL
PRIMVEC
9.05768547239651 0.00000000000000 0.00000000000000

0.00000000000000 9.05768547239651 0.00000000000000

0.00000000000000 0.00000000000000 13.25683825373459

PRIMCOORD
 96 1
Ni 6.456508435622831 1.8566987198533453 11.324799724596284 0.05034168567734555 1.0496060715174311 0.7234480086615606
Ni 4.558044727930102 0.3165697312907338 6.0777033472632604 -0.32341263890024946 0.4253031431891643 -0.7406733714009115
Ni 2.3914372987025443 1.5646336509136562 4.601183766659798 0.6900684047598503 1.2026682135841547 1.1192809103057497
Ni 3.397356677249143 4.453962863852385 4.996926726903914 0.6433314057146275 0.09585638227969297 -0.35568281178786487
Ni 5.144982748314405 4.553126404703733 2.864073668459754 0.16471952379999374 0.4635539591402469 -0.4774170902755842
Ni 7.082249580688095 6.094527092310511 2.2750723073186063 0.9798193897415965 -0.31223296813434614 1.9575921813668093
Ni 4.936828077844472 4.707949422951092 11.386497055146434 0.493050425937467 -0.1228488517081368 0.5658566112659158
Ni 5.507362629788713 7.825006964724731 12.416884865302078 0.43642882078868067 0.6139496101184007 0.570781816481675
Ni 1.9089343921304482 6.533969762016759 0.3737273498684052 -0.3994522435643314 -0.019451680966708438 -0.39261773714100123
Ni 2.7424316695036577 1.5986905483927452 0.4011350004221222 0.08823100452395127 -0.5715899142052673 -0.13880486081676094
Ni 0.5310131528031489 9.012877129590462 4.789735794171155 0.0978063069172122 -0.6433627731731952 -0.25929061160935984
Ni 8.79281160268835 2.3163219128530534 1.3210118013323215 0.006759687321336745 1.518739067407352 0.09066969587243096
Ni 6.937915362249456 0.533997660175319 4.834742527650902 -0.790493123136516 -0.22643371298033907 -0.4716516485467167
Ni 0.9033972479119399 7.360392987014657 2.3650730935184 -0.44875366090262064 0.27613442263957605 1.0096195038221645
Ni 7.711813069034259 3.8351417905089344 3.9133123336774944 0.15158350063866796 0.4027928779017902 -1.7574045465671926
Ni 7.600439768129237 3.8162746316129392 12.651743404162398 -0.7542590805051461 0.053399755777378995 0.25436232106980705
Ni 8.035489460368103 8.765611373132577 6.9365349709792925 -0.460051345303627 0.6687382758235063 0.2422179723977893
Ni 6.873750718169171 1.1539310172981398 0.5193251154342614 -0.829194653471772 -2.0607468970801284 -1.3947746140375334
Ni 2.070061559485639 6.53500233816373 9.25192122492022 -0.9154021998077913 -0.4194091463022325 -0.08383750344194593
Ni 0.13831629219260094 5.125590243659424 1.3897804669521323 0.30224191835990527 -1.301346895803991 0.8336154082472867
Ni 6.417569445659371 1.710254060693262 6.848032325961159 0.4647348668222255 1.473750932732436 0.6592887003748322
Ni 3.5322709027680346 4.476199481754291 0.25823642513519385 -0.50704468333403 -0.2028726378309474 -0.1582195178979469
Ni 6.1590268707542855 5.5472707921006466 4.9298201465733085 -0.8935133701544999 0.768908969207837 -0.2102614740958508
Ni 5.335810066423301 2.8694113625247617 9.154417052052429 -0.13537603764087006 -0.8552234734353658 0.05977094941104545
P 0.06697524389085885 5.448496731725788 12.452201686834183 0.5900211243272613 1.5342574747579254 -0.7049329805765084
P 3.7507785077641906 6.334782200191585 12.51739800129289 0.7574331073577536 -0.677395180167556 0.3182321231405745
P 2.5512058132327717 8.52838153220842 1.4786943308919545 -0.34742905641950483 0.2820675002945594 -0.6543298137076602
P 6.17420755165188 7.779727594911443 6.0385958843495064 0.8884922627908246 0.17383999804402317 -0.7519070353332019
P 4.744959125903103 1.0483908658549623 12.633753934991327 0.18828085605970152 0.128215772447005 1.260208216782152
P 3.9907709427657725 5.8443991072346995 8.222116729710761 0.02621342517057421 1.0824814820892132 0.06543380412377764
P 4.732450462227938 1.0748211921432556 3.902560860989282 0.6922785250372917 0.7172272245628293 0.3199100250636297
P 0.01074241500271271 5.763124495245373 3.671799113280503 0.2591687413195149 -0.9873938596547446 -0.6640218441844434
Ni 1.3351481310917934 1.0892319697733701 2.49818483962284 0.49212662857161693 -0.6402118862490394 -0.1981641766116845
Ni 1.8823500851886592 6.337499505841513 4.735687679025551 0.057058178465572706 1.1466251066466575 0.017576061210550373
Ni 5.925048738924543 5.214310273129551 9.219746514487982 -0.20408774118497108 1.9823020254086634 0.26446598516271225
Ni 8.730784572386007 2.3193743528664714 10.24021797055849 -0.07777124264320799 -0.1407606989915511 0.05666891344695401
Ni 2.228525767303901 5.285458392730147 7.041211019225793 0.30681154000845867 -0.3560283680527417 0.3868078153274435
Ni 0.6014873806025641 0.20765559199889655 9.083440122707776 0.1415374292565756 -0.6253560521831294 0.1757143322486006
Ni 1.6263617775945052 1.0575753589517167 11.387359346806011 -0.8679890006311504 0.4140867056480546 0.19239410689712674
Ni 4.2101299701989054 6.874248890871658 1.3967268059618965 0.24348475492535487 0.9589975679002387 0.4964257701676031
Ni 5.5262297886847085 7.535840355144965 8.217410356325086 -0.4837538311268894 0.9522507360947083 0.7709565957654851
Ni 5.2138755042255625 3.0266527828005563 4.7552540912421275 0.9972311574601406 -0.9352632003977763 0.8374697489963705
Ni 0.7685853742391953 7.375437802629755 7.152647723929312 0.7174002598055839 0.40847424455728365 -0.7683204436942187
Ni 5.313863294457389 4.477467557724257 7.050742421677188 -0.30389179525850246 -0.5863907266635255 -0.790563057142503
Ni 8.279159315682586 7.303565068189177 9.513849562665117 0.3486019936816835 -0.7770678508695456 -1.219628495587577
Ni 4.787937843599454 0.35518083303910114 10.642496956659231 -1.135850898849289 -0.8424006106390848 -1.7560482896496146
Ni 7.977148908064162 7.154584257089161 4.850199467956238 0.15679461252596222 0.7321049130056101 -0.1037229295119633
Ni 7.221294110794877 6.266487251523412 7.1814412003644925 0.9284993993113816 -0.942668234612596 0.17553718324078801
Ni 2.6549434852614975 5.267977059715616 2.488587316067296 -0.6425299928592547 -0.1301924365574016 0.2280321678157105
Ni 2.0568192232849936 5.262877582779252 11.340257570670172 1.064537753126599 0.09582218660764788 0.6480555506631742
Ni 1.0723756170583207 3.533892228472491 3.450993573473058 0.01831319648689104 0.12197210553013835 0.40276536709796446
Ni 3.598473526085764 2.862627156085443 2.8296988462196238 -0.520403364029123 -1.0522620210830393 -0.28786328104073006
Ni 1.1715482155951686 3.2104332215906415 8.362638568322554 -0.9686816279572221 0.23125401718711786 -0.9159218197566871
Ni 3.41578000955565 2.890968654014185 7.194433544445345 0.9828437783902172 -0.6539855429943641 0.12171011011800328
Ni 4.139978196003282 6.931774251480619 6.1965646367709315 0.35303354709047585 -1.739365943897927 -1.405278856002967
Ni 0.785680849851438 7.530768051265101 11.42071336789032 0.6466121333484284 -0.8178774286867397 -0.3079148003749665
P 0.1589986112627478 5.629994633769933 8.17094533547988 0.15125594209592014 -0.33922775155563517 0.4839512918496762
P 8.383666890978791 1.62020255145467 8.01835865978241 0.8751343534266799 0.4429799916436371 -0.5612476517389947
P 1.8515630121749824 3.1391854674495474 10.488598728101397 -0.7949179916770891 0.005103639775152501 0.5497167682812597
P 4.105468414249205 6.211126677748892 3.8609081884500958 -0.09755305325582554 0.7762353276659212 -0.13380252250616312
P 6.9302887910586595 3.817216630904914 10.463689187208514 -0.004817218882985252 0.3802188492560162 0.09558461667554505
P 6.34881255503071 7.724964828379907 10.278809145398759 -0.5773116471803929 0.22403410239991095 0.0350302521312558
P 2.534258883662725 8.417243731126392 5.723507084637983 -2.0796961844891215 0.1720746786134843 -0.00882942536617189
P 6.661175897175356 3.9037175274276006 1.5039217965458798 1.8081336974909439 0.3362954084001886 0.16732148019921506
Ni 5.046326437851043 2.8197480729295896 0.6727378520493086 -0.09260085145687277 -0.26865585487434374 -0.2385919456094278
Ni 1.6092246366289635 1.0555283220287714 6.878893671995933 -0.4236535234008833 0.1621489348593401 0.5607066916338601
Ni 6.8066785570434645 0.720656631417227 9.237895398923845 -0.18482580763156556 -0.8905067221176921 -0.47249522749393463
Ni 2.703103199063709 1.5088020774931492 9.258907417746183 1.5879086844244783 -0.6953815894426476 -0.7274905541620504
Ni 6.524848672718502 1.9149939837297862 2.642830642442671 -0.18612010096295686 0.8574608474063168 1.1245539857792313
Ni 4.184786566170584 6.87042654759076 10.540551800590908 0.40932399415208864 0.2892496198652954 -1.8366194636354627
Ni 8.300897760882005 7.146885224414366 13.582426023873808 -0.5860248586836746 0.07944451658057286 -0.09557227538037089
Ni 7.597994193044302 3.797398415031444 8.194661979192444 0.8238166769893102 -0.313898271651911 -0.6519209471558515
Ni 2.974326533668456 8.417071635101898 12.442788940062835 0.8335716994935451 0.3310824967406814 0.06202426422159641
Ni 0.06522529905230565 4.75066546776795 10.12620978894159 -0.7691460249193076 0.27479153545843643 0.5029442880124112
Ni 8.814387009548772 2.1932823130243437 5.615278612138477 0.1657641630144242 0.9013264384410155 0.926850293743733
Ni 3.8089650794146346 2.6678144563566533 11.492379587101503 -0.5180880856323852 -0.25142946369372826 -0.18579691329558323
Ni 0.9874779308690914 3.4695645460532116 12.634164248144467 0.5374119827719778 -1.093951944622658 -0.2513811269542961
Ni 3.0501393613014285 8.239912364412136 7.81609963680427 0.3262994735297413 1.0187710884144456 1.4933162564588733
Ni 5.646434332951994 7.789663875904677 3.3299059048695465 -0.2472845882874193 0.1042885722074462 0.8695573735595347
Ni 3.1338504906901896 8.667824600477191 3.643283707790166 0.42557388035204774 -1.708206487575987 -0.5317709824361164
Ni 3.347629983855472 4.168727289779513 9.387048306048356 0.3485197183805223 0.2772150572982645 -0.0661349439558603
Ni 7.162699943296944 6.0752976259945255 11.47676323153137 0.490145079365214 -0.5763145733744461 -0.35749852484036493
Ni 0.6368422444137686 8.966809741138697 0.17437674970423653 0.3663474905905626 1.2583595936091876 0.4214099787823452
Ni 4.629763481717183 0.5945519108153995 1.8209326371204517 -0.3822343370241481 -0.9999878942696713 -1.1611176438358777
Ni 5.972565357056272 5.645764064225012 0.2941012366400347 -0.5451471466327062 -0.691921398808189 -0.6156025723407914
Ni 7.92901636731845 8.865463298081906 11.403319894425135 -0.07971602507440466 0.533451969682965 0.5209942035355866
Ni 0.05978525314115112 5.056027219021284 6.092989097312652 -0.8461999297805168 -1.3478550666678595 -1.5140264924230313
Ni 7.91555664666581 8.761010068898699 2.6121404866638422 0.2405261865176632 -0.19361280979557624 -0.44150032177431703
P 8.531814395012828 1.6399030174166431 3.530388715721185 -0.012368548867681925 -0.10462435828031014 -0.17274136566320575
P 1.992663636890209 3.3555101702402617 1.3790027269759706 -0.9695378053099304 0.341250952633251 0.9856172273702961
P 4.744922895161103 0.9749602095084261 8.198479793630593 -0.3300088040605284 0.19541412467037314 0.153591017987
P 8.470928633083458 1.769998554249664 12.399134519028204 0.9372712319667407 -1.4929241632267773 0.39149930726584187
P 6.407714683835635 7.924786428190063 1.1872469961033487 -0.3890079083025558 0.11010492177890714 0.4904842078721876
P 1.829299221216578 3.3141165475063685 5.862054347810828 -1.4896151534582023 -0.25520075781070245 0.23072257016368006
P 7.113725037799753 3.7726799913026055 5.897649240287775 -0.9048938440772997 0.052471330425838666 1.5674342186202102
P 2.6382864016274428 8.45583852904086 10.118480865904646 -1.2327830306916638 0.7646828469416314 0.5352170320031879
