# total energy = -340873.556755992 ev
CRYSTAL
PRIMVEC
9.20233428093217 0.00000000000000 0.00000000000000
0.00000000000000 9.20233428093217 0.00000000000000
0.00000000000000 0.00000000000000 13.46854640634626
PRIMCOORD
 96 1
Ni 7.4035445489253995 5.247097212705659 1.1066459968187308 0.4862544860615561 -0.01239117457550124 -1.8027235822189662
Ni 3.4291025176771344 4.499830884766035 6.167624164454633 -0.355997000594174 -1.3979201016450507 -0.3214424025477561
Ni 1.9951488263418309 5.655220724406097 7.7388380288637 0.7549607345578611 -1.082351384269252 -0.502777937637876
Ni 0.8732094706934507 5.416291325132362 1.0902253520773946 -1.151955003500003 -0.0873059216065206 0.5095877614708578
Ni 1.746464953056766 4.559857709271602 12.368543293456804 -1.4429180065119795 -0.06739529872552263 -1.2964857110569479
Ni 1.2091866840459415 8.947622570915023 11.223016515368954 1.3934996039798515 0.11988385554254193 1.4360978982663526
Ni 6.976749501593841 6.3650795647456695 6.039188109427535 -1.944033468845768 0.11898062700198217 -1.1014909333121805
Ni 3.0201047842492663 2.050786137542301 2.9522918649691827 0.4033199540498538 -0.020742117643357826 1.2382101152445062
Ni 4.979484138438231 6.70382668062402 12.017363824380997 -0.2721885506179506 -0.5740743711900178 -1.1988272425715094
Ni 2.606054969470247 0.8796713496092577 1.174816886890362 -1.2720694869961124 -1.4316308636339345 -2.5708105697461403
Ni 1.1446691205615727 1.2898359389848963 6.982175197704294 0.5288221842204376 -0.14932761472495573 -0.03147107402508774
Ni 8.19237781942085 2.5941563516432193 7.124739596080067 0.5835681696130659 1.0348955047801338 0.1970102655128994
Ni 9.170760765091172 2.264988865430713 4.675942391640206 -1.3694171091093512 0.6067335519859357 1.4956883562354757
Ni 3.5494322367074593 8.65334113279398 10.461989017206177 0.5260001413906102 0.7483956797458337 3.074599465147034
Ni 5.990360525367049 1.3442309350990178 6.298525524753087 0.46791969230811026 -0.33366825518998666 -0.7844803412835328
Ni 1.9955537290366407 7.985003223340368 7.5905092884872705 0.48305860483207774 -0.07623346584244291 -1.3836751616902623
Ni 3.80143815255676 6.874677213165853 9.18618111612965 -0.5221303740225588 -1.4477532231170938 -0.31708258291716357
Ni 6.572601398169718 7.480788940294361 2.7756383406240053 1.4120909938287938 -0.17207853526822622 0.31684372743348016
Ni 5.903600920670055 8.334158178942127 9.746216757055585 -0.6036366582281668 0.16532116193973465 0.37246465923189404
Ni 3.1247169168537887 3.0688863566398865 13.47110529445834 0.6974186744773344 -0.533485651134378 -0.3788638778900185
Ni 7.155274780669116 6.711197750136354 8.51974440887485 0.12296995066703338 -0.4154979841732844 0.29759542072682943
Ni 0.9084442872424879 8.22859820593839 2.9167616534996137 -0.009655520811893048 0.7583643609227713 1.0889912581832728
Ni 8.78758478079141 7.591741481006249 4.970256958163552 0.9339635077497465 -0.5332694213585139 -1.4990022511000571
Ni 0.5827414797707982 6.721458352516196 12.440114445931442 0.36537921314002236 0.7401462952528479 -0.19064344275460712
P 3.965883860653419 -0.22384861435886105 8.381570444037571 0.9569067468094811 0.5086503372582531 -0.24184130578466095
P 6.391333823570503 1.6841651520598786 10.438621530548659 0.702990255027841 -0.9189482652878367 0.07251770755375253
P 3.538720719962943 0.1251241350302334 4.235722979508904 0.7563812690544716 1.6865945657331662 -2.8082493755877316
P 1.3096669686966087 3.353790616442492 6.1407008959499665 0.35019042121472593 0.13230922579008828 -0.38959360560269674
P 5.640671834394859 7.705933243276615 0.466959554189906 -0.5923968236482895 -1.6061012961731047 0.1126027485000964
P 9.12668158536073 3.6843108457490223 13.341443488546044 -1.6515278039370203 0.5585299956975156 -0.04352080610077021
P 8.547781159790244 8.948377162300806 12.378752362766399 -0.6349583511595839 -0.0734553888766735 1.0257794014114787
P 6.903480518501194 8.410730799931063 5.532151470552024 -0.5235591360492854 1.5929537030475531 -2.285017798081194
Ni 4.877080565987217 2.5170591976178245 11.781260461870355 -0.6202976638236155 -1.5133009271109163 -0.835099191881665
Ni 2.4695015356456067 2.8293127939880445 10.775402107656989 0.12088709999607568 -1.761866438993288 -0.661137580658113
Ni -0.10775288918949122 5.077562613921957 5.091851077881761 0.5400969858033084 -0.01955581064474051 0.9142115219337997
Ni 6.616432114882891 4.962818711613214 3.174644179824042 -0.7966707127021376 -0.685043183631117 2.4545190595405466
Ni 7.354956225548211 2.6002667014012597 1.3653061203638734 -0.42095515063311373 1.1156348289127302 1.6988875241679062
Ni 4.111326749095931 8.578277694576608 2.218754499083806 0.33350113348450305 0.08792401480649373 -0.20486267167778266
Ni 3.623363787846159 8.301977617038713 13.041539424367526 -1.4888016564179714 0.324391457873751 0.994694507081216
Ni 1.9883114921999274 4.038205003346852 3.9636182460292786 0.06811006540436013 -0.07347390081943475 0.12713333801610363
Ni 5.679155995069745 8.274214175442316 7.177442282976562 1.1084951325441554 0.19171302166970208 1.7655071210696691
Ni 3.1357689199553045 5.7972955586145085 0.26391925741068484 0.9546716868313754 1.2803618089118916 -0.2746128437887271
Ni 6.190336444933277 4.5171220703012125 11.704382323393517 1.6281220234185703 1.2236437873945571 -0.8669482180714617
Ni 0.8938098155253017 2.0286545243373504 12.340743962757914 0.6379398023854109 -0.9546606310877815 0.8002944254976541
Ni 3.14650804370174 1.8132554930324543 5.637596414381099 -0.008197962429760074 1.3449795448922772 0.21648071553268525
Ni 4.792409891102082 3.6588479876458635 2.2072791886195344 0.3919276530525121 0.5031278647781271 -2.5972124567784367
Ni 5.801924332602904 0.3442114617914889 3.7672597639478176 -0.03642173316214373 0.2687198753430598 0.8718019466193373
Ni 8.579216332641849 7.608876226863885 1.243560162135111 -0.9497436534021384 -2.498600366130477 0.018294427433813654
Ni 2.011142482786822 0.3779812667720322 9.086675358646717 0.09621427983974398 3.394543428772393 0.46326059626954413
Ni 4.553011172795727 7.415746843773534 4.4468696122849 0.8415619167878732 -0.8684173464178204 -0.17707187471775954
Ni 9.232517628383656 6.905670673986758 7.301406923926204 -1.2222551345771469 0.39490704739581023 -0.5889775135540953
Ni 7.315938329502893 6.885131064559127 12.590153900193446 -0.026506273820644674 0.7120690774006575 0.49213074233667503
Ni 0.5088688235695257 2.31104654696534 9.14221972627406 -0.4943267215467293 1.1748319080981768 -0.6486479328315344
Ni 6.6129260256391955 0.18770000604630951 1.1679547064467313 1.1861745868045055 0.11410864362166155 0.09432657589872787
Ni 1.0931728596489312 2.8396010033698054 1.470320394963014 0.1514084085133844 -0.30246560433493713 -0.43982473384410703
Ni 8.211969588449266 0.23889903157162465 3.039163738140648 -0.9735726375009363 1.3089000255609007 1.0649941239377272
P 1.8726749634958075 7.894387840708705 1.0903100135499457 0.3187273176094382 0.42970204358780834 -2.2474508955710135
P 2.70630519577159 6.623149818683146 11.50164018223502 0.04640378407552008 0.01846694845593594 0.36306239208138763
P 2.714302023994086 4.287661872685645 1.7656858680260716 0.427357968835664 0.7028760980474797 1.442159016858768
P 6.750841404891832 2.2723139232731833 3.518051357626295 0.40272885743307413 1.260058064357533 0.24019914219554758
P 4.931871262462176 5.294700886347742 4.712213390994597 0.9021101106845754 0.6832868630616425 0.21042293937437953
P 5.2235116307329825 3.0996037474416016 7.061275699835601 -0.6277268664081511 1.1940557893247952 -0.6984879962821131
P 3.203332455984721 0.9851190541385243 12.037876747040105 -0.6409798747633154 1.0317469318488233 0.5713585149207515
P 5.558844680707367 5.834638629876749 9.688221807891244 0.43394693490709135 -0.9714422214214947 1.0061546852020156
Ni 4.857056287262073 1.6056600409366217 0.8691521616447758 0.396432225791085 -0.013865445128182571 -0.27218083730846676
Ni 7.535506018097536 1.8962789501364306 12.766766934269143 -0.25904070038208293 -0.8474276315400309 -2.1568835296044018
Ni 2.5466539036748395 6.651612637661487 2.5753881915053833 0.6009046040089844 -1.883817461477504 1.4345917460344713
Ni 1.6663770404901614 9.005689298284354 5.099177976191026 -2.1243490473118056 -0.3743490207388005 0.053659951417301135
Ni 9.283406535254082 0.41573936329645306 0.8574651974991264 0.7564725432166972 2.4686380154404324 -0.5792456309783122
Ni 9.175453955417378 5.01227205438386 8.89605545203079 0.014301247114020532 -0.6684801370661133 1.9125827065356544
Ni 8.6872885428202 3.540229902734507 10.998616681205114 0.438057100420723 0.6260116834892574 1.0064701595599053
Ni 6.9563479271758055 3.9505527722544804 5.594308635372331 -1.4692034225710697 -1.0693135772486875 -0.795915579703668
Ni 4.715598009429849 2.0533351840528087 8.867771158331523 0.2443645864271469 -1.565899784253555 0.8697103541976311
Ni 7.104091399111556 3.3695082028682948 9.314307972735257 -0.48245542403044006 0.160611158058575 -0.9720885967562419
Ni 8.652650957746008 1.0587653329240623 10.57492282042244 -2.347098369462022 -0.20332206666354016 0.4500644092942443
Ni 4.507119133272613 3.2704818869853542 4.346785027995069 1.5345312972446024 -0.7857990600949564 1.4691923668274762
Ni 5.70709428101163 -0.012202294848134844 12.11658707021096 0.5805820904015485 0.5858291977331008 -0.22925215626574064
Ni 8.843893862371905 4.018051891946087 2.920061610462314 -0.23571436695131665 -0.847877574593256 0.08955615109327802
Ni 7.301389439491655 0.7341198736258646 8.443390803434468 -0.1977098626830853 0.31169020825699867 0.9553666560158708
Ni 8.488058012305782 0.3238282920413994 6.399418073965742 -0.6264922226701016 -0.5846986836730833 -0.19761396053516933
Ni 8.30564934829392 7.778355611643749 10.460696089282978 -0.7488705624997232 -0.15489713839293323 -0.06989261122607963
Ni 3.665142384083363 8.826004525128486 6.214562509350472 0.6488721330271986 -0.37792465390520075 1.5044229078949962
Ni 3.857692020133418 4.636218676579161 11.019223467670745 0.08655053149773481 1.6353149416225834 -0.1020581402150307
Ni 4.150942796849491 4.351314416776557 8.555368484150943 1.1780478439323132 1.5595854119997528 0.176258891898161
Ni 4.315756598305068 6.513016285694852 6.9146438698437835 -0.5479902725084562 -0.6961305517935301 -1.0541576954438556
Ni 4.8103360376813935 6.284365893468904 2.111329212983752 -0.1848098667919656 -1.245348011840868 -0.6315380126241252
Ni 2.437551032091516 2.838487520959078 8.064965063931544 0.670922942179651 0.6568065573829268 -0.5551690496450826
Ni 1.3292495353910512 7.1374406574295355 9.721004202436491 0.1976782381142015 -1.2360151644757165 0.17693509202957916
P 7.926568402612121 5.014821100894368 7.236205627027643 0.35841460889673116 -1.5486317412017265 -0.09790272328576043
P 2.070258276229068 4.5488057061700875 9.55566402747766 0.13269026327859082 -0.3935338211973674 0.32970078590180635
P 2.037856858310303 6.734912164784653 5.6967637408935925 -0.39649161827411067 0.2017639781478009 0.03171378616351312
P 0.9119687811541287 1.4399444107516954 3.077226431919573 0.4302160071097494 -1.6440456366273624 -0.8564164653022025
P 5.527851219886464 3.6058609486296036 0.009203254206349668 0.5225538347132226 -0.06420353126110233 2.1481116969490426
P 8.540308864604205 6.096426626739299 3.091044656613359 -0.037225202900045565 1.311424077534335 -0.22889965802232837
P 8.310388550289991 5.661800393196758 11.034792896519583 -0.27207387941695726 -0.2826151452679133 -0.039381844231732174
P 9.24908182953497 8.883279851776141 8.826760036747665 -0.7252477808744606 0.02116943498876354 -1.4292901313158999
