# total energy = -381167.591707173 ev
CRYSTAL
PRIMVEC
9.33100749147521 0.00000000000000 0.00000000000000

0.00000000000000 9.33100749147521 0.00000000000000

0.00000000000000 0.00000000000000 13.65687265646438

PRIMCOORD
 96 1
Ni 5.646528642011291 2.994842889574205 10.512255360137788 -0.07030861571757568 -0.29183280721143934 -1.6926716251651817
Ni 1.9114662470001043 3.904578810890294 2.6943237918690004 1.080041762299469 -0.08974178474152286 -0.3070208278057874
Ni 7.138426130272801 8.132393057596525 2.799426395776034 -0.6335015641083993 0.13735141619968602 0.4377987045530138
Ni 2.413885022614935 2.5336764987560683 12.900650869170022 -0.08701821516277272 1.3419998934386628 -0.710682481465776
Ni 6.112164585491183 4.839704404007289 5.9671523287875115 -0.12415882876881197 0.6754825365258754 0.387002704947069
Ni 6.753400761834448 0.6295108321370841 0.8497384752621964 1.034655877965502 -0.5415134065348609 0.5784814991187779
Ni 0.3351371360666008 5.005199155591581 3.928686402240834 -0.25410006854735595 -0.43611720308553276 0.16600584671158505
Ni 4.086990679334212 3.8526330913329105 7.242430474580068 0.33329878766570986 1.2045926843003771 -1.073305986237532
Ni 1.9495180961747065 1.5402041148375072 1.2019074995824512 -0.6929932917161291 -1.1029415497157777 0.9305498540825071
Ni 4.022942642861807 1.4563276871203668 6.666288340666167 -0.2269368778690027 -0.810907682237126 -2.6938969913863797
Ni 1.764773475819643 9.018409557480089 3.2528760432721024 0.3270219535180626 1.2588077368901998 0.3633693817988452
Ni 0.9636318214711901 5.266168777395228 6.380518766744752 0.78462663705341 0.012267504513443387 0.20119139347378254
Ni 0.09226033808579666 4.75923379408042 9.310518617995234 1.322181316050839 0.3862791965174831 -0.7055749850358817
Ni 9.106363635537912 8.769504928560885 8.84076303464026 1.3984433211383722 -0.04994907822461721 0.14012229407660384
Ni 6.702182860873341 2.3233555864472075 6.6049276343954 0.10470611936083903 -1.5874196606032016 -0.13996519967344925
Ni 0.4873473320673028 7.676274741914107 5.889908381304139 0.47635162512554735 1.3435708374702087 2.4775913679789787
Ni 4.487850767745421 7.609408741133039 2.479214206436941 2.013797010693151 0.43554898928688857 2.242900300085853
Ni 5.464051456513861 0.970919338441608 8.459791055922711 0.5138545071670119 1.3378668451068958 0.9710627265948889
Ni 6.908164854627472 4.186188621603755 3.7795535725613147 1.6571837166712169 0.6939613120563533 0.02071203573637078
Ni 5.979710931976353 2.9652076092950153 0.5202437995182738 1.3139409304189176 0.3266334598303923 -1.5694635903454133
Ni 4.686423941429752 4.831847695570551 3.919044672041688 -0.8423309337434138 0.7123454709904958 -1.142655066255316
Ni 4.6742283144382855 0.933576645847994 13.619002225091162 -0.3606787223405595 1.5023588262771157 -0.3203219157900677
Ni 3.4137118227394554 8.512528978029119 7.830973517653619 -0.31225559384216545 0.07883079425597392 -0.2566534310968289
Ni 3.271218004999056 2.2693757072233054 8.565645739045898 -1.2206186274149882 -0.951548053600729 3.0205312225477208
P 2.5731653231079354 5.009080854771726 8.680772644465504 -0.675491792497256 -0.9167826250950857 0.4507434376391398
Ni 7.183289615027949 5.055157370520669 9.431121891801446 -1.1938776118757182 0.5253465669670114 0.0665090394658274
P 3.074734977027109 5.077393161737706 5.290727056415001 0.06343014343018753 0.2872690991001569 -0.017429508330357082
Ni 1.1200941576555277 1.9991963808744566 3.9699714455642834 -1.2875236167676536 -0.7635075956866076 -0.7942708450113934
P 2.063160438278061 9.297294713961332 5.687596272856623 -0.4702601675158289 0.42910426210280933 0.058574872220415256
P 8.083339950408961 3.820030550622744 12.769913187961029 -0.22909043387689576 -0.19746946453750508 0.5850175004650827
P 0.7335357046611688 9.215013888551415 13.531775965629617 -0.4811768144283326 1.0661621761038993 1.1165704533531222
Ni 4.110598128675003 6.381298838983838 12.34993759728913 1.1442851456595713 -0.6265858108251725 0.3142062898106331
Ni 8.2459980756693 6.541409599157207 7.398364675731722 -0.748858221204549 0.7852539862247637 1.5136927632326964
Ni 1.2051649543511744 3.0776929064504412 7.362297531883123 0.07676825529999037 2.31235479533325 -0.3189134654783153
Ni 7.552125685202954 7.569639986551834 5.265092912213808 -0.5935713035723648 -1.2031346116976118 0.24459264327755292
Ni 3.758016673816857 1.6490783120344807 11.177494620545975 -0.47339228538690725 0.5248454589608768 -0.58851497209538
Ni 4.854316761978703 5.305461650586559 10.096839832901797 -0.4783367738763762 -0.867452668511706 0.24144047080181644
Ni 6.664242983790474 1.4085809210030449 12.179459154521867 -0.5017114440465748 1.530277664174571 0.5099322892944702
Ni 1.1686993764761513 6.948698751835533 8.339433187617551 0.65834844794875 -0.4128134953625858 -0.2690919139704978
Ni 0.7381134970116003 3.6911506730357884 0.6269214775157128 -0.17809106001089328 0.025280371833343557 -0.9452100271978432
Ni 2.690652040360858 0.1678349683015532 12.630940892505695 -1.1733380971614695 0.06679006104135593 -1.2821831783913467
Ni 0.5364508266961469 3.952913430489225 11.525731558244802 1.373291247352777 1.6306239639048172 1.5126653504094465
Ni 3.9218411750327693 9.29612833800576 4.549678024398416 0.2499215116896341 -0.28240791435311363 0.2881954675691682
Ni 0.8478284179973505 1.822056531749727 11.015005386524 0.7812443508447384 -1.8321868817854057 -1.2600714340939718
Ni 6.427282044656335 5.203679019199467 12.66549361381358 -0.9542289428670018 -1.0460651482437082 -0.34018703014511087
Ni 3.8256571482324264 3.088684833455758 1.373130556759752 -0.5219992477613333 -0.358082422368293 -0.10867821663470961
Ni 9.099981226309017 0.8297449251821523 2.234414287780589 -0.27543482546939013 1.015852372105754 -2.118198711439694
Ni 3.4647057795170912 8.281175974489372 0.7274015002356212 -1.420291270251399 -0.7487126967656202 -0.6117443749369659
Ni 0.08566051637878437 1.2981484455294263 6.279142967290963 0.7981732653895931 -0.4894035732134991 -0.5534081010899179
Ni 2.9328943298218304 3.9372093446233944 10.62484236527654 -0.5424775702203432 -1.0203582303959071 -0.5666965906687079
Ni 8.761452268963613 0.08151195038000356 4.264604543647287 -0.22428838450256214 -0.09097385737641107 1.9929566769090323
Ni 6.3810469017774345 6.873378858128472 10.985301989889004 1.0752373989322903 0.215824312895609 0.7231898699041674
Ni 2.480219155960262 6.942381659660151 2.735130154500283 -2.1246586081324246 -1.9741382586509488 -1.4316424335981603
Ni 5.408550623043893 0.23217133291017614 10.65278406766824 0.6435833738244335 -0.4626628147845451 0.7742298672001182
Ni 1.4496000306086236 7.150687074317782 13.161470261750589 -0.14376760413867498 -0.5148556947380165 0.6110074967709412
Ni 2.5798743176043897 9.009862354477653 10.107888679053746 -0.6738406300470782 0.9769279271264144 -0.8242519647545159
P 8.76374769684418 6.965662523733381 10.101346709594129 0.009546248927538397 0.26285724591469567 -1.4415000431185303
Ni 2.588850746958477 5.51376706524419 0.7298256960216833 0.33524151321437745 -0.9048295664982675 0.918494979800502
P 5.991225395409765 3.4656482112891944 8.249693154696557 0.021021082336357345 0.4473742640565908 1.1098783860449273
Ni 2.488477097725717 3.111527140169693 5.268562180856063 0.24301835681189765 0.471458301588988 1.512422895381337
P 8.082304208560414 2.058075039111764 3.9276347976792896 -0.7595241855588274 1.0356969176355064 -0.8056495191619802
P 6.052800714856358 6.261507362842704 2.6472068687676877 1.1367011626647263 -1.2031065866731536 0.3332139412613874
P 8.309943471057617 5.4536940380283765 5.565080142483271 -1.2914118960784662 -0.041632073718489586 -1.1160757731048907
Ni 7.955075919326549 4.0994848985703065 7.269935485814001 1.6634332971253547 0.07083903429974897 0.777684401407622
Ni 7.974475084219633 3.135339871678664 10.536305099240932 -0.05765313173709426 -1.0946962789878503 0.34089408351446454
Ni 8.806670332009253 1.7509262604750846 13.132776480142738 0.5535600532867498 -0.22471055964164527 0.4780747784642411
Ni 6.432563394983167 0.22210037635937965 5.103955741199535 -0.8551715371515078 1.1464592704927545 -0.7024053290586484
Ni 7.9718903951020845 3.513021737100733 1.822359789498176 0.605000628455229 -0.3825325849908573 -0.2691615908661687
Ni 3.990452074243375 0.6655117258314074 2.2273544473966984 0.9148288438028245 -1.8777419447073855 -1.7918514153911527
Ni 7.84509133221987 5.969036259230951 0.755578344019963 -0.6292754418421938 -0.7571142905657542 0.15269550275592414
Ni 6.626256451669384 8.214393952777105 9.115375522721047 0.6430259586590669 -0.22633601106021017 -0.35714705503821714
Ni 3.6453820805391173 2.1380137816028912 3.590200367530593 -0.7783832272468594 2.0641559227616773 0.8887920534194306
Ni 7.977395689612387 0.564021154983591 10.443833880382366 -0.37312337586181543 0.28060839925052966 0.8171729464205475
Ni 4.96723128548578 7.159243608327862 5.369609528840762 0.681516144314465 0.1469601429340437 0.257399308123918
Ni 8.504513642462424 6.0462036924516385 11.956278247477245 0.9093847899691178 0.1818782949674674 0.47612973892272836
Ni 5.774764680070771 7.2272666540568595 0.2788347690399623 0.8585743921854698 0.5814665498890308 0.780099695717334
Ni 6.054181703987755 2.1747406276919627 2.6225431493615305 -0.008730180784146255 -0.8922103350723602 1.0976548473955416
Ni 0.7410247713967096 8.518566139975164 11.516281113702371 -1.8084147190664728 0.21343910049288403 -2.0944478888769993
Ni 4.342119090352352 7.578457788775962 10.280416211099759 -0.9487735761793853 -0.042363552567875426 -0.8808792263302572
Ni 0.15577277471940307 7.346470276716384 3.781192097503703 -0.025819532166265206 -1.2716136304056163 -2.9400263830234334
Ni 2.57295070993211 7.111375539111161 4.948198829193128 -0.21747264713230932 0.6430560405660538 0.29742238548407485
Ni 7.574324152389413 9.340525272378677 7.271342601766803 -1.044300857254434 -1.665100143304816 -2.2676443397997526
Ni 5.435237304907395 2.756034410926438 4.8577906961247805 -1.2002583185910813 -0.59415340132808 0.11061400020484176
Ni 1.9306041436791403 6.141958492900331 10.476173286676957 -0.4006701751318325 1.7533871978776834 -0.5206743583023226
Ni 7.521799910358066 8.51071876254607 12.56791460137037 0.2349875160876211 -0.2084082229371959 -0.04462766601170379
Ni 5.499331996418023 6.369952333688027 8.101543813222776 -0.056350867985902955 0.3651987216981001 -0.7272046474905154
Ni 4.527964769609476 3.671350274813987 12.360466706315277 -0.3831383368956563 0.6448804953693023 1.4359636866813332
Ni 8.661927741426508 8.107572577261939 1.0674626090362676 0.6612897899652611 0.003118233914007533 -0.20413582081408713
P 0.28929856101259566 5.506255604090303 1.7577621566755048 1.5370347803927467 0.17035281082637113 1.1283977850053533
Ni 3.2840947955485777 6.19322304889966 7.109016660378611 0.42244124826033697 0.8958435609495734 0.22220013451496573
P 5.3427950121725285 8.892674229469357 6.90831508385055 0.5129983298143036 -1.2118375387882483 -1.085688161951969
Ni 8.26642365140329 1.76417629133039 8.335854746185854 0.7867367414178773 1.955781610520632 1.5896729754137526
P 4.720230182126071 8.43018283556569 12.542090104613226 0.5619868438978644 0.6616600288204862 -1.4433574080422433
P 1.14633295115209 1.4674969032709304 8.515251766059809 -0.19596511207783668 -2.3808024465826865 2.3170396024034288
P 2.357572391479887 5.317060093088774 12.278280124082569 -1.3477910461991434 -2.618998442305277 1.298771421767331
Ni 5.048448376024214 5.062304922376418 1.1296910990179794 0.056121268473600126 0.43147044834214077 0.05364812434275922
