# total energy = -340853.9884577346 ev
CRYSTAL
PRIMVEC
9.44218685190326 0.00000000000000 0.00000000000000

0.00000000000000 9.44218685190326 0.00000000000000

0.00000000000000 0.00000000000000 13.81959488862932

PRIMCOORD
 96 1
Ni 3.642059145125399 2.019551548302381 10.214090202967352 0.4212423428562294 4.005697221313211 0.5320664021893482
Ni 7.294787961241801 6.063980038215927 3.274953535071853 -0.19095531756807113 -0.5118529033559508 0.6478676030220842
Ni 9.052120542206884 8.00481207585283 1.377649033984886 -1.7924659090467003 0.39564084023804125 -0.20115899757395034
Ni 3.5829510562725853 5.708679994215524 1.0069355643865059 0.8494544321620726 0.10531752769259282 1.478825519041866
Ni 3.931018385247229 5.2004070832016325 3.6037078153341096 2.318238764917853 0.29497058150947264 -0.8297836932060225
Ni 4.070592789308298 6.303962655833038 5.75051265824963 -0.3408058946760324 -1.7743941391466538 0.39605298807479533
Ni 0.7873461816422878 7.6407685669518335 12.61966667084954 -1.4694093679342888 -1.2597312771457336 1.5966869448377405
Ni 3.934833028681181 8.509289227806203 1.557219596763468 0.6501278598111706 -0.15725278310930335 1.1432140240825794
Ni 7.457118035292531 5.6177328517506195 11.554894880161093 -1.519994279970692 1.491382015550638 0.9013086978292026
Ni 1.029972611540355 3.198040314725469 12.334334174645976 -0.63568648757486 -0.5603984163648219 1.370960028116439
Ni 7.1674223046067205 2.5980176753756683 0.16980450905646327 0.2023301350639161 0.764262214464445 -0.2226277089706875
Ni 5.136143560400954 2.8107973530590797 2.213332602091105 0.22844791519689042 2.372913273642597 -1.0669103671238336
Ni 9.261246093630545 5.584307510769955 7.057598342455786 0.7361194334816419 -2.0290143418635376 0.6476662856445556
Ni 8.628676236664825 4.904602257709469 5.078936183734414 -0.8008037610339047 -0.21932461273938358 -1.53798557434179
Ni 0.6194329425853802 0.7473689072982098 2.962436983308028 0.2964862468230507 -0.2693996750189038 1.5853802615756696
Ni 2.4818693365612177 7.32010246383196 7.9785221953747305 0.01720839345848649 -0.7303308518243229 -0.13123193356550947
Ni 5.4557899073553155 1.8316425904333964 12.16932818487945 -0.5393822191244712 -0.8460083825950011 2.7268073689611554
Ni 1.1753256338726574 1.3634139932892786 10.312858308690528 0.8666093466748043 0.004079826496328457 -1.1368235471752035
Ni 7.184238839150948 4.567487865327359 9.54388095708886 1.5809697912127998 -0.729715329727511 -1.0354624330271975
Ni 8.306886513325546 1.3942521751092927 8.626135344219092 -0.08409332820649389 0.3074165205823092 0.0006317200467279443
Ni 5.362746599439081 0.7154458182243315 8.055386316350182 3.9706008918307103 -4.8655317111580265 0.5929712080945206
Ni 3.2299737902047365 0.12983006736840066 7.2619064902160755 -0.8333472421875647 -0.6818447312984773 -0.31538796882356007
Ni 3.3510131817389563 4.08587024741754 8.043142632833339 -1.8481981696119978 1.8335850476845132 1.660452874340792
Ni 5.824941639270587 4.985512355693456 13.628746555839633 -0.026878569558398874 -0.5176947068487084 0.40573884790399156
P 2.8157733854593086 1.0716315393388556 2.706360158430595 0.4077368521706269 0.18705135452797464 -0.4125694976725797
P 0.7884433637388847 7.103149339619324 10.285067120524317 -1.7036949728588788 -0.27184710811813184 -0.932083260007898
P 5.118430018118545 6.9427643560324395 2.406447037497559 -2.530718843931577 -1.3663181584690534 3.325438346444615
P 0.7657688965549955 3.5819596266672264 4.085915569913785 -0.04383782312055676 -1.583643481390221 0.48401299832554706
P 5.284206490321236 3.581496959518059 9.147534783207933 -1.0084144277704699 -0.43986330039152627 0.06073382754494701
P 7.341309615199918 8.4355174229808 7.743464622349573 0.3057278200259767 1.303848322069606 1.7307391214608645
P 0.9494779697719464 0.36005890610612523 12.782724737496203 1.5456662308154991 0.19100108320434203 0.14560080069267184
P 6.8318469886595965 0.43120011771197814 11.192324352388061 -1.1829457954545626 -1.636209428412395 0.2344200736199253
Ni 7.925969816760017 1.2646392780353994 4.332401021523377 -0.2539216339879627 -1.0206904169243451 -1.8645678692192729
Ni 3.2541835569489237 3.5975864456850233 5.144579210014548 0.3794351770124562 -0.44506001410111734 0.9027778261755613
Ni 6.126619504901162 1.9821510467135641 10.00991896691447 0.7956983214865394 -0.2826256867908745 -1.161851950898741
Ni 1.3387510015826412 5.256087658275921 9.07864458891558 0.3750571025494186 -0.6491045607529788 -0.8003880136527247
Ni 4.3613838136533625 2.354324278378501 7.5704573235584665 -0.7030455337458086 0.6070387419311803 -3.066919580004273
Ni 0.3637101997098605 5.322116869992809 2.8581688038217905 -1.9962721144355107 -0.9435544938722911 -0.8173891761964116
Ni 3.304746466822217 7.696175318611307 13.225988192958717 -0.4442241484633833 -0.3951687856976291 -1.1197581070524842
Ni 0.06754845955976738 1.4959539682456595 6.122080645745962 0.8160030944821623 0.7861656994057558 -0.20647681024243797
Ni 7.241732314075035 0.05958775193807293 0.23575251796758018 -0.795567966556262 -0.5317804955178131 -0.8735053024636893
Ni 8.846583021735949 0.6474403568274275 11.320818350335905 0.137699286457408 -2.3022045942731255 1.9747458103279605
Ni 8.760328646069743 2.660694910807773 2.478322851230049 0.2110888550931526 0.811091516113158 0.26248109352219956
Ni 6.819845969341397 7.7965174368603245 10.206945300278067 -0.5024832892155926 0.08529968980976922 -0.20351772761411402
Ni 4.260909504790297 7.616039479938172 9.50365252057809 0.24602757595186658 1.864066761213138 -0.4351692373499666
Ni 2.0933988906215273 2.347535346128473 0.6786080709638895 0.015164366445264206 0.39888865775137755 0.34926122453223724
Ni 1.756246729492547 5.360763740228363 4.7234548497490305 0.4850635510772484 0.660985628461281 0.7919964471549199
Ni 7.201716326765413 1.3990015950282968 6.386379726817171 -1.639578344884628 0.40707325044469894 1.707324599191666
Ni 3.4753384542509367 1.1782149430082742 5.106326078965123 -1.3870409928387013 -0.8414529020138348 -0.41809608391776387
Ni 4.727712331740041 8.897032625368631 11.477504829385465 -0.024247559693455017 0.08430647265856447 -0.10632797123497817
Ni 5.562108929796637 4.6730515128312655 7.3188154937823375 0.8320475495395349 -0.8475574722496757 -3.5893322611539404
Ni 2.8859949280788575 1.4357222591734393 12.305450525476527 -0.3040692013766312 -0.42484522971613925 0.997560001554469
Ni 3.2656369294374965 4.579507769018994 10.727764044783768 2.1910642892511683 -2.7055327758530954 -0.15849719703936574
Ni 1.9379238441278486 8.637051456283428 11.013705562030621 2.281701075003135 2.8701857080812117 -0.5188218784746161
Ni 5.458386508702683 9.127403096907122 5.38685061369203 -0.28323426690915093 0.3941912522757082 0.7241517195968044
Ni 0.33010451296288784 5.272054396015554 11.158120031003184 0.06690807467645897 -0.8784868148386807 0.8970671489440293
P 3.304784235569088 8.171240058939041 5.295903471227125 -0.15093481131107556 1.6308882733097976 0.4443850995212798
P 7.327778961633451 4.062434739984203 1.813352130542536 -1.3288998657215954 1.1823598410441056 0.2540931265688205
P 8.559956001733392 4.3080165743249115 12.77071522020996 0.21754103847639952 -1.580423946011659 1.0050159436118822
P 3.7365376654227243 0.3077246420045909 9.392860734288591 -0.5295276949278944 -4.305326898861249 -1.1075034580548473
P 0.3122880508452562 9.057030479300089 5.057267309435959 -0.7422288888134895 0.5333388411438686 0.2051768604840918
P 2.0713608268224113 5.221812520490663 7.004088526107899 -1.1541905776987411 1.6660969600004467 -1.867137686828978
P 8.531619999393568 3.2480366933957003 7.453087165782744 0.3773340715090534 -0.09337141107431017 -0.26681057413548886
P 5.350849444174776 2.0445733431042914 5.203298280774593 1.5217624276147081 0.7310091088382701 -0.15172054043716451
Ni 0.16374451362104223 7.421199957018394 3.6302828498510813 0.13744037636906653 0.7797937344411409 0.6726165278319899
Ni 9.380274299393895 1.4146095296726582 0.47394017588965565 -0.5295858018593396 -0.3982188853778626 0.2503205469002657
Ni 9.281367393525967 8.81941785054912 9.487317537556466 -0.7066373648621249 1.0516241303887244 1.9090703225070218
Ni 2.7050826305676896 6.477793313305929 10.754767754577724 0.033731845034806425 3.207938160642901 1.2885633708860775
Ni 0.6068720015948214 4.186193481293122 0.8017738429469362 -0.3464841760077323 -0.4666536811114931 -0.9355146542869501
Ni 5.477639127420077 7.500731495741596 7.165887949265095 0.4669478153131443 -0.27205870990830566 0.8420367995417627
Ni 5.106938876883102 5.604759287200497 9.131463237195732 -0.5904798091312347 2.5981018013619255 2.6588600543869045
Ni 8.6757077687057 6.875129972573542 8.714235667388609 -1.3325693441533826 -1.3299810146009161 0.3766758690997642
Ni 8.156755744514086 2.619158731436603 11.026446848787488 -0.22219242120548183 2.850674120410845 0.5454654492040736
Ni 4.031190544135328 1.2118574542834457 0.843464874180277 1.2973290328938496 0.6688899709100222 -1.334767637356282
Ni 6.596698770641948 6.92041470007164 1.1655926278040503 0.7186914678131816 1.2884672116278457 -1.5068747118695984
Ni 7.895858683317266 7.75742678384904 5.81651543184371 -0.0848363770201055 -0.6062378432964398 -0.8692969208092964
Ni 5.346770419512729 4.002429643393208 11.431016223080862 0.7533458246622574 0.35883755536676265 -0.10970357257543044
Ni 1.426903256779106 2.0785746574747357 7.973228905500787 0.3626443307073625 0.6585929598593884 0.5290381568859857
Ni 2.202418378464113 5.638194070367879 13.09999448605372 -1.3174206614374022 -1.2512756901792128 -0.6449933667980828
Ni 8.534207158554219 6.0143330204542504 0.5398730773020243 1.1121512412395038 -2.88545806085925 -0.4863910116394204
Ni 0.7365283327276163 9.194961942872277 7.634358266389185 0.8935071995069129 0.026080499137135726 -2.542237386094138
Ni 1.613886880349756 8.815574880555017 1.4550239772617655 1.9434066338950466 0.35105714009039535 -1.19731234858888
Ni 5.022469074506541 0.8388287605018854 3.1730345716409785 -0.3226662476525282 -0.8178653445018819 0.8549869319445275
Ni 6.588021401048381 8.425999698769356 3.487817248217052 0.6147070571097155 -0.10518871542421238 -0.9111012584395922
Ni 2.383453424402611 3.9193761690243027 2.535412200562618 -0.31369438317122106 -0.9390049268283958 0.19044983868656232
Ni 1.0848789273037913 7.197023559966716 6.0089254801210235 0.19329039345915097 1.365001496540159 -0.22305116966135136
Ni 2.945055805998083 7.230703839988759 3.1899766872685515 -0.4409148815844922 0.3012114202128619 1.6550890389257171
Ni 6.54936508862611 3.7784326478891668 3.9782330957104257 -0.2366160528299796 -0.30792405634634706 0.31035374883376227
P 6.415588187209709 5.796548983810458 5.728650219123463 0.883354170233311 0.605136382702145 -1.3886970403848857
P 8.042911299258755 0.28846258110047907 2.2400181101926737 -0.5740576590194694 1.034995777803424 0.4732472751686108
P 7.563427615547137 7.429839557865091 13.137818941826161 0.8306784371061499 0.6445724772105802 -1.4829940485972588
P 1.5486602545038715 6.602534042033488 1.7182730871699654 -0.197759227863782 -0.021323958288756825 -1.9970683850845605
P 4.9749276643829115 6.3278891569756945 11.371577657692926 0.21678410570571693 0.6167225448778476 -0.12233848773062156
P 3.9457670809002794 3.4139359140257217 13.544695042334666 0.5848115551018639 0.07203691126259207 0.23591388455663242
P 5.003339204216477 8.910742680482734 13.629657726857893 1.3459141408914046 1.556954659245125 -0.49543512411955964
P 1.790861785999642 3.3130555911337956 10.425184450321654 -1.7282844892727849 0.09190999603743526 -2.1727071269002196
