# total energy = -340893.94149046106 ev
CRYSTAL
PRIMVEC
9.03296489917606 0.00000000000000 0.00000000000000
0.00000000000000 9.03296489917606 0.00000000000000
0.00000000000000 0.00000000000000 13.22065719603179
PRIMCOORD
 96 1
Ni 6.2895631904288685 1.847747185772261 11.5162634590213 0.7260419946409818 0.2808832501784711 -0.4820309348985118
Ni 4.383273358579299 0.23549481697625252 5.958603482993113 0.47067848600017004 0.2743061111815857 -0.672950257022325
Ni 2.44118588648835 1.677981641816553 4.369149414526455 0.6731438610903697 -0.7683744368606058 1.8154353733586797
Ni 3.5452039000996423 4.471453162777214 5.240814276383789 -0.15336141847469717 0.19116486247571593 -0.8832734375940466
Ni 4.93674118923026 4.62605235852064 2.675358277390583 0.7731260926129782 -0.8159904960766721 0.012577322444378338
Ni 7.200013797345106 6.162415175279324 2.6157867766013156 0.3334440549943225 -0.7832292424852512 -1.1310617049907616
Ni 5.121040773849198 4.695931375655969 11.486463707530936 0.5520659852397266 -0.9852472456253871 -0.31318890428971224
Ni 5.647915555579993 7.706582473786317 12.325420203172264 -0.9966025227372062 0.3704175468948782 0.6540881300104994
Ni 1.8316956069913046 6.490465364692938 0.30265400835415485 0.17792599518793875 -0.14851643167757003 0.03137260077401049
Ni 2.53618557925105 1.786377221654187 0.3670545322251893 1.1468827311834184 0.15221264958223463 -0.8277543214808195
Ni 0.749582533472201 8.777449505897266 4.407422990470625 0.16842756877920026 0.5942364479601895 0.14536554475341418
Ni 8.548138656750751 2.414529606813278 1.3129739794572974 -0.15126134141255887 0.6606963793556363 0.5796549506015888
Ni 6.672461543240326 0.8656904588152831 4.834014698218134 -0.30537377912066765 -1.5071935286615978 0.4117482873228651
Ni 0.8284267683566003 7.313567200190014 2.351505706806182 -0.39748457831499934 -0.7342908649133354 1.4553513471793258
Ni 7.5430316097413 3.9309295709518643 3.839675848769053 0.35844777612751166 -0.7333015044168726 -0.8083594618939755
Ni 7.65087617871476 3.8231030679083773 12.52406052300372 -0.9130624959310211 -0.3728307843220611 0.4459611857591481
Ni 7.944032024385642 8.889882821083853 6.8928541460557 -0.5955384546010647 0.13335669321799615 -0.15412092234854102
Ni 6.874248948073069 0.8761470190836201 0.5509096949667929 -1.5916545246201554 -0.49382509931996244 -1.3961689232818988
Ni 1.8511706795021332 6.266014250709143 9.272188611392197 -0.21204273436598964 1.1033932925412158 0.22800517123251698
Ni 0.013383240923953255 4.85916608592646 1.5585830073289 0.43236107847721017 -0.02528757092219516 -0.08400308248553275
Ni 6.440016255243505 1.9478505037523164 6.998711462732136 -0.3661929672905694 -0.3404081450169815 0.3360061592945439
Ni 3.5179875765954094 4.3469066415437725 0.3977973252601397 -0.592691729180889 -0.7776113820778414 0.436105633121307
Ni 6.284784751951026 5.775894603508292 4.907151002527582 -1.6166826712333773 -1.3114965826434832 0.16893947541861226
Ni 5.3486624585432425 2.9456498820877135 9.221329405332378 -0.11795938482631943 -0.6611319242311582 -0.2168931204797555
P 0.09115616616095726 5.546068875357548 12.390399740098932 1.252233683217108 -0.6671256799207478 0.888896697318095
P 3.916639420343269 6.077667897776267 12.50186381814247 -0.08892545948781459 2.1913090582721226 0.7997141275141517
P 2.3549933345874576 8.483164539603075 1.4331322863003126 0.4596260848407504 0.324731357711673 -0.3852926642344977
P 6.256511571543377 7.780074676916233 5.78973581575706 -0.4540015395651213 0.46138446229275376 1.7157711872971222
P 4.507828912777727 1.2504062441820176 12.674154979108394 0.5678255620668285 -1.2746264490900114 -0.006959462036968659
P 4.073442659543394 6.130655270386897 8.209062830274652 -0.7180286374182021 -0.31213269511105596 0.5640426979856286
P 4.605673989511166 0.8082182190888707 3.715863707589011 -0.06945578079897716 0.5350985041474526 0.3778200100065364
P 0.08837491624162329 5.613012178872275 3.8872967368812215 -0.549047510128377 0.9880044966555499 -1.2615145942984016
Ni 1.384256719351523 1.3524787485291232 2.2808281755660498 -0.6019860099986213 -1.126741480348853 1.2989364865902853
Ni 1.8750267400313991 6.355630296339907 4.846838798609425 -0.25970635899053984 -0.1412453519374535 -0.04533163405726386
Ni 5.925968283793497 5.703874773671171 9.346541656085325 1.1456100351185818 -0.4512129210763907 -0.8141143620998817
Ni 8.721138002171616 2.215352728861625 10.165931846269459 -0.239404157098078 0.2229598954991257 0.658810218076517
Ni 2.181262319002689 5.285892384852266 7.117961956594011 0.024514183091280364 -0.3927856301774332 -0.18186543945166098
Ni 0.8329992552327512 9.175053525706696 9.135116980908515 -0.9158925091806485 -0.049151779134302444 -1.0219433154948399
Ni 1.7735052465484682 1.0510487069306351 11.209028834122506 -0.6496596619255005 1.3362437076811762 1.1794930610192718
Ni 4.119221726094821 6.838324846321879 1.5156159027777603 0.25796032283371056 1.0688014134989592 -0.5563743828070934
Ni 5.4869300535911325 7.9340234991806335 8.071726533916868 0.8485702297849063 -0.5297734923901134 -0.18585810555082183
Ni 5.079001354802169 2.77628178859141 4.88946174719458 -0.08279594955130902 -0.5892240823472626 -0.6005729317011785
Ni 0.6642318539080476 7.474173317649442 6.847401169540284 0.8269583079420856 -0.8158539704988077 0.5239075205276397
Ni 5.317905212764314 4.642636882235799 6.983798940835974 -0.5039560171063773 -0.1271348806780004 0.7573153508329666
Ni 8.29553179090413 7.265015013387741 9.282818604588273 0.2073936656297525 -0.22898090488222497 -0.5469705729946903
Ni 4.424834030482045 0.3430268453611804 10.573458578116526 0.8559639511458162 -0.2224060798781847 -0.37297399476814475
Ni 7.845961123527542 7.413914408224704 4.482199681221617 2.5270395953077767 0.8748816139859256 0.2662770702295221
Ni 7.353068356075846 6.200967869841576 7.151648592918052 -0.3025663915788595 0.534497380228344 -0.12222793029468627
Ni 2.5552090035125548 5.496125611947359 2.510735200401672 -1.318410021933865 -1.152542243462041 0.6796850046429972
Ni 2.2267613636395365 5.225118596423299 11.514016057332666 0.0290884327255241 -0.8862651732325187 -1.204572372585403
Ni 1.0243020976056987 3.6141976866662966 3.693838629062502 0.09304308120061396 -0.41038251732359005 0.6321892730548789
Ni 3.7596916537033613 2.4960701817461386 2.611555735801653 -0.22263490805953914 0.5065973113839661 -0.718940093488878
Ni 1.0677235602956578 3.195853979247933 8.135185822836313 -0.07179162802100539 0.5848511500905476 -0.027374278247894793
Ni 3.6253985632495187 2.819414196401802 7.1745995503556745 0.5927274675148307 0.03607643400758302 -1.1777094867562878
Ni 3.9748568796810657 6.722486103335394 6.10745409981915 1.0556651332273175 0.8610657911487558 -0.08134173360328571
Ni 0.7010619620473799 7.40755520087423 11.329151009105574 0.8285829880297021 -0.382517929702838 -0.4739962375194934
P 0.10483388174346943 5.386655109276334 8.119241736338696 0.7711134330583236 1.2181398268571924 0.3117593709320373
P 8.566087158178865 1.6600421733534243 7.937418087422548 -0.3497520481257267 -0.5442218066049594 0.39747172279919285
P 1.8639884568179335 3.1181975792592547 10.384562117615975 -1.0041086013062643 1.170877551436119 0.4442400893029833
P 4.1639078038828865 6.14244328969424 3.8986665299096908 0.11114004791164085 -0.332899238234446 0.19539098474192157
P 6.899803206019792 3.8242231555666995 10.398536114450042 0.39270129799374304 0.3277169227025582 0.1742331197173838
P 6.49644518751398 7.882544631722744 10.310221719073827 -1.089709624406536 -0.5014610185986654 -0.5258983257054233
P 2.444266127548736 8.331907540904643 5.795235084840822 -1.542938033251059 -0.003624741236780854 0.02651398713012853
P 6.873589541629056 4.055873542644711 1.6603429710874738 0.7698145117412419 -0.17938021113596203 0.017788948552304847
Ni 5.358860676012967 2.845654959687496 0.7423651944480117 -0.32426984469422215 0.1647704316425872 -0.9365605790529612
Ni 1.7186661161156114 1.0990227839737747 6.874358246949405 -0.20420781170260316 -0.04627034382144934 -0.1576371630319156
Ni 6.857068248668804 0.682834342001183 9.13596336972775 -0.06744800634032899 0.1810905089588494 0.5701788927903535
Ni 3.0617415480938197 1.822120664105647 9.171579447372899 -0.5730662416404776 -1.4559121047788022 -0.16740786926543427
Ni 6.311179075641491 1.7342841125772173 2.6381686572447896 0.41526144268244614 0.9029734871261352 0.4462825736543088
Ni 4.182669272159783 6.835181374506588 10.416807092728174 -0.8019355606455028 0.7680921297334965 -0.16014218884195647
Ni 8.40386413998686 7.112845685225675 0.4133421547053552 -1.2906423649022933 -0.40718535054253097 0.39166077254437065
Ni 7.503557552750428 3.8344665378613563 8.227267867908383 0.6885170011123304 0.0909399188146821 -0.1424098045591999
Ni 3.0944589472748127 8.367425159231441 12.463616437796759 0.8220156192248294 -0.1838323333700447 0.5408024965107654
Ni 0.01543914375487372 4.7635882834046255 10.337178796482949 0.0987982385168363 -0.6114407276536179 -0.9157752668764939
Ni 8.641331756516157 2.1846948456975475 5.662341200663384 0.6221426874521543 0.4712150752299304 0.28647051445826144
Ni 3.8321540988248195 2.7448019056135635 11.397594688104553 -0.8928849925418816 0.6391438499958412 -0.24896454709300347
Ni 0.9560309482379621 3.3635058093968078 12.488470640957031 0.42607241725502104 -0.4370805954400666 0.2101437175710639
Ni 3.116526480736758 8.338745495399401 8.204396400562642 -0.3756589977994756 -0.18023921670214765 -0.5849604219749022
Ni 5.700369983256421 7.764863163879018 3.5203831189098214 -1.4679073294674654 1.2549564814649097 -0.3120679033113916
Ni 3.077973786174506 7.966596370921843 3.4914830507321106 0.24604248835020204 1.583373515558286 0.3699514058917371
Ni 3.328277245949576 4.257489321142711 9.144675664457198 0.22319412299711883 0.5785748301635326 0.668015795835185
Ni 7.2560814110161225 6.020290504182212 11.44989555537621 -0.35047607077594484 0.6549054837054722 -0.1910987851244709
Ni 0.7835076400718847 -0.016187976552252046 0.030453738155383374 0.006877700956439768 0.30668349907102666 0.8893111591476942
Ni 4.492951619445011 0.22945898977229356 1.4522758489961374 -0.04318553424853853 0.2658620941792905 0.051756820857317316
Ni 5.829460085878057 5.619823034472072 0.5317860047939382 1.1095929935940245 -0.2465739353736399 -0.8827882704275118
Ni 7.87733261092555 8.634719626146062 11.873776470331281 -0.8438890222591531 0.5023020264427219 -1.217165378759065
Ni 0.05221234421479118 4.792240848341707 5.95232376573452 -0.4222160196234083 -0.9116157361821655 -0.4553367134367771
Ni 8.006034296052768 -0.2571603834962997 2.1808666751362815 0.610603062243671 0.2455120697680288 1.4399368123964684
P 8.389194604848832 1.4039305170920537 3.608763454930436 0.6735405823081562 0.346185670930707 -0.8341252580041699
P 1.856554326634069 3.5242022565061006 1.6637664648173458 0.08969010556798102 -0.5756815677761375 -0.6867557954468495
P 4.691947838096936 0.9743678671604953 7.983386846238692 0.7403748663238862 0.8551465974508433 1.3996640809193506
P 8.500995612486365 1.5300487742331415 12.496905623661396 0.246380331305595 1.5478236434781343 -0.847283906873315
P 6.290014838678192 7.80464434167943 1.2495923740367367 0.16303570833966757 -0.6663767175698653 0.07572027365145023
P 1.8994518773548126 3.2193758200727003 5.908761388790772 -0.9795131713550872 -0.1911005848966838 -0.19840020388189056
P 6.813773247488655 3.6818545944149537 5.821755870041097 0.7237498561726955 0.8532452666630724 0.31355271538703416
P 2.4365790743452505 8.349061141413948 10.282299921004153 0.3459735549199009 -1.52296570389419 -0.0638003822854127
