# total energy = -340866.5641985159 ev
CRYSTAL
PRIMVEC
9.25984119739960 0.00000000000000 0.00000000000000
0.00000000000000 9.25984119739960 0.00000000000000
0.00000000000000 0.00000000000000 13.55271359148764
PRIMCOORD
 96 1
Ni 8.857093712487627 7.236565935089879 10.967804150110954 2.8699656216506053 0.3246719652286473 -0.45272421551459446
Ni 1.6009617328413237 8.093897596850892 5.675375220407495 -0.21569498640659626 0.9934734901899214 1.6343991146765333
Ni 7.704169398417031 4.516987600000747 3.80165838172583 0.31090370779996135 0.7229402157872066 0.7388386321850179
Ni 4.2234321127656616 8.132612993107593 9.319591299350787 -0.1445564185885575 0.0228031139374446 -0.7954193567935399
Ni 1.5534402275580463 1.005340964264502 6.95656685544145 -0.3594764745023422 0.869374053904135 -0.10246951672083641
Ni 0.9401239023568397 4.600196533452721 4.290978950731248 -0.6387517567637451 -1.1764571024064256 -0.8715497213992152
Ni 1.7894180219148352 7.684501495606883 9.49115486003609 1.175410406309466 -0.2216090378981861 0.3781647949404649
Ni 6.787306217274454 6.822243598302085 1.9516587744319387 -0.9945461544288097 0.3322009266158408 2.5798066025971638
Ni 6.907193381908629 6.619758649738284 11.372272163842931 -3.127371614642743 -1.0557759477735689 1.7794777243171482
Ni 0.01992625238095958 0.17312569590379323 4.252922855171386 -0.07699271260597063 0.5193268431354927 0.1369778349103512
Ni 4.403295269161292 1.9878286403296412 3.624822267434076 0.8038705728846866 -0.7043506257104774 0.3899682153332961
Ni 8.483968409410918 2.3032466127505837 10.488065664828673 1.3856078599366006 0.6683526103493134 1.6036381793445929
Ni 2.7104018324126464 4.260360359661552 9.56686054412504 2.0448374249387236 -0.2669126469309919 -2.8363944705633797
Ni 8.821304426065204 5.886221805617983 1.985810920921764 1.301640772895326 0.15965753589605408 -0.8008068463576983
Ni 2.986808093656962 3.9881302868199553 5.565285893797527 -0.7074665456316396 -1.467050637894125 -2.3576460630708818
Ni -0.05172917714623942 7.014366784509691 4.113654842805741 0.7890931574651959 -0.3293266903918393 -2.9122355860634106
Ni 5.745203683256519 5.706664223983526 5.878665775159847 -0.08690122996893421 0.18698836250052311 -0.9358152162465045
Ni 8.457809357886122 4.661987454098728 11.65701413417844 0.18474636054388183 1.1036745712270606 0.7329176387148927
Ni 2.150801846289439 4.787976854115149 1.3062941386723876 -1.5528041274118614 -1.2206039721269688 2.463238698801732
Ni 2.6422031016232195 8.286678231787086 3.6805915133166947 -2.572546835710957 0.6687269629695967 -1.1646871063546909
Ni 3.654016694919875 2.2125001685229693 6.779338123880794 0.770078564035906 -1.0314520263162237 0.52127291111827
Ni 7.714040389187096 1.0250644261221364 8.709014035190656 1.1873318403374005 -0.09328656466998773 -0.18764476513759942
Ni 3.6792868016848916 2.109021442579745 11.363028990309461 -1.4044087946931878 -1.0271271736886247 -2.679658222079179
Ni 6.1526089186322706 4.628022356402107 2.078714908160096 -0.7225154695449622 -0.19114377942979338 0.03950911383821583
P 5.591221783148254 5.929956035830945 3.7085099346785575 -0.033760127169580566 0.6154771025065207 0.46577796337475913
P 5.85238634569883 0.109055928326723 12.253062707420906 -0.04969351057038539 0.2027880485369411 1.1664457409170104
P 3.0093187677301594 6.535994125811447 13.205100321527057 0.6013774298803448 -0.36517686732122917 0.7663931447645188
P 7.469543540882409 2.9938826123702174 12.534701704954308 -0.02866857157928611 -0.850485187419432 -0.030693315318798754
P 0.6266032714075541 2.8242052813470733 5.687179666030083 0.041421500369580276 0.5724746308030657 0.9347232687339063
P 9.686256937173088 -0.12348831689541281 10.330813188791714 -1.2959977156769358 -0.3061492238341115 -0.1250648855228491
P 8.717242330123375 7.150051238312471 5.993091485426121 1.0273310621693146 -0.3193032447175662 4.164089003122965
P 0.29919195260257014 5.4345730487606465 9.869275847465941 1.4695374088717208 -0.5357459079234644 -0.2000796484668425
Ni 4.109906459068666 4.547211721833291 11.541287416216862 1.3107890150534973 -0.8824082613802738 1.0346967585057665
Ni 8.5955309767634 8.580178159974686 2.0515011607171845 -0.7450912979629489 0.13469546663407772 -0.11113799102911183
Ni 3.6089027483610034 5.172288045419096 7.193577122097358 1.8390018478247103 1.1320304966619343 3.221582748009529
Ni 1.2765524545688494 3.89681899227623 7.704202733845523 0.5696063081163352 -1.9706893808703996 -0.8694923246495542
Ni 2.0959187672142274 1.9326585061757506 4.432401728155238 -0.020669355423893435 -0.6261093854093863 -0.48160387466342214
Ni 3.3196993865123448 0.6193944849962074 13.207010626776462 0.4479077679625576 -0.3570046159230819 1.1312195707248647
Ni 0.6195806078052865 2.944314682171195 13.194799674123098 0.1076639164375823 -0.35285382697950196 1.3082935023251534
Ni 5.630835384005982 0.4720333713800585 1.6013886115228435 0.2679524010494159 0.6879747554556152 0.21870574820846203
Ni 5.879036168809756 1.1143385555913643 5.580261835047458 0.7816971221114408 0.50857217572215 -1.0833003784460826
Ni 6.976651451107745 7.728874654865937 5.030319863345617 -0.45857476075810055 0.608583717820797 -1.5688614379850399
Ni 7.874346760867551 1.694486129443253 0.8526146986294264 0.26728365711716545 -1.9427211777922477 -0.7876109164927146
Ni 5.7200169150627325 3.9281635548997484 7.795683483484082 -0.5377611385812804 -0.26122922339296945 1.0884312719147449
Ni 7.527676824235568 6.025702794332325 9.185853264178279 -0.09319966138313626 0.7814325555961444 0.10869827123936765
Ni 1.361752253889082 3.7456243043835267 11.116572759596759 -0.5735874042512702 -0.20843984750607972 1.1259791482615318
Ni 4.003455324084925 4.33751335693752 3.344538910659342 -0.3261943154104447 -0.22714693699727978 0.08995621474517411
Ni 3.112927131450851 1.1663510838797837 9.071372920848642 -1.6938412199932507 -1.0335798712925037 -0.04684344271609998
Ni 5.344761848499051 2.417401935652424 12.674321591287367 1.463681464311576 0.234273520739732 3.2145371540166567
Ni 6.558088107028497 4.2331549460757625 10.333632810451643 -1.7670569820552922 -0.2679829971770352 0.20652180454776045
Ni 6.380928824277198 8.677591689900655 10.349340279160144 0.26501465857733064 -0.5156607071378151 -1.4331755824132348
Ni 8.1789955379174 3.754837846425004 8.562875220619205 0.11871220383194393 -0.723514857343754 -0.12586192750284778
Ni 4.82182157387555 8.281372342752146 3.5345610388878423 3.0370839847000792 0.3091283610670934 0.5623907642045024
Ni 6.090512423225089 4.907678821924371 13.088804123328746 2.667674310244425 -1.41526244957824 -1.3813166887604147
Ni 5.095310985126836 6.722848462349103 0.2704253297824163 -0.33747554475121877 0.9127699043912668 -0.10712372766339616
Ni 4.414851551038441 7.138143082467908 11.528304192803441 1.9183527762502124 1.1522537656873446 0.548107771922927
P 4.403915678524889 5.782891237134723 9.748765495515794 0.6027786811032457 0.08703209911984366 -1.2467297226797434
P 7.13436506723884 9.475688147200032 3.4856088881317926 -0.5142651123418691 -0.732684439658164 0.3237687366880876
P 5.428350435442181 2.749876535651659 1.51694163729605 0.09535630271482287 -1.123974202016361 0.4416556164052587
P 3.262001315697827 8.981712655999386 11.210737011228904 -0.1755965757238137 0.7363287212789706 -1.6768793953279315
P 0.6731571232804451 1.8127343021765836 8.86583315065722 0.40874318194795417 0.8453977455941957 -0.6957014346759115
P 7.096307119710728 2.4064382836151283 6.933758014480076 -0.21875537049947488 -0.1855230908089063 -0.05586878614316185
P 4.4375103825716025 2.6918821499172148 9.45633785694468 1.8557245598960297 1.5099263542117285 -1.3021789047869832
P 3.5662426597327768 8.991592906610698 1.7669082738257629 -0.5542203125785681 0.17781980862737762 0.09255534293091802
Ni 1.3820035266978363 7.5907919021799986 1.3112805631842825 1.2436657390424388 0.3992547828415447 -0.7727088025699015
Ni 6.211918201823891 1.8244665210374396 10.641970708254583 -0.46026037599063957 -0.294739439335273 -0.8482994926220229
Ni 1.7837787785949764 5.823041908784818 6.103057656147494 -2.357115130268076 0.41803566299347356 0.49553282603968857
Ni 0.039182092255584534 8.281900153703265 8.31927935486792 -1.2285926467594002 -0.5607054060822795 -0.09906511902497778
Ni 2.5102318441607743 6.07327985866309 10.991467674419491 -2.5822398946290046 -0.2659227722138969 0.21710677915245835
Ni 7.677325118639903 4.499986531469941 6.289435110860893 0.8426556640726842 -0.9265823847943269 -0.21959766389511212
Ni 8.080415267994217 3.9196074615868586 1.0710395379170454 1.0375247148728648 0.43266575420182257 -0.22665637051410642
Ni 6.951307265612747 8.141770976101583 0.29350270613997353 0.5103997158491919 2.391406447350778 -2.9517303017239227
Ni 5.347984273253256 3.413149704384292 5.415108862457947 0.849921087385846 0.29140600408666584 -0.4273865080807543
Ni 1.5900351201690193 8.030634361446499 12.296187640079768 -0.20273739780466374 0.31285388954779664 0.668777613701874
Ni 7.024219255597261 2.299885290377663 3.144757835739874 -0.7223370349855688 0.368995469736371 -0.22214202758352067
Ni 5.690533580530005 6.620999468465477 7.933975508582217 -2.043020683444959 -1.8042310200024283 1.4319211411808435
Ni 5.544867017862189 0.9752187006856824 8.159194293393284 -1.3222602489178905 0.37760763688541416 -0.12924344238057095
Ni 3.2636403075986733 2.287958614850605 1.5547541990310971 -0.9595742663393151 -0.4269134250990777 -0.12371325659096111
Ni 3.750865374529734 6.492583990042155 2.138821463683144 -0.6582250349970084 0.3383607755696495 0.4134979230241202
Ni 4.194022856962916 4.3539958743584535 0.6346074781820796 0.49193456716546896 0.1816687500598226 -0.3387708665238746
Ni 8.106861374597694 0.26924099608683344 11.999206937567152 0.7928659942440668 0.19198992948017257 0.4046522997080321
Ni 3.6679157166326966 6.4228944248118465 4.944910791613186 0.5360534118615542 0.2654864560074266 -0.9716432816887073
Ni 8.620004737181112 0.15459767955123874 6.541786156511893 -1.5614656597416012 0.44240766407993487 -1.2531474532806288
Ni 1.1273208530206618 5.616473370230775 13.106978413745637 -2.6497899737648365 0.5133623980219417 -1.4529797616233557
Ni 0.022610680358672385 5.7529171310158675 7.711412446240994 0.1276832969823027 1.5066726231611212 -0.6575519201893837
Ni 1.4782132772616035 1.1277560655593044 11.62146560362846 -0.489695393422305 0.9149034057945017 0.4687571006077411
Ni 5.295897666234855 8.380517462991438 6.468900094082873 -1.5593455280748048 -0.6512300917364139 0.35568152623628424
Ni 1.270005746806714 0.7906839543805786 2.263546895369252 0.6564859408187146 0.7561760950222008 -0.5262742209876033
P 1.5990079063380558 6.1998155893131255 2.96979220938016 1.360621108084276 -0.06858109150350769 0.40355495287879534
P 0.4990545141250179 0.2880653273593149 0.26341840791026977 -0.83107824364773 -0.14768030892951986 -0.8018712830664706
P 7.95575002527622 6.267921721690075 13.364669609844196 0.35427101904200275 -0.8996778470939989 0.3104349956936589
P 3.651081325244349 0.4001760773136593 5.296874579486489 -0.07129900465530302 0.49623859385746144 -0.025962999722664963
P 3.3153287414434227 7.399909534699585 6.9842556327403695 -0.09309707436700096 -0.3037485848124188 0.6653649884758992
P 2.8810792262905434 3.1265946571324794 12.97803790232357 -1.677048059695312 0.010238389898556561 0.7029938545722667
P 0.7161903835109548 3.0848235132640336 2.268588878928633 -0.0650116289846945 0.24297130562404606 -0.398517647565204
P 6.97578102603046 8.208580730703853 8.106582653376138 0.7703737266788216 1.7049021057931026 0.12282314067652396
