# total energy = -381176.7249531968 ev
CRYSTAL
PRIMVEC
9.16907307535023 0.00000000000000 0.00000000000000
0.00000000000000 9.16907307535023 0.00000000000000
0.00000000000000 0.00000000000000 13.41986526988519
PRIMCOORD
 96 1
Ni 7.569005634699147 4.155524774537924 4.546958922191813 0.300173980087283 -0.5012388752855303 0.922713902977856
Ni 6.727431432161722 0.3908931723428347 6.253737862379313 -1.7924605097300614 1.2373539378917982 -1.2767039004443304
Ni 3.0561529136009726 2.59443507015359 7.796069477079704 0.8062604132731017 0.46815597668863246 1.1277560376562965
Ni 8.81963052497735 6.611873604276915 1.7063223203486784 -0.7825550992363619 -0.24492817224010077 -1.3406400369766587
Ni 1.596133901652901 5.863090421194719 6.512862285651881 -0.8223714599023514 -0.4893277256702412 0.21879753659131995
Ni 4.258777706364539 1.1532585033616938 2.1361877208627096 -0.3017276977276481 -0.30679842738233615 -0.6840687355329896
Ni 2.978518371928302 5.444072951028265 11.445266116969107 0.5450995812242225 -0.6485965107683088 0.29357061583815247
Ni 7.278804472074839 3.4162407511549007 0.23212333689986483 0.1243334066734633 1.281100486850129 0.9477322793990646
Ni 7.361445327643019 7.272193570392307 12.145742955496173 0.5819398899810235 0.6012501602738612 0.9871444626480999
Ni 1.0153189681161932 3.501724019374377 7.962583511636496 -0.2209060982938905 0.8854339355804751 -0.0785438591431744
Ni 5.239070815358304 4.2377163455257385 10.726163223410289 -0.31903739265068926 0.21613181683369873 -1.6676244523885666
Ni 8.348771115680476 2.1428307143009815 7.121788680309911 -1.6539346136062998 0.351326334591382 0.39973120825733094
Ni 2.415619807167831 8.93390468263254 6.365551957730171 -0.2638697463396101 -0.3594111684820455 -0.7416611892354775
Ni 7.730060403150836 0.7357786867488608 12.644210443802898 -0.10236101616743015 0.03631991747695681 -0.8540718763294259
Ni 3.0121413628712195 0.2897307891758839 8.554385745431427 -0.3400895853352982 0.2447098855817076 0.9976972984632818
Ni 8.95912880264453 8.961778664761384 2.733103546708052 1.32467837144108 -0.016693658605597055 1.40913191120047
Ni 6.079141289912462 1.5208374736127488 0.6271545119186032 -0.805403207479129 0.16958533653272728 -0.28387652847884015
Ni 1.135397149023869 3.7760351783706305 10.176807379572285 -0.5996578760860769 1.245725706895261 -0.05565178503634932
Ni 4.550262539218465 1.041359135631297 6.932796663125204 1.0356820052371711 -1.3470251145673962 0.1783736242483186
Ni 4.741245162166386 6.033873576172297 0.5873763222246684 -0.3226397652899669 -1.0891498952483243 -1.5722694352253244
Ni 7.768634693550852 5.29391104138219 10.58443594408011 -1.4890693082570612 1.1684242047996198 -0.5987060536957689
Ni 6.636501734539439 4.994008999451198 6.86265050342774 0.4636259500287628 -0.6957168612948792 1.5242592258946328
Ni 3.099192542585443 2.5202572690278187 11.05285637994071 -0.6181415367125613 1.1832633266949815 0.2043973020055899
Ni 2.0324900889922635 6.106400944145703 0.3275055364043081 0.5913624688465041 -2.1145256334634808 -0.21799638084626327
P 4.938453585727954 3.80379913162265 8.277117560370517 1.1110688068086025 -0.07909536077127023 -0.24683001724850392
Ni 9.11701107181445 5.3172555014150955 12.550432832085479 -1.1070522294500418 0.06077342253363082 0.9175747819790778
P 4.100657041294832 1.457534193146454 12.906475274601496 -1.344475094452033 -0.08130779504155675 2.1426373040980327
Ni 6.271361737724658 7.497083425548276 1.497669976690068 0.8365726911033978 0.17310466253989543 0.13410925511330452
P 6.4889988560832865 5.133168021414836 1.6579031961948023 -0.08079794528467377 -0.3503403165290289 0.08618800595199351
P 8.073616401961901 8.690190720466534 0.8657796385314822 -0.5457235879614666 -0.9192449705926491 -0.20559569318906531
P 4.670450749002965 8.05911092836722 6.360573151053868 0.09191102447869977 0.6297271846676316 -0.2743886435930629
Ni 3.2024454744120576 5.058375892393462 9.004850385501594 0.17845050023284104 -1.887054737467879 0.38114881726945327
Ni 5.6873101213947 5.625932346272832 5.045023888190823 -0.6604343839435013 1.3291006688784919 -1.1580420902343476
Ni 8.668285804905413 1.8285148895059962 1.0575031225833544 0.8232402356605498 -0.6471677487415822 0.9474617993464973
Ni 5.39676053399378 2.0418792198146107 11.533475350611907 2.500686816345861 1.4576020908867156 -0.8872825587534396
Ni 1.140330110334829 1.4797325190457733 9.67429999767149 0.32511496630333686 0.16577444742706934 -1.2776783485424574
Ni 8.04967595217953 1.6839461144318268 4.769567511968289 -0.2636874551254749 -0.1474370825704622 -1.4448558469646409
Ni 2.4092473013850855 2.5648648095070365 3.0256565765744807 0.44507878315419475 0.7823072448916141 0.3847236791049052
Ni 9.031051011795402 8.556652340294008 6.396981706395055 -0.5444429214768302 0.6144409479325226 -1.2620447557702588
Ni 5.11728718685985 7.105105551861414 11.176493078106349 -0.843314894923238 -0.7726890050755596 0.3932376301131873
Ni 5.433125077784239 7.918659067100897 3.9618125185374518 1.0189088995438902 -0.04314619637017085 0.7817009787661827
Ni 2.80141772560639 7.430891887065341 10.19040144730394 -0.3879912941125834 -0.03859611510564321 -2.009553919146081
Ni 3.3664343462457302 8.81153423345769 4.0017236597908825 0.006833992202697908 0.4160011490619481 -0.6016880191422282
Ni 6.62973495861474 7.360390884240119 6.943814221324552 -0.5826932232072803 -0.5801411462093881 0.1510800786396882
Ni 2.6133050225289716 4.726382094722026 2.1257203070474833 -0.4592201076515833 1.0156685382297217 1.201463394642776
Ni 4.302844271532703 3.979414388107432 12.89093461265736 0.8774961687906372 0.06086983890217904 -1.011734236172322
Ni 5.080317484246858 8.616260484313617 13.08199333891175 0.3322196956689182 0.09880003828904921 0.03679762844432372
Ni 6.325000815176544 5.165800752466334 12.51838600480307 0.5548841714148122 0.3210724208028471 0.24323021571238757
Ni 8.691153473138746 9.095491257322214 10.461254948845985 -1.3648780835884171 -0.9371575892070116 0.24191638199697046
Ni 2.916507930764694 7.687708454646518 12.418501790421896 1.1212768576898562 -0.26772511552995826 0.7369542706781115
Ni 0.4640761290406519 5.3641186338692135 3.689657925526956 0.9521190956128506 -0.45758591448227 0.03693569668408477
Ni 7.344647585781162 3.892729971315956 8.787233439103717 0.18150085702339064 -1.1929931523882358 0.2956429249861489
Ni 6.6394450069944915 2.931921142593176 2.621718563976809 0.9339197989960045 0.31778757940398816 0.39871922205304877
Ni 2.1866130382040168 0.4570122751485266 0.09831263525719926 0.1339148797143113 0.8268649768973309 0.6899552762207537
Ni 6.0314987862475045 2.8157581558858347 6.117458846266553 -0.13260413132268775 0.061690535031261505 0.6340144991890758
Ni 5.075118619816905 8.621422672451295 9.119549988147172 0.09378792978643848 -1.4026745856109002 -1.5196968033349312
P 7.472070194216866 8.698213659401645 4.520843568277545 0.9829713051070169 -1.0949775576736949 -1.1374434401473896
Ni 3.4171759966079076 6.792220102465146 5.10738642176027 0.09666448000328512 -1.052151206536788 -0.01107554108787125
P 2.1416112275828447 0.49267080031269517 2.367263949618129 -0.25264868081281006 -1.1929854390787518 -1.4150187089985502
Ni 3.7804179952974684 0.2897463766001007 10.971048076207168 -0.2361738230862384 -0.1769083525567018 -0.03009527672348365
P 8.865604257343804 4.4441213493752105 6.624797412767245 -1.35444249007739 0.02973480806027137 -0.5865051407542028
P 7.892371334612938 1.7809640765717256 9.65045307243442 0.8352516582991293 1.0049143850370112 0.6290517558671618
P 1.5299607013161038 4.026928524749429 12.156720169774017 0.9549521941862714 -1.1477427651908685 2.4218585931930487
Ni 3.3576870505381917 7.014505940869604 7.759862641346028 0.5583541322412836 0.926264853553908 -0.25751243666301454
Ni 2.729944801035885 2.96733210278449 0.5841268027291217 -2.6850565102766146 -1.8019627927935418 -0.7987260525692695
Ni 1.5062769855796554 0.8658383205991218 4.308085313698772 -2.5972227411910818 -0.26084278658782817 1.1954842942412056
Ni 3.743200727711621 7.7540283601524145 1.517799759705089 -0.6680114249598108 2.1823384793423966 0.29716810338142374
Ni 8.37678263390535 6.273782373014794 5.623474117783114 0.2812941124636446 0.5718758208768022 0.2651645538916337
Ni 0.7595009125921977 8.40925949071468 8.491715131006872 0.7825535565744652 -0.8688865727447552 0.36401832823675373
Ni 5.427385238043234 6.002451162765868 9.028093985730745 0.7832480115383285 -0.12020575765833491 -0.893737313239848
Ni 5.983737084632653 1.6943255051455934 8.837088440100153 -1.871170462137455 1.4676792726170593 -0.16174090078764403
Ni 6.599880456703057 0.49357853854649625 2.6614279856227285 1.0035776685034588 -0.7047972263295925 -0.3199655608919134
Ni 0.6311403079815664 7.662035050054163 13.074826791401255 -1.6792275838451338 1.650389576567519 -0.46006394370911735
Ni 0.9137293061442411 2.83037365835734 5.524206982019463 -0.15733788662394194 1.3094181028478997 -0.5087117866238078
Ni 4.71514998021287 3.661971909396021 4.169552539425727 0.05225741464281968 0.47359128877159085 -0.08715782606443054
Ni 8.312718320374353 6.239444194372518 8.407465103115134 0.7540834741592303 0.2952721719102915 -0.4813310806180097
Ni 7.519804388612512 0.042953439697625086 8.200933566057316 1.04042594768006 -1.1610641648901228 3.0919009325399593
Ni 7.354614368206839 6.3079921846341085 3.5244458993459187 -0.4152943528029106 0.5879866103957357 -0.9803215261889956
Ni 1.7591691898874293 7.029304824802484 2.394936212139461 0.3183704484906517 0.8241061832052711 1.087856116137565
Ni 8.001611671153412 3.343640030596946 11.509883325606147 -0.45443014246210767 -1.8682913408174469 -0.7373790169203559
Ni 4.42193219254896 5.992814466970666 2.898556719510796 0.681106310470556 -0.4133279731051591 0.9996737054633623
Ni 3.9106463400921934 4.682581432672853 6.330861686682057 -0.10877540433420621 -0.6003834413981918 1.0272809256576696
Ni 5.328038331343886 1.5097795714918982 4.257787446473119 -0.19651507104403573 -1.106690732345565 0.8377479423584218
Ni 0.5801327545003966 1.7947360243209107 11.977095277636293 0.8470275678881348 0.4414589270134204 0.7657220868394232
Ni 4.578466607977782 3.521895980125514 1.7872714819356834 0.9351531571824734 0.5995894847419867 0.02384492493839764
Ni 1.1779691552818363 7.549548861647368 4.599779201418664 -0.5077159983694417 0.07859656675798077 0.1386703921214257
Ni 0.32004832927753557 6.72435062361064 10.766570411516735 1.5603752548908996 1.3863614502731736 -1.4091676495344119
Ni -0.012356242867378126 3.0966343711992765 3.064963475912685 -0.1472005410796239 -0.8154089125415892 0.5750938135934677
P 2.7328513971986625 4.439894406690541 4.4321786317032315 -0.976159681501822 0.44144787126982676 0.04934049810634083
Ni 6.309991042563085 0.04713453701695161 10.962218258842011 0.22410223663368503 -0.08447539413626097 -0.7363726871430286
P 1.4516018028710063 8.950830791517358 11.277826922939683 1.1616112956428446 -0.24145718297236482 0.47638324969443124
Ni 3.1299822899501333 2.0374505575224293 5.52455632370338 0.593011831524469 0.874396446819391 -1.4556344256373832
P 7.0199248630532045 7.332113462896252 9.940053660772728 0.1602224072605886 0.2981361237216478 -0.42974703789313085
P 1.0736984563445966 1.3076932010577829 7.295589377234398 1.803316992828591 -1.0386714268827981 0.2641294277588999
P 1.473506718432127 6.187409704707655 8.797888818916853 -1.5573362109542597 0.487877880597592 0.14990816981877408
Ni 0.5462594478627036 4.1478135840871495 1.1249875003689755 -0.08581416755234253 0.017195795052996194 -0.538182285279099
