# total energy = -381162.9804637502 ev
CRYSTAL
PRIMVEC
9.33220011399294 0.00000000000000 0.00000000000000

0.00000000000000 9.33220011399294 0.00000000000000

0.00000000000000 0.00000000000000 13.65861818007371

PRIMCOORD
 96 1
Ni 1.8438933812542357 3.8106358417397383 11.794707994226401 0.4311536884326704 -0.07466535002437465 -0.11162135842343357
Ni 5.337682372639979 4.29060954601067 0.15321792408346976 1.1527533310315825 0.8290056773894173 0.06501008632279771
Ni 6.580516756169493 5.198193981021189 7.154848333435513 -0.7791566150777742 -2.0938439367444133 1.7346366567430578
Ni 7.483808379234827 -0.02539664875569518 8.204144090076435 0.7251958445906026 -2.2973259260245853 0.1950675399642318
Ni 5.403073097204966 2.53945956717214 4.07193463874306 0.12404775711224443 -0.2595785751634239 -1.1447564288690348
Ni 5.9075158295634385 9.2275859201675 9.910474312547295 -0.010557978021504396 -1.7118001184645162 -1.328949488012608
Ni 8.355314529506051 2.9620962353752427 10.94862555609053 -0.9071278756141409 -1.2990398449373692 0.7528148918594518
Ni 1.5090353851302354 4.1985007331868625 1.3850935052929223 -0.012024792375018 -0.26762407117571974 2.375628358580915
Ni 3.212740459774618 7.204560962200703 13.361693540956638 1.0299965248166196 -0.8633792697732809 0.5407379618214171
Ni 2.06074570988512 7.666262219104967 11.48285480402864 -0.10660873570019058 0.6183066015355158 -0.9191557533129524
Ni 7.60773066145239 9.141561701665996 12.043390590210826 -0.34266274537911307 0.1599105324471246 -0.3898129207023545
Ni 1.2568793443501647 5.716047084608417 13.50346925476622 0.16524685705837347 0.56416945337148 -1.477174099481372
Ni 4.980623072999481 3.4359106877248258 11.269821211588992 -0.25368843493123405 -0.1817001175183903 0.479478086569671
Ni 4.679118359249572 8.734192512467933 1.049990072312056 0.9393401986806275 0.3686673969729909 -1.6531715101880304
Ni 7.311489308435271 1.972621746410427 13.21943908529317 -1.3760718954217075 0.48100197941336514 -1.165309056209406
Ni 3.9862211824975855 6.212632104667229 2.0068606545532104 0.13353229956391197 -0.4622740639865587 -0.8336907415699126
Ni 4.324550756977255 4.4926330090309134 5.903186622038721 0.2245807189320003 -0.43099736536046424 0.39325125695994206
Ni 3.441435350054278 9.05732926554161 9.676775496691533 2.785886434511499 -0.29427201278055126 -0.5413100322748032
Ni 4.838307024816799 2.0277843799060227 13.260715405366087 0.42737750921968976 -0.3837068078046166 1.664235481311676
Ni 1.0376846335491916 1.6258465310386048 6.590023468188095 0.20745434366435883 1.574053780819257 1.0518290473106786
Ni 9.188670646664434 8.620526317919404 9.93641222889608 0.7193429853542516 0.8448781256452997 0.9496834895881645
Ni 1.6418325894344692 1.049023256404402 1.9146921156501646 1.9521221593911733 -0.7311919142730375 1.3032813938225425
Ni 3.500722815897201 1.509268690127256 11.538022103624177 -0.9581938410520207 0.29115609285938887 -1.499313868803205
Ni 4.772412361458246 7.580014027806321 5.856241923758185 0.41039048774339 -3.1415507343566023 0.0386526793751915
P 3.537687659625175 1.5462428660551109 7.633815093339303 -0.5229888653681122 -0.024347318496112907 -0.17100895635313132
Ni 2.047381999655769 7.400033220904602 8.980349815164605 -0.41928264802669724 -0.3019565259090025 -0.8423165355657106
P 8.765371392269792 9.244253229154667 5.15926937531824 1.4550389581452297 0.2667175002010503 -0.6413064048647987
Ni 2.885852162348848 5.097228910510471 10.059572070383378 -0.3863267619259669 -0.4243670045281401 -1.2633259364755276
P 6.611415669974925 7.5036206395818335 7.269361891733221 0.3726716330363775 -0.1621615332648304 0.11883201723925987
P 6.320279030292622 1.5111537945031839 11.009488297273338 0.6261063000855928 2.503879612251546 2.0189348461403487
P 1.7185339402550244 2.799389330452943 3.17889350402683 0.8313929466746715 0.06876595382080414 0.8163213970535297
Ni 2.88598281314718 4.995787897805831 3.762102803039485 1.5963185057547282 -0.2507764034907617 -2.0828617267012968
Ni 5.132709934457393 9.047101174472218 12.14354935865184 -0.30312020719980054 -0.13974691301505607 1.072403786138237
Ni 1.4259974705905953 4.149012077218813 5.052062929527223 -0.5077990450015513 -1.3541753524589322 1.294394375745558
Ni 9.29244470933928 2.367635102966268 4.839098395366693 -1.3511743608490794 -0.5964200858750697 -0.3575260356441907
Ni 2.9330450971462136 8.772529189578389 7.103013562417421 0.39084341884939783 -0.3056848826031832 -1.283127544582487
Ni 3.147396396209035 2.543584399519468 5.015853993989595 -0.44121184399962077 -0.9166941791463373 -0.803599578611487
Ni 6.685448011629563 0.010831884401681265 5.407009419114702 -1.1910691958926456 -1.6261790407595862 -1.2018488030066528
Ni 1.3423063020592974 0.4284058341694327 8.309971236725065 -0.9910006031693966 -1.426841412665091 1.4359400325322496
Ni 6.838272116878062 4.902960505591199 11.270695638717825 0.36325188238437445 -1.1721659312302393 0.42252635177497555
Ni 3.522009563825378 2.5395995501703523 9.583719465579822 0.5826405155924741 0.7672238681959302 -1.4738658610437456
Ni 2.7709354530162877 7.938202523632399 3.7292123977794827 -0.03484924646870127 0.28212560722600444 1.212088735567106
Ni 7.637089762277486 7.00692363312445 10.662859597439644 0.18959828931954445 0.6411104868039087 1.3968402383173104
Ni 8.487747778014931 6.96169979250194 8.507147555127204 -0.6629466088423936 -0.7002947104735487 -1.07286581337632
Ni 7.256802617133598 3.906244229518858 5.025784387882789 -0.43093000245763846 -1.2600007287570363 -0.3694158451032412
Ni 7.076084566441294 6.301679955930124 5.403663825457422 -0.6580275742742215 1.4397632629330817 -1.4321682241946432
Ni 4.115677459244482 0.801182424849228 2.7058816208669985 -1.3815997672184723 0.0013061204059332345 1.9176727194640522
Ni 6.2778268530347185 3.0324143614773083 9.263001618715258 0.31138064743637983 0.15203807167758332 -0.5019037625630388
Ni 6.199800329831085 4.533844003704666 2.908834570995372 -0.7888496739958221 0.6066425349340262 0.2671695001368044
Ni 0.6898968744902991 7.543105177277631 6.8273693077572855 -0.1293041204151773 1.1715799768197823 -0.5039758146007192
Ni 1.287115671964059 2.6527991347248396 9.06148209448858 -0.23290800785077306 1.2416602785766357 1.3358433869189639
Ni 2.629729936619424 6.1902161605534705 6.985632219096334 0.25654518765373885 -1.0963361285841182 -0.05091529879262844
Ni 6.162779492903827 6.008200934077731 9.271592841925552 -0.37114285509667694 -0.5605416268109057 0.7854007962152733
Ni 8.554538332562043 1.778801287085435 8.915703800150109 -0.4184655514420406 0.6821684331864832 -0.09381132682520618
Ni 5.259655849436346 0.12309451608813338 7.556453022767185 -0.16165991103806351 0.5711674819558679 -0.31712114946458286
Ni 7.604539049093146 1.5054798169756383 6.634564191779328 1.1986557499906518 1.7245561325786043 -0.5933769281733716
P 8.387883907090153 5.382187633871665 12.890060956939193 -0.47472411682445337 0.974446298355141 -0.9256678433998574
Ni 2.977848988774086 0.29944509723620855 13.212472598082128 -1.4944184883841165 -1.3344709320514696 1.7416758229780263
P 0.9811128378715903 5.002115129325035 8.197888716496314 0.8641089488504538 0.3582071208716153 0.18220893883400877
Ni 2.5582079567327307 8.23636630982497 1.5640347051279164 -1.7913497931643858 0.21716848562832924 -0.1825822630130275
P 5.851755935275469 1.3520491187348858 1.650808299279853 0.2543283825080781 0.6469466338697116 -0.3209772899858795
P 5.048309518735151 7.3458971293958975 10.801494092769339 1.5774962308419027 1.6507479883482021 -1.6993878608430926
P 8.826786599685544 5.618030989260042 4.181886617739018 -0.6318542583129634 0.036062550050512086 -1.997755640959572
Ni 1.4081916332179687 6.412117209319886 4.793109314353954 -0.8996886457272764 1.4361714318167653 0.4856687887614152
Ni 0.31756542974481927 1.2078386339763945 11.97326750708627 0.9169610596544788 -0.6647183560308358 0.544548593816759
Ni 7.6864944284466095 0.23022630428010424 0.9351648185383277 -2.0391804837632623 -1.6408726382160193 0.5410920027267262
Ni 6.251491384971012 6.576979852414657 12.808327683942894 0.5845014800606126 0.8757403624417951 0.5336232051535068
Ni 1.5729889509135744 0.5844000877174498 4.7368361490725395 0.7837774016792372 -1.1345890014177298 -1.5644715364474606
Ni 0.701656379560135 6.088411192053479 10.223721733407254 -0.26817094481812526 -0.1250602575371588 1.3325228071861632
Ni 9.064841686445678 3.3476654056516817 13.068060537806211 1.7889249857729772 1.2064477352312448 0.893463747863487
Ni 8.984892730066594 4.976983515045956 6.181972095178744 0.6837465763068805 0.6063496862839557 3.2367879949950575
Ni 4.361179641509519 0.17832527464285916 5.170060198040445 -1.7237405786558444 2.9865360965491985 -1.4528267809852593
Ni 4.346388104698401 4.4929409716269815 8.2618385493997 1.1473285604715853 0.5948758813164013 0.7578223723763723
Ni 5.151588974816316 2.2064400144246634 6.302345341781628 0.7053279020220821 0.2800216735091242 1.1887901700504817
Ni 6.3451680073748 7.386258893880495 1.4380201436970708 0.6653770726607573 -1.3317663886361129 0.07538551601985082
Ni 4.6230131735660125 7.262243289664123 8.1309339152313 -1.1981034770316075 -0.6582687437507502 1.377172584685054
Ni 8.720436849843587 7.557019487299952 1.2074093527818763 -0.1801685113652123 -1.335255632736294 0.04268314069082327
Ni 4.151055828992714 5.880779076904856 11.72405204248865 -0.5870877527305502 -2.573353390772652 1.3325842565517179
Ni 5.022636636862985 7.804556089139011 3.433585103514522 0.3772556528626342 0.2972403513802558 0.12095806244332719
Ni 2.509829832550499 3.5268996365629337 7.267873405852228 -0.25040667885616874 0.2101329189377865 -0.8994335922936767
Ni 9.018320670039733 3.533180207082734 2.897129192684845 -1.161256226296271 2.30108590728765 0.48089939239722984
Ni 8.531282490459011 4.5653961715017575 9.470325771267813 -0.9876088038790282 0.024777978275628294 -2.2784900242650052
Ni 7.67639698817555 4.594643285928284 1.0495785222973115 0.09977834304191847 0.08268282101221244 0.2101766276915284
Ni 0.3837671224794508 8.379792889793471 3.225058963617316 -0.4136858706652101 0.5331704338868043 0.6570325573508039
Ni 1.1245954110393765 6.396784404915679 2.215946726443266 0.584604067076748 -0.8665967482693139 1.057277729130076
Ni 3.943498371443138 3.075342480929134 1.8314292950933968 0.33579635727658297 0.45979860586287263 0.578403594692991
Ni 7.579762058409538 1.5947236444360313 3.2828756747590204 -0.9176642563690905 -0.4783910241530793 0.0050964406863009005
Ni 2.2727826233774953 2.5331323356529363 0.1992695308354096 0.34565833767232723 -1.2216475829001348 -2.1187162745060606
P 3.2959463539121128 4.585189767449002 13.63288540305363 -1.3187234394092258 0.20693472371546298 -0.08878327748299548
Ni 9.026402355136533 1.8896864860694764 1.3872651082051919 0.011246262337780632 1.6336149282123413 -1.2686668890724668
P 4.7294842420064205 5.832036996927272 4.451794369132407 1.2430579302551108 1.3674363312338966 -2.080921315145474
Ni 7.280693048828527 7.647411175345686 3.606680613344164 1.9028425964297548 0.6891944867953292 -1.1236630985338454
P 1.7290699939204832 0.46331479426365957 10.393785211495615 -1.710343588523648 1.093244377032672 2.1588028581143015
P 0.5273943447453898 9.211814502368895 0.41828319695869465 0.5017682654264392 0.10079958521758123 -0.9207359533158788
P 7.850321197354608 3.398899182997447 7.42250235855768 -0.4293634293014669 0.802297829080928 0.6261520657218635
Ni -0.07748618883053306 7.403570124659438 12.555260820454453 -0.36846248005103643 0.6526426558132243 -0.7558174261312015
