# total energy = -340889.3312203894 ev
CRYSTAL
PRIMVEC
9.14182542970892 0.00000000000000 0.00000000000000

0.00000000000000 9.14182542970892 0.00000000000000

0.00000000000000 0.00000000000000 13.37998558625290

PRIMCOORD
 96 1
Ni 6.562431797978993 1.8494917990615383 11.288559793937273 0.5580083188660907 0.8307139183297758 0.2771628639040904
Ni 4.954366460757969 0.5063702690210524 5.894311558874676 -0.5963465523246568 -0.6324021603966334 -0.2690798297856398
Ni 2.886924406982519 1.802228562751362 4.6107426207675335 -0.22200087401996604 1.0791089660725544 1.0529485056271026
Ni 3.2300079651033355 4.333801082187869 4.496371073992028 0.46210977049455254 0.5859919485632101 0.5924505597043603
Ni 3.978796583999651 2.9667233991975155 2.439653295364639 -0.3023259934332793 0.14513543102047907 -0.20449140438129298
Ni 5.384653889509883 4.989132822012824 2.715602031727032 -0.8648669100624009 0.02514718868958895 -0.38648102811564405
Ni 5.205986057702128 4.654212913800129 12.003144273828845 0.5817511710089852 -0.15074095013271457 -0.43371810672573696
Ni 5.491137869498459 7.656680849549441 12.33508851793729 1.770052060127874 -0.14964694573758744 0.4139365532234355
Ni 2.030737625577121 6.649324846553119 0.10526354632370007 1.1023303984943404 0.15626136573031152 -0.3804895864188995
Ni 3.0038849186560976 1.6965033542548058 0.29582763527080375 0.44929976321407783 -0.6099577153501883 -0.8646344823366207
Ni 8.04199964011765 0.17081317559156464 6.830991197028134 0.32211474602443235 -0.4980123979284327 0.4078715779762782
Ni 8.781628150158491 2.35540954773494 1.3996938869569784 0.47033010152181576 0.6539359207033513 -0.2382075656868156
Ni 6.951178772999101 0.9550373373477461 4.64258725468685 1.2010779862788992 0.3826354291173088 0.35303843218648234
Ni 0.8789179297777875 7.401605642677769 2.0871710267504966 0.06483885085225607 0.9852217917040903 0.6176856801220653
Ni 7.8377712650365385 3.9398341249756714 3.777691970591109 0.648425018187451 -0.0059672733270284325 2.2674648767990946
Ni 7.754160131711031 3.5938708919152598 12.62682610061135 0.3971613906476257 0.390775798836256 0.618362908694748
Ni 8.329409482739631 7.578874775229149 8.99592624570298 -0.3234974853045719 -1.1793704193984786 0.01727061415498961
Ni 6.668166148300754 0.44830870877865514 0.1380104783907569 0.6772509412802078 0.8261381260336352 -0.5303355355411705
Ni 1.8091489244315944 6.49825618503945 8.787359160379546 1.5233729666349378 0.0935246488227228 0.551366902290173
Ni 0.5035289897473189 5.193470898996397 1.1832282646563692 -1.591817275450265 -0.9085550949789708 -0.689332297924774
Ni 6.55193698264358 2.1358137644841175 6.920114850952296 0.0203893622896294 1.0234862345019275 0.037531935507186975
Ni 3.6075104951212147 4.11179185708291 0.2973031258589009 0.016001774744895024 1.4684068948117035 -0.5681112116280473
Ni 6.441576868768058 6.183055193794075 4.635014166686975 -0.5051364105677236 -2.3668572972565043 0.32788790106278365
Ni 5.33871621785444 3.2129676029210974 8.932558770111564 0.5304113830844285 -0.5391204808226521 0.8344831555642209
P 0.22093048973076204 5.909074692398333 12.288994521070842 0.37212424517333975 -0.6985813273268678 1.5259502404438108
P 3.873884997946346 6.275424195666035 12.403366982028867 -0.7646604783441283 -0.43805221532471655 0.6661499462710399
P 2.7083571352520197 8.6364742495525 1.4258779027093205 -1.1084971894266844 0.5086156273655756 -0.8275375774843232
P 6.689649437532653 7.99220411822567 5.706349233380934 0.02901901294016938 1.5825883006528292 0.20662593422579256
P 4.790508385782416 1.3299801563082077 12.3346341692246 0.10416670191760125 -1.6702114963894523 1.843908283987392
P 4.223596379340832 6.383316016736191 8.051526336163846 -0.9376725811702173 -0.48964757090350514 0.49643862568340963
P 4.8270391193018485 1.3939363654428296 3.706376592166411 1.009400445832823 -0.5774327461392893 0.6000072890056957
P 0.5414876763637821 5.657829910287581 3.4750628173677387 0.17077909973051233 0.6879457019898926 -0.030089620296528827
Ni 0.5789481335065696 0.2748014372991584 5.06555573817959 0.09177989821747419 0.6795880740538167 -1.1015238434326446
Ni 1.9929636038298 6.969544699836072 4.858807876071964 0.28790930378731705 0.48246519422245293 -1.1080955831128916
Ni 5.984878706998717 5.747977448634709 9.323454988237382 -0.08084396803126076 0.6274491872667324 -0.10907725184534117
Ni 8.743954688488428 2.548503179716285 10.414444979122226 -0.12122211473799123 -0.278557687369088 -0.4725142536573282
Ni 2.614635143249712 5.570004395542539 6.6032500475196 -0.7331732063691244 -0.3244968731033637 0.6561519545180635
Ni 0.5603984559829759 0.294206789661946 9.24642596905952 -0.37783389396360734 -0.15594332026926044 -0.843108949560019
Ni 1.468378248087659 1.1058408859304685 11.156391856035071 1.0199052020188886 -0.29421262029752554 1.0737127347576476
Ni 4.302983989421602 7.2080274939605555 1.886925744911231 -0.3332813041642131 -0.7676398726874264 -0.8037571872352739
Ni 5.725296580300948 8.093998341884049 8.0155477688868 0.07949156776842438 -0.22368288970807929 0.4715045814458912
Ni 5.373382019032039 3.377456463835799 4.562936360040176 0.655181105964362 -0.49350962496207273 0.8470825894957863
Ni 0.8166154768227614 7.751774115332509 6.9643494005720346 -0.05546332317462706 -0.06653937848313057 -0.30844059097144944
Ni 4.859245769499286 4.833383545994163 6.638667306729056 0.9821135850924119 -0.6921785091243176 0.29071669132912514
Ni 1.0873378317154205 7.270484443761547 10.935434855011215 -0.12333324754372307 0.7334053769845885 0.37494397401032203
Ni 4.768138339505627 0.6217748420447291 10.26313131669306 -0.3265910366282311 -1.9216666711147938 0.23678394586641155
Ni 8.61208385990539 7.350639967159541 4.699492374040807 -0.18212074999557668 0.6216603484990971 -0.3617719554047382
Ni 7.2444485255775275 6.327331479180383 7.004074287818117 0.3549449051805758 -1.02116761367108 0.4195045342295163
Ni 2.701747595628759 5.313676758617772 2.3800449382975444 -0.7787120713411879 0.8186623864818804 0.08586456117430373
Ni 2.555880632656771 5.033242128627253 11.078400202663115 0.05086747627382853 0.4053179583164891 0.591894172980258
Ni 1.1237954306332125 3.384550520194928 3.709988527304932 -0.4191677197153878 0.2230408852487062 -0.5962699334504505
Ni 2.072844872471642 1.3812932211842273 2.4275979704667217 -1.5294266290281855 -0.31699310852715085 0.17809800198942874
Ni 1.1224698659784784 3.8249579494488475 8.068880262950618 -1.4727304618877217 -0.744789450451814 -0.5413195453565001
Ni 4.073752722404642 2.497336384043546 6.840143078240923 -1.6342682455256239 1.083496553617289 -0.2924154191877867
Ni 4.6166857213333445 7.219857015775908 5.9998127926537075 -1.1076993761157374 -0.2507013272784521 -0.9113118317885015
Ni 0.8430006127296147 8.89423715303446 13.167551348753028 0.9196458055754936 -0.11629948062539325 0.913752065798878
P 0.04393286938797216 5.730324584163732 7.925393831262028 -0.6773910664024979 0.7806679095159781 -0.04730906949860885
P 8.423488005924936 2.034750886842144 8.121597512178134 1.2299964690854623 -0.995478436435092 0.0946613335303273
P 1.844509504324779 3.1243650330336252 10.316584482849587 -0.3544785070671186 0.408333090993729 -0.37992677193689406
P 4.068733860367063 6.337817152690591 3.8968136097431643 0.1417315475452527 0.5607668554478342 1.1850103912930754
P 6.86427658259977 4.125321758386403 10.611613122597467 0.13507881811542544 -1.7161177720032639 -1.039234241364804
P 6.506730657004543 7.778879627065521 10.365902801465861 0.004080083606644585 0.2944836145707251 -0.8811502206034567
P 2.6135564078755142 0.03907490347400158 5.761100538716577 -0.40371513260574343 -1.4842454045058566 0.6042439527948625
P 7.156220770523463 4.126034820752398 1.890244227460669 0.05460868848381563 0.18174716870624183 -3.4283619199837347
Ni 5.615430124986498 2.717700080611594 0.41720821943103015 -0.033441310377581114 0.5899673882711904 -0.12960699636757678
Ni 1.395316781048794 1.2798738123592561 7.255845639060679 0.01596166553557896 0.7233253670407672 -1.1118576212584852
Ni 7.073587812494897 0.5847010841081158 9.170347699702983 -0.17044408498859678 0.6517435410377227 0.42081271151797855
Ni 2.938310606460179 1.6745081228114238 9.087672689278474 -0.27420275283450196 -0.014957392640780692 -0.08992381884534191
Ni 6.55316198722106 2.158202094411317 2.5905528331120142 0.1819952801613059 -0.49871662308430886 -0.41678250731266286
Ni 3.9732657797505873 7.010116120096143 10.35382096527485 0.6287059424919688 0.2076788009703391 -1.0268952601834767
Ni 8.030846613367473 7.477254246249666 0.06367189837074459 1.5263058240110168 -0.02725060818583694 -0.2652774253204141
Ni 7.6394942181639225 4.0386206881415845 8.438502539641734 0.4061299126948232 0.4126414885610958 -0.3930481398102005
Ni 3.440562483226351 8.691882852120386 12.331676788770762 -1.3973166637330967 0.16529416535654115 0.10324804675807378
Ni 0.20251062612508022 4.911683278875529 10.262288440409153 -0.0718106541843989 0.284805982271645 -0.1511081036641462
Ni 8.842604124276264 2.6559196258757773 5.911464365506935 -0.28014200113707244 0.28467177068662586 -0.25223344765226235
Ni 3.884681493513525 2.819274900465051 11.235467729876348 -0.786542108908568 0.7296415390667822 -0.6819763717803352
Ni 1.2965485015332916 3.0601437109680565 12.627655264157449 -0.6944058557929396 1.0545312767331905 0.18991247812585357
Ni 3.209246880062637 8.643220916553837 7.812452980131116 0.47408648324045444 -0.446091026468793 -0.282208653858114
Ni 6.0281469656942805 8.223455728612949 3.5441576464501265 -0.782837149253155 0.02464993733819626 -0.9072769995974955
Ni 3.472650289696122 8.753462186701693 3.7809967404027396 0.16039672805492375 -0.8150918955218026 -0.5189357783446611
Ni 3.2139183527424238 4.228624383203618 8.722921177056618 1.2544697716364783 0.8116077936279442 0.5219622238758107
Ni 7.388651676362194 5.975736881793653 11.507831042393315 -0.46364549041278863 1.064303782738922 -0.08589901395666497
Ni 8.01172191503848 9.002403228860768 2.2161539527512537 0.3662844985631111 0.37575567127834 0.1408350038729123
Ni 4.778779424044321 0.5204313103689602 1.6851821179208557 -0.30260521523659495 -0.261716190331717 -0.21149328962042285
Ni 6.531980378220928 5.689040101537667 0.49847904550404193 -0.747094701546223 -1.2175276471944902 -0.36459811199962366
Ni 8.299287168688949 8.889428552976597 11.308188206835062 -0.4974670669479239 0.17487769527991817 0.23350321823261078
Ni 0.18950089467575482 5.256604343862563 5.599389878481694 0.000393893004308999 -0.9848741785566845 1.0457440174588637
Ni 7.730528513555942 6.308691297587259 2.5644885752698583 0.008675930507443122 0.17658079401395393 -0.15887772030723604
P 8.778711907918078 1.6459582026960118 3.4864096508122633 -0.25905664122168287 -0.3622445241657826 0.7728574123326237
P 1.8733428210215481 3.543216038454005 1.4440344817490964 0.43213430717838475 -2.175921005851827 -0.142891886401941
P 4.979817302128865 1.0689353375776283 8.171464340306713 0.5333023314789782 0.5067731748401981 -0.45372206065148957
P 8.788886759371312 1.477776044398464 12.707935116378232 -0.9264237477292755 0.4754933908903101 -0.946955292023724
P 6.2705424610065315 7.71346072589809 1.2285900013238926 0.4382504473784517 0.8366503384188689 0.9689225403234345
P 1.8165538028476957 3.465537949686583 5.9067819226369025 0.3721694965889784 -0.35346317842872677 0.7805002735898622
P 6.89247911335739 4.281957791449956 6.019548164906398 0.7295250680935759 -0.36497709260559724 -0.583494378952337
P 2.517686086950017 8.542432293668014 9.868595737953108 -0.4008282979762516 1.423895699773206 0.9123942662194029
