# total energy = -340853.73067028134 ev
CRYSTAL
PRIMVEC
9.39154583187018 0.00000000000000 0.00000000000000
0.00000000000000 9.39154583187018 0.00000000000000
0.00000000000000 0.00000000000000 13.74547663693961
PRIMCOORD
 96 1
Ni 1.505314566500225 2.4413887440364137 3.2291149993783654 -0.02269178517056092 0.24975053332940858 2.120060190128465
Ni 6.127260646226549 0.9570267167656935 8.514154944328762 -0.03330195658623942 -6.4793301188650725 3.0759148415243476
Ni 3.670836036969859 8.90718645059733 3.2611551978702438 -0.7524793628969041 1.78485570079961 1.2608324806297124
Ni 8.906078248163855 4.066755443647693 12.05915459497759 -1.1570545295100978 -0.07592030547739828 0.26490101581760184
Ni 9.320029423250766 6.020798080244626 10.86541489926714 -0.5666593096728693 -0.024180711011261583 -0.04990022726455277
Ni 8.28508104893814 4.966399814069919 4.671414170216496 1.2918201872604784 0.27307095322290387 0.046097308578694804
Ni 4.971245851829859 6.98712242759625 8.209870730734803 0.26877541117134357 0.8145077408835586 -1.2143158251254118
Ni 8.896019902348167 0.8114821710663063 9.674327376160191 0.1357619602253791 0.09467316060486922 -0.7724822883813922
Ni 8.262663428525398 1.1954311131534068 3.8594276731274983 1.7639220359707364 -2.99616050701284 0.6558002276055996
Ni 8.562648192339317 8.983577286138699 11.75653362418845 -1.5122282628720278 -0.6547116225271112 -0.9565804738183137
Ni 1.3389245451962615 7.924116976644985 11.778966271074866 0.002208063394912326 -0.10402837656752406 -0.7056284639816363
Ni 6.006485364069922 4.485834402875936 3.8180400688556446 -1.380747703630822 1.0089031944814302 0.7055742137049332
Ni 0.4432255632681258 9.101798067770707 7.598458543404039 -0.14382673951138458 -0.4444110676632088 0.6015376096072932
Ni 8.640400802057414 6.398657543875244 2.9115530179840157 0.4040792008133815 0.48708289550012246 -0.989793727345489
Ni 6.842098173547833 2.359898298991852 13.062120998383826 1.4202840711625475 -1.544441871490095 -0.5187953961120548
Ni 5.582419493891044 7.550014131432924 13.651278978203054 1.321039489136912 0.3721949505102752 -0.1675495370496211
Ni 0.706017926429115 5.878732163200823 8.509741856841561 -2.606269938995015 1.2178181818517155 -0.5575979708015494
Ni 1.504582025908606 2.9075663066873214 11.605814336617499 -0.4574727859431734 0.1768312194618632 -0.5784426754610426
Ni 2.3854151295999046 0.6290805029078455 10.684648299275356 0.7404561131837829 0.6524068856533344 0.4682480221818065
Ni 3.290929216301127 7.27455069434614 0.6121700850967083 2.7392116561627793 -8.190957973417783 1.7873458142113154
Ni 4.941437084678604 1.1091228049870452 12.11768270993872 0.12190628528920938 -0.4806731353190367 1.4708512425871378
Ni 3.991810906197469 8.366552710890609 5.673651789649531 1.1088771984739225 0.2408403753239723 0.21467143023808835
Ni 7.073750048328189 7.81862173990584 9.757625693818683 0.734076177799368 0.4162099226386445 -0.6443752735981095
Ni 5.666567746466736 0.2132914022596554 2.2580516778917317 0.5395112885031677 -0.06653423627680799 -0.6713836838661534
P 4.258004887336462 4.0914927759338955 7.760916324378377 -0.11252381563304492 0.01860501669569699 -0.6538590447188287
P 7.441438467590563 8.641950407155068 7.534528411157026 0.12989033193595048 -0.7541729485492431 0.15888466228577153
P 2.940061056007845 3.9810388028822548 2.5456076696678527 0.8007888486355693 0.7973124600511946 0.3494779685287336
P 6.786838316610851 4.6414147546805 10.417504832831074 2.0108916641208983 -2.886328636389661 -0.07123549840721925
P 4.1998430426711435 1.4619068406737916 4.85788519527686 -1.1359524574241597 -3.6871452529393722 -0.24711592392003895
P 4.89701507187916 6.364951285114737 5.413490937690741 -0.9255858252090124 1.1297499281578736 0.6033427811368319
P 1.6356974002623135 1.875820449576517 9.04396023144399 0.04781377704916927 -0.452795177961846 -0.14198891497169738
P 0.6088229380857736 6.263945207385769 12.99641680308865 1.381723694390846 -1.1253412575672168 0.016520880473158646
Ni 6.32717848691614 5.073904841662992 6.266823716248989 -2.383533729470921 0.8339964457357895 2.178083560720784
Ni 1.516941300505661 3.757811144905515 5.856439450350498 -0.9556615615484702 0.9146259837633991 -0.5359215142693802
Ni 6.200796451769815 1.7892022203906244 4.098310099208973 -1.4221391220934152 2.242875617495505 -0.3383988278964366
Ni 4.558365312992237 3.320399887794711 5.360447485620708 0.09509456441300397 4.2250940820514264 0.2630261673923922
Ni 8.758198964117334 3.1143118013526405 2.97445289762974 1.7059362034845715 1.2049618947143377 -0.1646051097093165
Ni 0.9780449968175234 8.284827477194888 3.8926361799475475 0.32945473132927133 -0.9813283701869551 -0.6349115570820485
Ni 2.492074918048802 2.2849255869034883 1.0604116731082134 -0.7787095002380267 -1.7258663667495953 1.511620711195016
Ni 0.8072371922533362 7.535466626607061 1.26548265511346 -0.29596714109478706 -0.5947563250194015 0.012888425926893933
Ni 3.0349532372606105 2.387734841473364 6.904751994687142 -0.07682224846637736 -1.0772852826002544 1.5186562778855588
Ni 1.4611836916282193 0.49263073039978633 2.240223706031862 -0.6759052258855909 -1.5355054882324135 -0.43229474401564905
Ni 4.78955700201632 5.1343018742873525 9.678946138505808 -0.6600793145969277 0.6126396330577256 -0.28462009151308404
Ni 3.233377822128824 5.295291756614639 4.804923449657429 -1.3689805357925648 -0.06124084908835259 -0.9216705493150064
Ni 6.652295027950209 5.986518937175289 1.4333368184460562 0.888397131973857 0.7876782793955401 1.1537910282674773
Ni 8.20786375734469 7.137978831739479 13.479859783991246 -1.1611256142556778 0.4922983782627909 0.20683316514059216
Ni 1.821058344579993 7.746738846466741 6.159183450392847 -0.9692241307242533 -0.956856610297836 -0.018093881387233356
Ni 0.5173567928307325 3.0958198471872906 0.41487999899089917 -2.0359959153876934 0.20445618026798337 -0.17846155597643457
Ni 5.007994971509398 2.3248772237848487 0.9245000361886124 0.9301042819046562 -1.3465196356858875 -1.796290682109429
Ni 4.728032983866392 7.1373120319701835 2.335988361912338 1.8890157178489917 -1.1247707297757275 1.1386189485127294
Ni 4.878297720608696 4.542202462246393 1.5844552467239783 -2.244201278285464 0.6060897477543498 -0.3267612436575082
Ni 2.233582004667852 0.6337405880560663 5.027875935335009 -1.1677456906753567 0.656160953379128 0.16752716845211793
Ni 2.7341795835787943 5.884357699282614 7.800695156812484 2.1213570545630174 -0.4990886617117469 -0.41551906721920695
Ni 1.256833041204731 3.9584051769104454 9.539979431657315 -2.703444011644867 0.9621739087456913 -0.1777539883864487
Ni 1.1567285518962167 4.805719852762164 3.2631621712603587 -0.814912432521145 1.7160473237766447 1.3974776147909933
Ni 4.61039447808926 8.754949489185282 9.968880069740875 -0.8193468141434148 -0.7064039086950802 -0.5517299420565466
P 4.602928198982377 5.584532591751484 13.377510715177646 1.2712868431938171 -1.3771540727422928 0.7726373259020177
P 7.055840370017715 7.912950428395822 2.5315184722890525 -0.37108243417238673 -0.20898517848658849 -0.09127647621849443
P 0.09880939510871652 7.792879512192674 9.642768024825887 -0.2299702653786878 1.086168444022497 0.10533475408377342
P 2.1147695556349206 1.3736263078376876 12.878096471068549 0.07007927331558898 -0.5835918237621498 -0.46461351075301277
P 6.027250072378499 8.311583991881065 11.558901685806552 0.6883673629083435 0.410536526402951 1.0917809051132679
P 4.439205376755589 0.0012903984267745433 0.3419461915492076 1.2582379804296588 1.4859703576167633 1.0201314590970818
P 8.433965228411626 4.64886225069529 1.2794403708476108 0.9196776872546935 0.08958160501457475 -0.18305097511932988
P 8.71294110371976 1.078346708593012 1.753647705368186 0.4885903332835844 0.6833470268756167 0.015686814607637503
Ni 2.4002725554453006 8.849813495799907 0.1727274365760702 -5.737418504181687 8.466243674903819 -0.3505318637145447
Ni 1.883737522893627 5.026477534128703 0.9395049093069361 0.2407069350699016 1.0465176624000943 -1.1924467929664624
Ni 6.53214897937869 2.524447577270722 10.532554089363213 1.6496789236537397 -1.0018414025386424 0.8124876251297362
Ni 6.640865516411748 6.700511225352397 4.318787912503329 0.5561609812447067 1.2992717584425173 -0.3922883788260405
Ni 0.176030443320587 0.5104972075984464 13.603788747310254 0.16935368013789545 0.3532346073576884 0.563813612693958
Ni 6.6061543622242755 9.159743906876958 5.040301889908994 -1.8013742672799236 -1.1011086102720973 0.08236143311705171
Ni 6.7522116863377954 4.5041291345743115 13.41344089204194 0.5537513433619496 0.905176665425041 0.6930655397149613
Ni 6.692396929568312 2.8211452999684035 8.262117779700104 2.039851027467726 6.0652740093446385 -1.039742291349474
Ni 8.247120419818616 0.9392203454617304 6.506366368017524 -3.1814619687292436 0.729783206850969 -0.04916437753979275
Ni 3.668272144899194 8.219359009705476 12.317157269654919 2.23494762089768 0.44298204852616613 -3.736450526932404
Ni 5.581705736391519 1.7213295171133347 6.607533041183886 -0.24376680494214792 -0.6536752108427968 -2.173418036924315
Ni 3.2697418884204623 3.3432870855097736 9.722477832740054 2.1056774390442317 -2.087609268688611 0.29484742566804706
Ni 0.14996608557802957 2.431987806443973 7.634155809926383 1.0038998277295679 -0.07761749067416311 0.7167914225769914
Ni 6.127035249121436 6.012186032520083 11.6621711261327 -0.514016743776489 3.121152887426541 1.4126862042106316
Ni 5.08927880254094 3.7782753237406075 11.876037291010396 -0.5748230764305843 0.15845734494036579 -0.3798272702445523
Ni 3.8317789615669144 2.0928027294324054 2.7773976001750906 1.6468293700200862 -1.162239673255463 2.7556752010354413
Ni 8.605943219613193 8.3023802767556 5.443181371361812 1.3574087717945655 -1.1982731698402525 -0.0891576301032787
Ni 7.882014675719001 6.532937869246587 6.92717055425449 1.785754044244163 3.0221309629346726 -1.97531299568534
Ni 2.96158647954618 5.919275467483106 12.197846129526924 -1.8969655688236875 -0.7114011047993554 -1.4359438891869916
Ni 8.350634040341971 4.340979196656354 7.200306766230977 1.138582181737523 -1.0420146323234185 -0.5573789128122079
Ni 6.849010351437979 3.499947465109673 2.1406244819006437 -1.5930840579778305 -1.6680941929361335 -2.636018373902041
Ni 3.270427471281849 3.2781754967701238 13.171383184242178 0.8862865133887574 1.9730925909952535 -2.2548479593660327
Ni 7.096580896766972 5.668868675248102 8.696804549302847 -0.6905067778488494 -0.5001410142356613 1.3293768053580137
Ni 2.210967161788135 8.40121690734785 8.957995653862925 0.5032322515664752 -0.07124321171670311 -0.5911025303168981
P 8.835500779625203 1.8380382598318736 11.608137805109378 -1.056278084220968 0.0052969867328812 0.742713798869708
P 7.073233513295637 3.438639452518813 5.3968725969616465 -0.10604412144597221 -3.5892445865361413 0.09047429203217322
P 4.6717776230484915 1.5025252773244457 10.100492256880438 -0.8012758155743167 1.5553999131634955 -0.7011431745167731
P 4.325877590613752 9.332576528768747 7.668519476910139 -0.5607282889004149 -0.7511251628618547 -0.0012845231393784331
P 2.541389926338417 7.241126181967024 2.654815384559137 -1.3629214740826785 -0.7494467467181672 0.5992907225546453
P 0.6360546650018978 5.863827779625196 5.552554377463512 0.7372558610789303 0.6270244410244878 0.5571647399188727
P 2.940586982586443 6.67479717227737 9.97263199238641 1.0655132296659908 -0.39455403493176566 0.24500916198968128
P 0.193829301387713 2.018440467837057 5.410961794340447 2.7687813994000963 0.7855614901628535 -1.2368358606047989
