# total energy = -340868.019059236 ev
CRYSTAL
PRIMVEC
9.33431644021533 0.00000000000000 0.00000000000000

0.00000000000000 9.33431644021533 0.00000000000000

0.00000000000000 0.00000000000000 13.66171563742048

PRIMCOORD
 96 1
Ni 5.928541832860314 3.843218169462786 10.737166362767502 -0.16477865917270332 0.38713743075272034 -0.690223699390792
Ni 0.8245169861349743 1.5340482599285006 6.236928050918009 1.1442339807066617 0.40880565975477334 -0.16700214918658338
Ni 4.939365635220331 8.12541057950434 9.570633482765588 0.3960398754486728 -0.7104279422528087 1.478623430333389
Ni 8.290478634075976 8.640795535686106 0.4443200036896686 -1.195977174717224 1.2493499339114098 -0.06096394127788211
Ni 1.8147684970460871 3.694167802159015 6.814669042213714 2.559812933084056 -1.7873640690437602 -0.9211748406255102
Ni 9.307405754937035 3.461668644543638 8.205049101784043 0.5681423219762989 -0.9096393291820851 -0.9885809379843102
Ni 8.904331295962118 5.25735779848045 3.7244977970538136 2.1033937852163778 0.25880133067776717 1.1034259455513642
Ni 3.6836666959956417 7.3088445642404425 11.86099287750838 -0.49983916672452633 0.5984273461130856 -0.08986854012737426
Ni 2.9596037581353243 9.29826745899575 6.242611716289455 1.517974935547818 2.3289448384814473 0.8124966239908007
Ni 5.673005581901644 6.638416609504341 1.1587797966425382 2.047838930769209 0.12696621631062005 0.6923736558542593
Ni 8.95470860259654 8.17337029814204 11.509859223196655 -2.701041829961277 -0.30864859321719745 -0.5465653671364716
Ni 5.413614258191442 1.51678910855421 11.255901405173297 0.6756864250065654 -0.817823692630669 0.6345431179990362
Ni 1.1856822304856118 6.537914022783417 11.317160658087952 -0.10645601217241021 -0.9438051764305165 0.58563199412063
Ni 1.2363115636679551 0.5701699271098274 0.6500343398510015 0.6774890254329429 0.05566026967678156 1.514478235248469
Ni 3.039281484544705 0.3412812831513331 10.602789541142682 0.942974452999105 0.0743665878370332 0.6971929316197735
Ni 2.132284610160133 3.141921629764662 1.0510356471113524 -1.0292848434615758 -1.3015741813234487 -0.2778208092030635
Ni 7.935279884889452 5.007431471792168 6.735034253660645 -0.42106545095873293 -0.6932722564091286 -0.22260379771128758
Ni 9.29749271071881 8.102046785080407 3.6765866168623806 0.5178088638290695 -2.734252255274975 -0.8708041014824422
Ni 5.237261014862901 2.8532112176463227 1.4078940377875186 1.8289130961301405 1.939336063370099 0.2115141155560293
Ni 5.632391970420012 0.4076165374274467 6.251628666115072 0.007999987486341061 2.3250329050215504 0.36034216493674714
Ni 0.7658433389156577 8.769898468437761 6.954018254285846 -0.8980775924864146 -2.2408688714781215 0.9178881994544386
Ni 7.840312547906201 0.8661331032183368 12.197425916623041 0.4112101554312079 1.3597587600839807 1.001099125055979
Ni 5.997727787422911 7.954769937928673 12.455768996580224 0.4393573072893853 0.20716766566187547 -0.20414327701325485
Ni 5.398614011431851 8.101897436014973 4.749672720053499 -0.5844616279616127 -1.1957617162723082 -0.7988702914566177
P 3.772184020215435 0.24061441245843154 12.927740046303457 0.0727241671376038 -0.34087274335822587 -0.12866005907327518
P 6.713893893448372 9.160782309946574 10.68970509663569 0.8147661367512677 -1.100230835652834 -0.11061682841831917
P 6.8580250759093895 3.277875950893133 12.671050073814305 -0.1198630296069355 -1.0920593555856355 0.31191389423203053
P 7.2971766685033606 8.522436401329152 6.975630930917556 -0.1793953806446136 -0.32503860453944666 0.46539872565846946
P 2.901618983480325 8.27167932046439 8.214939743642452 -0.05528771682871124 -0.036555944747162845 -0.22382661437479515
P 1.4373074027932122 6.450218118423514 2.8939340406320544 0.3200717474524746 -0.230648522392635 0.383483636050217
P 2.3343072241102534 5.926749644075098 13.334941206642663 -0.5931830669950107 0.15615440783880205 -0.3784231908081741
P 6.433229662230323 4.920762342257128 2.5071843679408037 -1.1609898600087618 0.5196536303472921 -1.06095672064356
Ni 9.19100682706391 3.9416392035842143 10.443739320476404 1.3875369586385136 -0.1921943321814948 0.32440894137524773
Ni 7.848526746505106 4.262198303906491 0.800110548547977 -1.4983324787265422 -0.9674531548667595 -0.4098803808761909
Ni 5.94817190064838 0.8196379388535563 13.612765938754135 -1.7059248906306623 -0.0481369647165429 -0.3135570862624084
Ni 8.153441532223104 5.983941001819976 10.284566820262802 -0.250855079247497 0.31955624126863674 0.3982759638680431
Ni 0.2036589196482887 4.3926267096138805 12.659778886532285 0.353105795089308 -0.055583907912891375 0.4423528995825995
Ni 4.143615145951386 3.3450083558060046 4.82426604421649 2.5033569069788566 1.302557885392957 0.4989454512656632
Ni 4.953805822984543 7.660570947655611 7.253947581513304 -0.6389790422832028 -0.3450662126142831 -1.0060513268549318
Ni 3.973217196607051 1.014406855381848 1.5872043926116661 -2.311539498520806 -3.0259179407809307 -2.9516799081019616
Ni 7.582190691252193 1.52960512523182 1.3364883827398992 0.8827633307268474 1.1019408763654055 0.057317088553914194
Ni 7.889168360936507 1.6839013784589831 6.687314426959301 -0.7902637807345293 0.7503654018776947 1.8220971016495715
Ni 5.133500751652185 1.300018274392419 3.407081561127277 1.8936167069561127 0.015340487011812292 2.4878870934780313
Ni 4.393709490338281 6.103196230569536 3.0837772382959794 1.3449144959822967 1.0683033908166182 2.7998665508406746
Ni 0.9037279967148717 7.450362138056354 0.4673206931982622 1.4300846021927371 -0.9325105773533036 0.12936839799420946
Ni 2.682542573120887 4.6808984088525065 11.61013591945611 0.4093964992612369 -0.47257313191972167 -0.7209069874072617
Ni 7.760009422285313 2.103749604345527 10.143741852737843 -1.392730844134627 0.6663237528447428 -0.9088587422623187
Ni 2.3993674107402185 2.215658725939021 4.526195179422033 -2.3425457170943336 -1.781780404308396 1.0485611751926844
Ni 3.601384695257744 7.631279862197242 0.8511020532139991 -0.4747380007815244 0.9098362756842396 -0.9714121395145076
Ni 9.095022049572385 3.0747985591683804 4.956197274894815 -0.02676029881297972 0.8296150288386422 -0.21956912465002185
Ni 3.0057059477716805 6.5344789942784205 9.604650532713304 0.20264560942180584 -0.45517781926140966 -0.10627346384795891
Ni 3.8317742973238564 2.613403290141238 13.137884449118244 0.8073482470206418 -0.4373479901688403 -0.5261688057579906
Ni 6.5634340443395605 0.4761005513825011 8.702062256054031 -0.4673761610998144 0.24891646746388743 -1.0595726958118399
Ni 7.98913889161182 0.2083466134396185 4.982454707461542 -0.4067225519734996 -0.1327961927288358 -1.0749478927163292
Ni 2.393981510067982 8.43724209381528 2.738723024379104 -0.12158438317341642 0.09536890112031317 0.46059744761508414
Ni 0.7904121936113151 1.3581243951630835 2.9743463777570414 -1.0214946579931956 -1.0821469815679299 -0.553154590318215
P 1.368588164060098 9.293534960484791 4.596538589241749 1.3938718997176058 1.3711356344623546 2.0639440638611877
P 3.81829554416838 2.4655290467277644 10.35433710304391 -0.876216273636949 1.1434176554529532 -0.533291532845701
P 0.2428285123535001 1.189770661151885 8.319697845296604 -0.21485552122443644 -0.037617296132141674 -0.47811668744577007
P 8.070534132273698 9.284555347925535 2.5756571807159507 -0.6438080882407299 0.39066729828284974 -0.5661558876738896
P 3.83391185582289 2.341559988100423 6.778314679391944 -0.2695814520124067 -0.34426248576606516 0.49567089427944955
P 7.447524505813096 4.168117726999257 8.816082800060107 -1.5984324667739374 0.6032227106191999 0.5016029434931684
P 3.375074189541315 2.6620164109402134 2.735731375912116 0.6273738539441066 1.4612671984431287 0.06494555163344944
P 8.301922506214906 6.73708967017369 13.038140742336061 -0.13406528924924652 -0.8251901602980691 0.007870918107644509
Ni 2.8933767819316514 5.819339663077822 7.137590658064834 0.43105650073317375 0.9630689097561348 0.17162062179520118
Ni 5.338006293815155 4.889725739596492 7.122043420353089 0.18154765110092602 0.449831981568464 -0.3718290825304241
Ni 6.520664205725716 5.495998936411826 12.513147974088554 1.9298620624413925 0.10645575506209409 -0.9311180678811513
Ni 4.463576850011925 5.531375996286656 13.227642304012805 -1.429556497603409 -1.2092592365381107 0.3645970835583592
Ni 1.275347675645934 8.356024205168604 9.747142609181177 0.6253051443405359 -0.9901955907695978 -1.0231697317027733
Ni 2.2881490285743595 2.4094578069736468 8.601635277297483 -0.916165560336377 -0.999695302729917 1.4769144180620821
Ni 8.318276228879999 8.181332470193023 9.04137866556324 -0.2206299618143684 0.07332837638050597 -0.39429718172595324
Ni 1.9776896588021007 2.3682654678634547 11.691136318526246 -0.5523650045373841 0.25253092428802315 -0.12666873967485928
Ni 0.3679018206333989 6.397721921923237 7.6364212037748285 0.757751667039437 -0.49414777276670374 0.5088997342648978
Ni 6.609060183829843 6.419778912024616 8.48613897783858 0.207070735072695 -0.3197135927821075 0.3437752617170015
Ni 7.610492339152058 3.302733235971411 3.1014004280172673 -1.9840236360854604 -1.6577524446904932 0.6131600243375698
Ni 0.42876529852465073 1.0300325013529472 10.387480460958836 0.34505335709847673 0.4279400665913792 0.9777041431708065
Ni 6.111279748736187 4.650281850438405 4.873106922340252 0.9165463407145635 -0.5731731995319871 -0.5056146357557229
Ni 2.313949079628194 5.175262484074345 4.680995485745038 2.2244670330813303 -0.696162176362414 -2.5267601163941453
Ni 8.287528990033643 6.4552959866482915 1.6789569909614377 -1.2877910114964273 1.4785162153315634 -0.21161721679279683
Ni 7.013320101011647 6.488871523421317 3.742982544196327 -0.8207398378361993 2.4510645253330434 0.05020850253359095
Ni 3.936860033490306 4.181549808571785 8.843037506076081 0.2910154535164665 -0.0975517677042449 1.2569177189563383
Ni 5.846586533203054 2.6526447570841896 7.878848340514973 0.04032569620224023 0.4521220631542213 0.2890043366237087
Ni 3.0292097569444567 5.242646915535137 1.6484496440514353 -0.41300015745209523 -0.48928864490218954 -0.7192511969713936
Ni 0.6920452985261069 5.096910230620697 1.3065681643433869 0.8479608783356815 -0.5712672407585259 -0.15511028284500383
Ni 8.278063993011722 7.134208835164398 5.673450828802971 0.2504920394811234 -0.1274938066793159 0.5190990433954028
Ni 2.5337722353148053 7.375136880660243 5.278177058202038 -0.3124234868785974 -0.05099474588031217 -1.129438567565042
Ni 1.5012568057490074 8.958302314483563 12.247687477731752 1.669942558998782 0.5634603431195974 0.027337768583004532
Ni 4.0464542445695635 0.8316269350813221 8.542834683372547 0.9200877782089186 0.2020051476243295 -1.14261161461189
P 5.306241614460526 5.9821861503011196 10.468836497491036 -0.4630667350911831 0.6433437470098017 0.107793242926595
P 0.7489874300180406 5.00069209521443 5.84449564628697 -5.285596745876704 2.376590465383868 -0.033503531074084235
P 4.461850001442836 6.11537751371905 5.503786556742583 0.21951333171142196 0.1425393881585287 -0.6486003674230507
P 1.8342585500853075 4.768668987745126 8.798841383887337 -0.9417624349688748 0.018087196519014012 1.0482017349707369
P 0.31875197663051763 3.390410471698135 2.6437743560290308 0.37865896096806395 0.15167014681520333 -0.44134245604021405
P 4.761108191307497 8.46450763257369 2.6858114507905877 -0.4633780956840149 -0.33824713280992064 -0.575726304971144
P 6.465899770294151 2.2706098477023793 5.084385444620685 0.06878215177072025 0.6457832096892298 -0.6118600745792238
P 0.33603913095457727 1.9541205094131964 13.06975327233028 -0.6008858349559071 0.8478050694841077 -0.8401303265476693
