# total energy = -340893.4527412171 ev
CRYSTAL
PRIMVEC
9.03490534608511 0.00000000000000 0.00000000000000

0.00000000000000 9.03490534608511 0.00000000000000

0.00000000000000 0.00000000000000 13.22349723622670

PRIMCOORD
 96 1
Ni 6.704649762789864 1.8290353001334658 11.35856119734264 -0.8172151125123925 1.3185126089500003 0.8109624467344615
Ni 4.5051562332889645 0.3593308397791362 5.65459226770388 0.8750520781255188 -0.18558351173319654 0.9592487646790965
Ni 2.6949316063633857 1.5577351584012689 4.772003070110418 -0.7783099508067629 -0.28951778592501753 -0.8359178311282184
Ni 3.369920359815854 4.169238447568867 4.904978808954646 0.8416498485159893 0.44194820794501305 -1.3655828229649256
Ni 5.23496879318978 4.391506157264943 2.779195652316008 -0.24203876650744768 0.17248168424391586 -0.1232460871465555
Ni 7.246563393437831 6.064219522795689 2.710380391242428 -0.43504453884664435 -0.3072314011546967 -0.8531748184364532
Ni 4.881207069148079 4.4679233878088 11.32583315573445 -0.29350813803133324 0.8885292866763471 0.5823813483938163
Ni 5.63470011631012 7.988067121028851 12.380407200069534 -0.24934481325055768 -0.5746513267394103 0.9337547341730499
Ni 1.837166715064829 6.610397628829884 0.42999102855158755 0.28105757097280626 -0.6278883316866799 -1.123027778942692
Ni 3.014722085802946 1.3655265792347986 0.3679130964939163 -1.1477245103584235 0.9486262519682438 1.537031952179269
Ni 0.4103916080953582 0.1554130231115031 4.906485831188593 0.0812265481816601 -0.9584823188267169 -0.07172657911102485
Ni 8.67478318179344 2.0114861813823 1.219292116599709 0.6991557117730991 2.209930787138368 0.6894449122432385
Ni 6.79804358072931 0.8052160740498953 4.785927666435104 0.4965756654819061 0.15603613709338288 -0.3776258917178593
Ni 1.0177369277149106 7.275709998514029 2.5578214947718334 -1.8361160416364832 -0.7948891953216826 0.5538331044424785
Ni 7.5001370506196565 3.765206509440383 3.7674805951495207 0.4423071339463286 -0.774457409829892 0.35863520954796946
Ni 7.630212584805031 4.050266812217543 12.560418656838957 0.3176081164033304 -0.7421854371700638 -0.21144932375636485
Ni 7.778782570506518 8.82562996367571 7.170124479120824 0.5518410137131142 -0.03642636114783404 -0.9626868438263679
Ni 7.071828321468312 0.5529542851436634 0.5194167160045294 -1.857378550559685 0.45924838978635746 -1.3874369427255395
Ni 1.941790920515037 6.479066242782886 9.167810745874052 0.010994294227974613 -0.6131939628992988 -0.18113884569828156
Ni 0.08460646887028728 4.794137685044137 1.2192252582991623 0.024183796335055123 0.14350869405033348 0.5770491375476255
Ni 6.29065232391772 2.159044257670106 7.108582316958075 0.5997226678857414 -0.9649630414550544 0.9814764657290453
Ni 3.236845237011354 4.382326693297982 0.4985018133105151 0.46297340404642845 0.48675096608200047 -1.1306415867342077
Ni 5.675357190966937 5.485100151383994 5.008148394622688 1.4238525052400963 0.07231639017622384 0.37974139539896534
Ni 5.156871070226774 2.7233192793793233 9.518934277515799 0.36520154991157744 -0.08709046316160485 -0.1355009932545086
P 0.11715381236889082 5.853462282680232 12.37070100111313 -0.07275861991996502 -1.030393246034406 0.7487458639964009
P 4.087689390712772 6.206130783158938 12.698564168598438 -0.5434934130793673 -0.12880018419556527 -0.9515125723771031
P 2.543949300898928 8.366674835138605 1.4697785465792599 0.6668809108997933 0.8612054020504136 -0.9598871695940436
P 6.543159862252987 7.822574757364649 5.724981409311952 -0.4850748639311581 -0.7367871489726279 -0.35122194780303384
P 5.090816876267667 1.104679823142143 12.670939945095501 -0.5343986498669505 -0.09899672768088758 0.4281760938615851
P 3.9375473314578886 6.262662186742871 8.270821715927696 0.8758185239778981 -0.4039691575980785 -0.660827762727178
P 4.599155389895524 1.2689524745666405 3.6480590215053277 0.7753565246053937 -0.9612812217280929 0.5488688184586676
P 0.0987081493423671 5.2851125185998535 3.5284124787147 1.4301020856942337 0.7911276713967214 -0.1628367049549841
Ni 1.3780850978510153 0.9270535814192513 2.491862167320258 1.0904066504735608 0.7011264623462247 0.2498968290992857
Ni 1.857739194841178 6.477385750363738 4.928530097067518 -0.3456925333443724 -0.2202419823473304 -1.1531035152821496
Ni 6.184835510944245 5.5869325710411015 9.279919467023307 -0.7049062411036312 0.9737950379243875 0.1631794330063835
Ni 8.774953178842358 2.5168807240829674 10.3343354005125 0.05954083567811037 -0.4066400195620223 -0.7947511270819216
Ni 2.5305234313566993 5.3060915691227715 6.8520199130437005 -0.6766300198667572 -0.4402849613099773 1.3933458520108069
Ni 0.5537339974865264 0.11240596953952257 9.011165361655175 0.7219454559741051 -0.6716029989658111 0.8504502204164386
Ni 1.5317507702428232 1.0216761465038824 11.323095579374225 -0.4075769295539948 0.3411013144292641 -0.9220546721273024
Ni 4.025438891960446 6.486140573773173 1.7082250615171053 0.44927533773404565 1.3076005900231868 0.2434384750684517
Ni 5.452249235061287 7.9000852114715 7.704128953512219 0.767705178707723 0.09527094208986818 1.0957028658754935
Ni 5.3389515203509585 2.9169644085170003 5.119106972304428 0.019437025678689105 -0.36676658040585225 -1.528982342401915
Ni 0.7829721367598769 7.352425380938701 7.062842204478608 -0.3004323759549922 0.6436857037302527 -0.43082792966213546
Ni 5.241564274189664 4.532730764811765 7.49636136361986 -0.8962791058250952 -0.7265569866041874 -1.2543916101003751
Ni 7.963826469627909 7.34160156417451 9.170125488657847 1.2522257127973078 -0.9527099351193141 -0.5756136906526796
Ni 4.765759046933679 0.462092047719514 10.593012875799579 -0.6806170295389633 -0.19199044370080484 -1.1067352124302552
Ni 8.38998489127518 7.0333757637484435 4.548526490061213 -0.43828849970523875 0.9260272836218051 1.20200306919633
Ni 7.238224175680443 5.954617084426391 7.030060856928091 0.008681844044714079 1.9129622013622603 -0.06534484395439713
Ni 2.3698014977855637 4.907914249744868 2.6172341297131134 -0.8984084934632721 1.438386180079897 0.5971788184179652
Ni 2.1910549277832394 5.355151105875329 11.43296996839845 0.8250981148048951 -0.3398977810394662 0.09746409308644505
Ni 1.1443701629126752 3.340918313227325 3.8985915295028226 -1.146283921257155 -0.7755321309513096 -0.47351287012517157
Ni 3.5322866461842204 2.7369258470311375 2.534071438738417 -0.05340258399085642 -0.36589523354449244 -0.15308990998086539
Ni 1.296635424955193 3.532268576373262 8.118857316237637 -0.6769683770427825 -0.19458160146674874 0.22579762205823695
Ni 3.6461716297507034 2.6042482600677266 6.822346572978059 0.7097250026485131 -0.14978835641145816 1.436778469273145
Ni 4.009645877182643 7.015730593347386 5.995322044082248 0.5237967059813883 -0.21118887100612657 -0.28630210720119725
Ni 0.7366700531595984 7.42103645314845 11.066626234986286 -0.3377928188813215 0.6662610179276075 0.2586905161315157
P 9.271529653795234 5.554786377345778 8.092595556480978 0.01595806599115316 0.4342755218911037 0.2205119481792654
P 8.512019359583986 1.649954438628408 8.076026443322503 -0.6110540337381606 1.5203627190537043 -0.41570084421270986
P 1.856591761845308 3.2089273790803396 10.439475499065576 -0.12427838506581178 1.2358195035251427 0.15112198762121715
P 3.9857756569063523 5.989049109207975 3.881149644475048 -1.191896319779631 0.6696461323497565 -0.5606953787799505
P 6.776079725509151 3.913912018724059 10.453928637360802 1.2809529055286712 -0.3048469600829201 0.12227626703411844
P 6.147656874896955 7.708400656822829 10.11633216620265 -0.14291862587481838 0.34232875907846205 0.5269157112263441
P 2.3926236690262566 8.476882612175016 5.880991639675636 -0.9197658760931255 0.6590148778881554 -0.9956856673498917
P 7.0158570820240955 3.830583085488544 1.5136809592842382 -0.48605034047055007 0.33577090335528625 -0.4334314287232535
Ni 5.146155672328335 3.1564707178675673 0.1448304383236077 1.335253318743449 -0.7796695501584507 0.6934401494455605
Ni 1.2900489788607885 1.1805368895462836 6.838571456237773 0.891280109948607 0.11346098273533362 1.114516656147887
Ni 6.857050548414571 0.6318028087519976 9.207335746874314 -0.8657076607961413 0.6686896819737581 -0.6432820405339308
Ni 2.745156645922773 1.774536750282373 9.128550467604335 0.06977279781876371 -1.3271126919141853 -0.035506934657358206
Ni 6.244953772003457 1.9726993321596968 2.3703914771133614 0.7514213539460349 0.2704070332374956 0.5791684978834735
Ni 4.129385479499708 6.982771258158927 10.515219629151227 -0.04836399312568444 -0.8774933405771599 -0.5064541009378826
Ni 8.059451909220742 7.509479142885245 0.17305819351256146 0.2782195873033789 -1.4913431918929025 0.29843025792329897
Ni 7.868734089458354 3.91095760463233 8.243263447234757 -0.7668459160312213 -1.2157785257138674 0.3379180316052761
Ni 3.1472460793732093 8.55115857012028 12.213301202286729 0.2004599146243967 -1.5573071574885373 0.37222246131410086
Ni 9.018263183399705 4.903649774358643 10.331187639443515 -0.12978003161033133 0.6514928584794973 -0.37401734843099455
Ni 8.590993468378482 2.4901193340533028 5.829327339673397 -0.13659474053931958 -0.06932285476553868 -0.07237064045292697
Ni 3.5027696099833716 2.4316996352241973 11.655045234607817 0.3078710916212246 0.9248530608080459 -1.1457902694501878
Ni 1.1059085702873268 3.3387499359122947 12.56762489744924 -0.4971629054439437 -0.36120194183388116 -0.5750477908468806
Ni 3.0484674577681035 8.508830037949794 8.014470728801536 0.19757359421553716 -0.13988960924050747 -0.33574519232367334
Ni 5.485181465533309 7.753746847423399 3.7617804732826348 0.220439185959801 0.3410195533487353 -0.36253814414680147
Ni 2.938901159020723 8.122416165505932 3.5639440514931136 1.5546270395532127 0.8045213190948081 0.8404373162651266
Ni 3.4269486832011484 4.319217878525124 9.230755125367187 -0.21543273388414508 0.40030739247577507 0.22694561961975107
Ni 7.050695677552247 6.164787055685695 11.495066873757628 0.2816640942085536 -0.0182885138965427 -0.1757315586397812
Ni 0.8637035346700956 9.013655381605266 0.13653007065978165 -0.014689997912006958 -0.6744571805851546 0.6980074571012689
Ni 4.736232975827351 0.24058959451753373 1.5313604623261179 -0.33898426808626136 -1.0121903498731342 0.7030956702574537
Ni 6.01797887655267 5.550521901959552 0.5342981088194723 -0.16605315500975273 1.0143948137236207 -0.41732912384475224
Ni 7.772647869686079 8.815050089359458 11.230187839349565 1.1258583064129513 -1.0398495063512996 0.44081229456835697
Ni 0.014978066303571212 4.968222243819147 5.7846190133996656 0.8102448518421466 -0.684655461274395 0.1837775688727093
Ni 8.08514718040385 8.857215993231316 2.516894276441186 -0.09936259566073856 -1.6567836530193207 0.273273041931381
P 8.613671081131507 1.5391955323577604 3.5294442649204347 -1.0012631614376692 2.133244550029223 1.2469950605259879
P 1.7435921990157959 3.144734375649966 1.3821065342798484 -0.6425379632790547 -1.2878020672400208 0.8522849596323322
P 4.630949222277154 1.0469196724130259 8.204320294147362 0.9003041678240883 0.09657269162042724 -0.6677021212495081
P 8.646025077652853 1.4399199909512936 12.37584457280249 -0.18521224443670684 0.728469630245868 -0.7696677017507325
P 6.32742438921844 7.749816663539906 1.6013656204513205 0.06715001548393597 -0.9255778547892124 -0.21071784490697906
P 1.8284480312773117 3.296186496199347 5.976082212864094 -1.9559389620341023 -0.6221995088320188 0.6211379003367238
P 6.97352854985361 4.020180576971498 6.090267155292489 -0.1895584372205445 -0.1785381748506409 -0.4505259223116951
P 2.4495435735458 8.4109187672707 10.071782854265356 -0.35331148334221085 1.2536817285175441 1.3315277902627456
