# total energy = -340895.08270977746 ev
CRYSTAL
PRIMVEC
9.02133290849959 0.00000000000000 0.00000000000000
0.00000000000000 9.02133290849959 0.00000000000000
0.00000000000000 0.00000000000000 13.20363260190068
PRIMCOORD
 96 1
Ni 6.452111212867278 1.7434988261334239 11.34143171744017 -0.4072380581573373 0.684757276959582 0.6514730609851554
Ni 4.672220330972707 0.3900346091265354 5.92853652346917 -0.2968230613371791 -0.35311325128847576 0.6330940442573355
Ni 2.5809942392682883 1.6611521020412707 4.612477457875876 0.6914562862463124 0.0120229926028051 1.2472583414897036
Ni 3.4367488296120174 4.433813574006961 4.899590389619617 0.5920744073118642 -0.27028233473417324 -0.6617096511114992
Ni 4.991070310849247 4.510684349202977 2.6612056139309264 0.4356454056554368 -0.683701582001558 -0.6470132254415889
Ni 7.237598643487762 6.245540738693076 2.735594620525086 -0.21302926664897504 -1.4637048613503436 -0.638807549702345
Ni 5.064738512967622 4.726276155990256 11.26673869193695 -0.4830233807187681 -0.5120228532749118 1.3239409790544232
Ni 5.647895495742048 7.717208770529307 12.246223565468794 -0.4137462915895003 0.5387538415118528 0.9664946476082322
Ni 1.9115842953802467 6.306939928457667 0.6659277094993943 -0.4522128230958148 -0.331679506894732 -0.819047537735441
Ni 2.9121402954964504 1.5151418336986435 0.29584738597972066 -0.7018430287972751 -0.6212875385407106 0.4837774852759733
Ni 0.4372044509605233 9.123003031624862 4.65817501822741 0.9407818162231604 -0.4182534354312345 1.1314106036897482
Ni 8.530932972228719 2.2817476151599605 1.2698211274182365 0.006638588362440179 0.04077358237293623 0.3310698983351911
Ni 6.796843396010732 0.7951384522499522 4.6518907579291415 0.4105858915836478 0.004917749016591531 0.23712384570433356
Ni 0.6600034003723877 7.2672156784564885 2.5379489507049984 0.08489628372376347 0.2471182379128841 0.4078975461182072
Ni 7.631614366696448 3.813542828862342 3.8148590412905894 -0.21969562292555714 -0.13291857723931302 -0.6703616703595423
Ni 7.571947272793566 3.70793910929368 12.57685540573801 0.5181305088345464 0.13149907118396706 -0.10761789369099531
Ni 8.101761115826877 9.02945181242727 6.859220498230582 -0.10143336214683821 -0.48457169904249453 -0.025076226242337456
Ni 6.80672175522205 0.5038513499061412 0.2887656398784564 -0.39500654908815197 0.370387207877575 -0.2994232179641875
Ni 2.0568728571138277 6.435511960859219 9.292715949275085 -0.9039322514949787 0.034374877935444026 -0.6059673632438725
Ni 0.025788381407737634 4.769073357906686 1.4653783587383966 -0.23895781358927878 -0.6698834451715431 1.0762092759272561
Ni 6.289907652484181 2.3175532843012574 7.079074884677538 0.08459109377851884 -1.141889391733885 -0.9626418495210454
Ni 3.2666606245250915 4.084155743256768 0.38619964063271706 0.4347223796205352 0.9867251157224942 -0.3381885116578434
Ni 5.814907426407915 5.5934427320895255 4.679486112259278 1.7793576537995164 0.1577232949878187 0.938263677786997
Ni 5.3407191202668285 2.8447328982115505 9.237063348385023 -0.601641739285325 0.3490233974898182 0.48007509672372156
P 0.3177620071634037 5.337047437893307 12.627874650197999 -0.29384649520735845 0.5277975996106652 -1.3489629550200577
P 3.997181075534107 6.1603522948278036 12.685456012000735 -0.1280080273115731 -0.22876801754047052 0.0664424478939501
P 2.325943123631417 8.396641414950476 1.4744763726786834 0.3524511922244446 -0.007088788525981339 0.448140452798654
P 6.554647679347494 7.889353839452014 5.79308031215058 -1.1277647794070447 -0.3915666701686676 0.24294430904085257
P 4.741801869417359 0.815891125793071 12.575152178140662 0.3710397538599094 0.6123418993116486 -0.8438818231703016
P 4.02517427063248 6.130446577215458 8.192484147250271 -0.16925392133523753 1.1250522655718882 0.09281605279147241
P 4.643532493263127 1.0664297708568813 3.88205263299256 0.4685341859636576 0.6129934168527185 -1.6044087389620305
P 0.3194029875657221 5.4168050395255065 3.6906136400102683 -0.29557864740711676 0.7226154854579362 -0.8695871983562057
Ni 1.2957430245486476 0.9678446480611923 2.581548149090731 0.8937730515737897 0.9380096527946619 -1.2529795602441969
Ni 1.8016593574899216 6.529171436048168 4.853721423948435 1.1490679117601954 0.306442072484182 -0.8914873408634065
Ni 5.968080632845325 5.35231153267463 9.120395866499683 0.10548773472186995 1.687869318680532 -0.352753811066528
Ni 8.559981663242821 2.491132745109443 10.26621967928446 0.7715245524538132 0.15290787587704632 -0.0019717790143901526
Ni 2.3992685151104953 5.253383599239644 6.94969183447407 -0.6584168392928402 -0.22033737027461406 0.6782750116693479
Ni 0.5254430073822761 0.3634568611151537 9.226407350302459 -0.4680659880779875 -0.06474294870434011 0.09553448016389998
Ni 1.567862501489457 1.2325756535918928 11.53623747175366 -0.28730817986820845 -2.4436430360579915 -1.9325480939139879
Ni 4.018940529796844 6.864313942623923 1.654468196708243 0.9634962271015407 0.42437240384477876 -0.025144103365795405
Ni 5.633533534222033 7.850246362574333 7.817157918816094 0.30589571306240865 0.18992456231071164 1.0438244318386474
Ni 5.422695969721845 2.9139084766886136 4.80465620013244 -0.6879439022176798 0.14007010068242973 -0.4558162241763569
Ni 0.8752984053166959 7.330473262739375 6.902819696616313 -0.2673448493724041 0.2839444056022981 0.6889839134464198
Ni 5.100453968782788 4.758924358716976 6.898435328966359 -0.2879242161856525 -0.38037003012189974 0.22322497623505427
Ni 8.284172461263264 7.367713323766149 8.960103926497297 -0.38531040484631063 -0.34138156467384434 0.659925819738199
Ni 4.677651173205779 0.3586484908323845 10.27662488432038 -0.7376479543110264 -0.32065127410502847 0.11094284429917023
Ni 8.19695421756005 7.168937280969644 4.66094817587267 0.1829663858253236 -0.2762735193206017 0.6847084259995175
Ni 7.307378651249901 6.100631072929243 7.1288915855002015 -0.21284440433167862 0.47362985531901014 -1.3510321788442605
Ni 2.4737215731662077 4.898123520936731 2.60911734155629 -0.5436638772189605 0.6697356067397692 0.37724793955315034
Ni 2.4425799329858706 5.300763638123517 11.534059722060865 -1.3207872639167897 -0.44912801352290393 -0.31241757334132647
Ni 1.039383815682881 3.357370123949566 3.8654290233864455 -0.05490230846483449 -0.26339640624761734 -0.7395150894267523
Ni 3.6157050046575963 2.545576487429354 2.3899233166566107 -0.06588014763257685 -0.01318770233486761 1.0951773323893268
Ni 1.1482713003227023 3.4181378204312423 8.281383967352562 0.1183018557674027 0.015175936409489992 -0.06715772879341983
Ni 3.7612461637043433 2.800537389740094 6.877600561296461 -0.00823704319781162 -0.5665978603073145 0.7626167084412221
Ni 4.118806681823591 6.880795917308013 5.997314261177996 -0.19966261553408193 0.6336476027679603 -0.26002054779684897
Ni 0.5711324485344582 7.134376555728952 11.392344510175322 1.217347155752568 0.03928337098065492 0.27277759035220117
P 0.23267460222339814 5.466232920912548 8.098592823813165 1.0494788019109473 1.6212638628461564 -0.666018305789182
P 8.320257791715566 1.791645678289408 7.978004670774185 1.1196164392682977 0.4200771189035346 0.12267581646538227
P 1.867668448219795 3.375981133130341 10.446079791857867 -0.015825911288663067 -0.4753584079743427 -0.3219694786958197
P 4.058724606620507 6.163942785207807 3.720994781851323 -1.9503082461108865 0.647699452875336 0.1700360509169007
P 6.846550938708778 3.886092385736695 10.381500582347167 1.2989020338079242 -0.2701306396476574 0.7808154908374358
P 6.397568235888624 7.579110210888348 10.159020085976545 -0.2188957527320811 0.6511655570470657 -0.9994829296087946
P 2.5174209083439454 8.551943655884571 5.838659693044883 -1.255434706652909 0.18105322796301074 0.4960131081102167
P 6.866307657131413 3.936458485715496 1.6322459480824543 -0.06594031144655094 -0.21577777592838968 -0.3145716435698518
Ni 5.243938263993754 2.899609664496889 0.3670401344290673 0.8187413193489318 -0.6014219099650352 -0.39704260568157423
Ni 1.4856059907234345 1.203788581223569 7.149924822487588 0.09330481950243286 -0.23127150068861457 -1.3983862426481917
Ni 6.821092738074679 0.7901487531816601 9.18778702538588 0.20068257215816407 -1.0621435418628096 -0.6209072723831565
Ni 2.6803100900056362 1.6706696079480654 9.231187754454126 0.940272994907542 -0.06332807063468447 0.18470985087899155
Ni 6.207642120385545 1.8746780236601548 2.3457305145849374 1.0571538019577018 0.977291224003104 1.3780992102643814
Ni 4.153412513727348 6.969502680892384 10.489876557427827 -0.2271975877295571 -0.06404386575478647 -0.7144568609065437
Ni 8.01071782709572 6.883763935737715 0.5442723328122873 0.5050330522206399 0.2814743467952507 -1.0741626778108726
Ni 7.746203333547733 3.889691897449312 8.040694813235708 -0.015433303835934713 0.09254505851827287 0.7766220215813786
Ni 2.8246243478170054 8.142420261914008 12.58390647930839 1.05683447094507 0.411548255496917 -1.4688496387760768
Ni 0.017137825565059533 5.091739361478558 10.227877211412366 0.3277156371509775 -1.4862521505232404 0.0291046306754402
Ni 8.680199941644664 2.3517260922395873 5.725794702855956 -0.15048923913322468 0.2266705115814935 0.35570980837105837
Ni 3.7960504649255884 2.6167457804139063 11.478511768629113 -0.1143420997887063 0.027266291915120786 -0.5314418812314718
Ni 1.2512047054378939 3.1070101012714946 12.601968991466292 -1.85215818270101 2.3355080935212618 0.24724705018126453
Ni 3.181138391353136 8.40025896932832 8.07542062886322 -0.00024888278601247464 0.03769777166108991 -0.06700423393469106
Ni 5.539919165696149 7.8201421756444995 3.685754750264866 -0.32948224213309707 0.9025543973108456 -0.07043125733836902
Ni 2.956714699937657 8.57995489364817 3.6624761035900857 0.8992734125667288 -1.5820229150676626 -0.5246600824229479
Ni 3.56984054965272 4.442293626663252 9.459531214889987 -0.6966026063339423 -0.7097918513307067 -0.623811590514145
Ni 7.181269442651718 5.995785145300079 11.44014223675918 0.5996398783639479 -0.19795540303498813 0.10065508921991698
Ni 0.5374991162863902 -0.2388469979972644 0.34980938913809306 -0.7319156798129395 0.341214957188993 -0.5321882724791932
Ni 4.560391891901023 0.40578224733592005 1.6397065901534675 -0.2954359511816654 -1.6623488058119242 0.13529787610476698
Ni 5.863081342561738 5.412330458549422 0.3358723323841527 0.18071924166235973 0.7460621465166506 0.6186174479077153
Ni 8.033487670611123 8.734147510670857 11.242285467755947 -0.6519636274683288 0.17495328571285998 -0.2517256547779084
Ni 0.06325578001636281 4.934217872721646 5.7934104929242185 0.06365537206711616 -0.7901995031554971 0.6697021823986724
Ni 7.739292992766116 8.843233464628165 2.344040818986508 1.2326884140953285 -0.28854128094436116 1.1397574329925468
P 8.491040639413699 1.5688728907421214 3.41859159346168 -1.5064489371860894 1.2096734412573942 1.2727839965646337
P 1.6707688426068092 3.0643662620094867 1.509029880853285 0.2469104927774522 -0.2683596637901637 1.2530471802573389
P 4.657705006798269 1.161018443304978 8.088624251275718 -0.15661489241498833 -1.187293016679665 0.30388639594186373
P 8.48573609583721 1.4561784037395822 12.407044155562307 0.457529864433354 0.8219246021729201 -0.28171577338209547
P 6.209482472238612 7.7029731076658745 1.4183736072912279 -1.1866489553377628 -0.6609624885328295 -0.1881625853142824
P 1.9555452492037635 3.292019590500447 5.932167609845933 -2.2115845206917073 -0.317603231307324 0.6169698850019633
P 6.894345958892852 4.131174928836117 5.927533351282595 1.266268049822987 -0.173925615779294 0.0881880671011578
P 2.1853636975218618 8.447142834918473 10.187829711676402 0.9687608179345896 0.1376398939743823 0.9409185989113409
