# total energy = -340860.37471931917 ev
CRYSTAL
PRIMVEC
9.29942670370321 0.00000000000000 0.00000000000000
0.00000000000000 9.29942670370321 0.00000000000000
0.00000000000000 0.00000000000000 13.61065098132725
PRIMCOORD
 96 1
Ni 8.895134294444393 6.005058409310781 10.55369916738419 0.5291795675598564 -0.10852035090060666 1.7345921766583674
Ni 0.687228576224218 2.4379935468882765 9.228947451598472 1.0781188342451433 0.12038059267330237 0.8598931109968933
Ni 8.342571648782657 1.9054990644291874 3.3440692556023697 -0.18374028787687066 0.31183856090940487 -0.314552103185826
Ni 2.0536482340220297 8.072888269321705 0.6279586790175153 -0.48708623793423206 1.2346000292957446 -0.9235911633764868
Ni 6.340972306996592 5.4494269527793175 9.544999633358328 0.357910415566803 -0.5229662396602929 -1.6455582166171467
Ni 7.250856131017211 4.002082752346777 3.7777312890878347 0.40115637073963173 1.4976771045307304 0.07362739567816352
Ni 8.735667722341068 8.49368733554957 12.218485356905347 2.624635843096712 -1.5683968396437957 -3.055430348417751
Ni 6.7193008906727965 4.0622872419547145 11.281188682333866 0.5825952641768354 0.440872458382331 1.3264074383170448
Ni 1.2255807676737367 2.480473328866816 12.178660561300466 -0.7844638862233005 -0.6814847768558974 -0.5925184368278184
Ni 4.054605915353516 0.506316595797621 9.014402233982343 -1.9127986792012026 -1.0523065011677295 0.23842379546267972
Ni 0.8972589220910955 4.763808107347675 1.1139011604682052 0.31224479520888804 -1.0720386894893343 0.19993515246917826
Ni 0.5452821243589774 0.679217119968852 2.0636609269415334 -0.01067984831134935 -2.521660847494367 0.37253433612756487
Ni 1.9011562320771782 4.569059509669356 5.0526408666357305 -1.1165593976095287 -0.8071032208893713 1.108532156429678
Ni 8.905205573753229 0.2893246989698998 9.69806540994155 -0.6808214322402856 0.56658886144625 0.6386908216188227
Ni 5.501382850746501 5.5632612371924735 0.1987901285994825 0.5373520760683197 -2.9527307179639792 -0.2575090942289049
Ni 1.0361142444621008 0.4118995147056538 5.337008971079675 -0.398695567903965 -0.8410224993446355 -0.5028681833588372
Ni 7.99198325548342 0.5961388300691863 0.0053732088500875255 0.12898607495412626 1.1884595261839404 3.8518346948323794
Ni 0.23028914732052175 2.851139184795578 5.532784225485322 -0.8655744776523867 -0.5567950152842798 -1.89013954704079
Ni 7.573815927062019 4.432832205334063 1.182003653323598 -1.6349166777429005 1.7076195047242655 1.2401047611640579
Ni 0.7155230124431109 6.62871517345455 13.248702834784131 -0.4720311433733226 -0.5018993916876646 -1.6145656248903744
Ni 8.255575510339305 4.883212748460732 6.209246855212921 -2.1747046169462227 -1.565256494242601 0.4805234971150499
Ni 8.507608577585883 6.3262513142487755 2.1131487570153062 1.4100605936623265 -1.3334062382323808 -0.07280335711497139
Ni 6.673008343674292 0.18257099818162573 1.8708112722316943 -0.23947331977311656 0.42946395943507326 0.6949635280686224
Ni 6.657255114543021 9.234758663454512 11.03949006817677 0.33673069616539425 -0.15532702684150024 -0.17322139062341782
P 0.45335078007149 3.8997332601279058 10.779445544674827 -0.16628172608079106 0.8351364728775037 0.5260484781300425
P 2.537264928810541 5.967116747648689 6.593911138421082 -0.21632850622553712 1.176977750796586 0.6970764606465673
P 3.776878531643125 9.196714708096762 1.1533465394564646 0.9145861316643991 -1.9037018591062569 -1.054406835340184
P 8.7605529886665 8.031589514556668 6.72989572771486 1.5896035556283978 2.3176003600029054 -1.969392516435847
P 2.607215217786585 3.3264235931014334 8.653910881000762 1.5517288920698113 0.8961459226813406 -0.4537462290212057
P 1.7122941716126099 0.45581326830877483 9.003595370007462 0.17451825505797042 -0.7238568140642049 -0.124868710351643
P 1.8379945247220475 8.536381004346303 3.5255940682602245 0.08514156696535014 0.3347162368385268 -0.34396012403429793
P 4.909837007612341 5.585942539347827 11.727481197404982 -0.4123609812061995 -0.17723848220261088 -0.9927191285223999
Ni 6.334481307035773 6.506799687084444 2.217624098218479 -1.6609992337625652 0.8774797137304049 0.9195169933071132
Ni 7.827671681976676 0.6907632883805321 5.4055522567690835 -0.23478131361408597 -0.4455942893380326 0.3585655326522986
Ni 4.4954359470765155 8.21622963521864 11.267264650469492 0.33984301654213084 1.1522763913951641 0.6053207307988091
Ni 4.008750441418276 4.9871803409563675 9.720155268547465 0.014878973994361474 -0.5838466200854332 -0.60579818465586
Ni 6.166087285129604 0.6805757662357227 8.595085496398825 2.234980273907828 0.12608947013262153 1.2018421181384336
Ni 3.852148092793365 1.7306047431353209 1.8549957369403411 1.14292708896978 2.6393296976634613 1.4234748101857033
Ni 5.635294597789182 0.5119083411793407 13.454537279243672 -1.3004328686301538 -0.37240346697665544 -0.7126344629858243
Ni 8.606303395041714 4.438365364326452 8.918134566941662 -1.3374721807716385 -1.696052882932589 -0.4602822303675105
Ni 0.9921000570486979 4.30943811009036 7.146599326345671 1.4921140086206561 -0.18494819214204278 1.6629306464573232
Ni 2.519010153849098 4.2739700959778055 11.564834221309393 0.5691409384441424 0.44027724800049334 0.3171908263602537
Ni 4.632277013585754 7.463013255811079 13.535302801678789 -2.0727776029924176 2.220805525069343 0.1616390851024571
Ni 1.7070120971459264 5.997442178697728 3.1956039054956764 -1.1518138499364485 0.5090226329960071 -0.006368108309872904
Ni 3.099294391034044 0.9673170844189241 11.172942423531678 -0.694964556509887 0.1564346580833822 0.11622157619960628
Ni 5.564535258674754 8.91583481867474 5.729104426306018 -0.9339444815863529 0.14126077855642125 -2.1057098349440637
Ni 9.143270901829103 7.789209252409418 3.6425501702763126 -0.17352375235518502 1.7955982840280946 0.6492302876975657
Ni 3.0037799775704763 6.594818762484372 11.02886082325526 -1.727393344917083 0.2723466734623697 0.6667117323117807
Ni 6.987282475015081 7.564181720816448 13.321179778042918 0.050095631104810495 1.4229127670346464 4.601485844251868
Ni 6.844703662122139 6.604666855548136 11.518653267433425 -1.1203396905875673 -1.3018752575036354 -1.3873904057583202
Ni 4.932146332692578 2.8030890461171385 9.074997299519156 -0.9482413578249991 -0.000675171690153676 0.8668538585854426
Ni 5.78647538054424 2.3390104471992292 3.535924801578955 -1.0762293305319142 -3.1969140416182555 0.8595318710027325
Ni 3.5454250960774822 7.1711693420999385 8.609199236571511 -1.2923614044759293 -1.0271328301155795 -0.8780227307180685
Ni 2.3011989775134283 2.45364448232389 3.718688297896954 -1.499076555981418 -1.7424204144535345 0.14022796641653268
Ni 1.763487516575801 7.991871662360884 7.285550432813519 -0.47490049450131766 1.2018315766154721 -0.7741905293217506
Ni 5.507948246122344 7.6592404623629955 9.291229433170948 2.240216582606103 0.7538122227757146 0.46480377238694787
P 7.6451611300697575 2.6507644338560903 6.737585423800249 -0.04706018671259637 -0.16043426616107853 0.2092245481909042
P 0.9856090570878789 2.747292484849355 2.1101543415606017 -0.17956738744610365 1.1348749080892648 -1.2649614151964215
P 6.929365644419122 8.397401069655134 3.611477065306284 -0.007556215080703116 -0.2515572475208442 1.8109176879939846
P 8.324502862358775 5.271882294825231 12.876465375712993 -0.5580013768875552 -0.27838619478823023 -0.1709621622755959
P 5.695089912614489 6.212649515507568 7.507458006688931 -0.46429032308563917 0.4778837454993577 0.34936149755552737
P 4.16419966111032 1.9852602487614834 12.776985686628661 -3.1571892122248078 0.6757504454752813 1.7109423984499115
P 4.632304911866388 6.783541331545771 3.812125219395984 1.4443737651218995 -2.370007412849712 2.188317579743967
P 1.9419435183639278 8.49798367076719 11.876559379742934 -0.17276630536387022 -0.6894675379510578 0.017952984933994887
Ni 9.31058619021743 1.4191948352729444 7.383928139812811 -0.1802746979257734 -1.5303069747506095 -0.3643939664086176
Ni 5.923707022982353 3.046882821149839 13.330802824976235 0.46925435195913384 0.6758520040501522 1.5834681321546213
Ni 2.0084065222607355 1.359371622167003 0.41541655795089977 0.4055974372301208 0.21213246586631854 -0.6302015532008888
Ni 5.313236846151537 1.880836984348827 6.898871893743591 0.32582150545205824 0.899937785623605 -1.6744826129609807
Ni 8.642413069608846 3.034300696583954 13.575998953582133 0.8790588852920665 -1.6291165261213556 -1.4774291529149717
Ni 2.5256034475055746 2.118474538788316 6.171096886388763 0.23349704758502368 1.5644440256436347 1.4685189949095354
Ni 3.4617209547489294 0.6361496142116257 4.727169295391185 -0.014595638425987765 0.8285387650553279 -0.4944136248335808
Ni 8.92570151059226 6.392928204963776 7.9763723075833814 0.17272311083076058 0.8865868182379957 0.7080219039144774
Ni 5.676714245103633 5.16465060349543 5.527162721937593 0.018176156688394503 1.7660239128050874 -2.51564498031759
Ni 4.01152167062791 4.490693239368754 7.098485021621773 -2.7839529649342123 -0.6303761311055401 0.32249629773356714
Ni 7.4459674063437715 6.95097751248351 5.2438845103237455 -0.4918584625118949 0.502261917233406 -0.5040832867128608
Ni 1.502499101245745 5.209129762252731 9.292400231014884 1.6423633638289328 0.10066048853655567 0.5134845254221028
Ni 3.4089653060702405 4.2488709428341815 3.6486478044801935 3.1748357216619776 1.3289744277132727 -1.8013832661409879
Ni 5.263038539864288 4.269655161906431 2.3408005868732373 0.39658752042202666 0.3033184392535357 -1.3066191999465238
Ni 3.0137117654761423 7.671376214438738 5.130452891094405 0.11283569044650892 -1.0021959576645838 0.36416385267568246
Ni 5.561224662706199 1.9640668549066038 11.333480289611344 0.6820126243349093 -0.2580084024628266 -2.8463456682388206
Ni 6.804381347179287 8.163334495136782 7.344103344207931 0.5039637304158612 -0.946959148678466 1.5000862281928553
Ni 6.103976413011683 4.07386502841778 7.414416310832215 3.8179529544832698 -0.8875473823790521 1.792085899999462
Ni 7.452607197134638 2.6093261876878833 9.614087865462785 -0.45271624509479447 -1.646938641904441 -0.06827410178605015
Ni 1.1822361389955471 7.592098600304096 9.491401456604494 -0.03075013669866317 0.9951387937074863 1.711073267600821
Ni 3.1872576698727038 3.7063981753350372 0.47342731275832617 0.3428432368210353 -0.425428613023435 -0.39416014192745663
Ni 4.544369531308361 8.805878395269696 3.1935896496339096 2.326425414493703 1.6139102506945624 -0.18772755465939284
Ni 0.5886109440114745 6.4467904854409435 5.651959170754492 0.5511221332692187 1.2745223194119792 -0.19922398533476657
Ni 3.463208863049404 7.141634362335526 2.160990588531679 -0.3647711472423782 -1.7086111792135734 -1.3692846972965451
P 7.780012119227112 7.7607344073090925 9.950161713290896 0.5157123863113571 -0.21309765799306524 -1.5585065771132771
P 4.726675495823965 3.2158348086686868 5.147684729099272 -1.0392440115568164 0.5534456391960727 0.5062463558024507
P 6.737434773084826 2.4840722070685874 1.6539253888703818 0.6518196456912967 -0.4609075226563352 -0.1102476180043585
P 8.047286947126672 1.5058747932024457 11.855231144198322 0.3261956009620253 1.5878472350589234 -2.9823791369580315
P 8.929988546383003 8.102069870864756 1.058634666532466 0.2379360571929838 0.7252598650593187 -0.6117145501402949
P 3.8295039883455226 0.3876838071154359 6.8247619711250325 -1.1138962489550688 -1.372282089361972 0.18020219281662514
P 9.06066409287215 4.965038405559936 4.227236756145286 1.185742127252777 0.6638446951766309 -0.7539898860041596
P 2.884552025568102 5.824761121000818 0.35976506774241274 -0.6013370635607127 0.5204396165836972 0.2033755456092949
