# total energy = -340891.48406290176 ev
CRYSTAL
PRIMVEC
9.00427187068287 0.00000000000000 0.00000000000000
0.00000000000000 9.00427187068287 0.00000000000000
0.00000000000000 0.00000000000000 13.17866204849637
PRIMCOORD
 96 1
Ni 6.16183038671326 2.0024420281656297 11.58758945558449 0.5445020568495397 -0.8566167542384666 0.2070491378061402
Ni 4.635795382614644 0.23895716959487526 5.896739218240081 -0.6958608430719113 1.5887358083114638 -0.02001398122808166
Ni 2.5343603887419937 1.4203518643402646 4.659816979295851 0.6696404759228016 0.1714090200050274 0.788493576207984
Ni 3.4280073659590844 4.502415102369229 4.902883698604087 -0.9244038890857692 -1.8598002726273004 1.0392584097345199
Ni 4.953736224811744 4.6937468768197 2.5576751500759203 0.2601367616597391 -1.3308636743161855 -0.19744555327810512
Ni 7.141098985806651 5.966086519012247 2.5815940980570127 0.08316258886210838 2.143527677122786 -1.263173212947747
Ni 5.171576575853217 4.284475704336417 11.743189577695944 0.18804534301012776 0.33212816439637644 0.28958180639373354
Ni 5.622474497514555 7.884527694250753 12.349460713815853 -0.32516150327055615 0.09391931315798019 0.4711569682984853
Ni 1.915289680059549 6.165279022866233 0.4724172311704549 0.5201508816986848 0.7634119506490079 0.6423122204214937
Ni 2.4927426438358764 1.5204703640397703 0.18725734139767666 0.07279178715074561 -0.8058246112872639 1.3782979565387488
Ni 0.46531646231866697 8.896634873108882 4.977462481373322 1.7693802308718298 1.2594178596703731 -1.1948173500811679
Ni 8.623652360707595 2.3722114596486676 1.3176986620896836 0.6467424882787055 -0.29978522928929663 -0.4783375452073245
Ni 6.572263110276787 1.1083448373515457 4.890772952844951 2.296025462045607 -2.55818953854802 0.9563696433590883
Ni 0.4742946218699195 7.0152102598152135 2.122172732577384 0.33197698353049276 1.0490244879823483 0.9467038381345502
Ni 7.568306667994172 4.083104166672982 3.649039731403244 -0.6171182376543695 -2.824616504091845 0.29910800071661386
Ni 7.702875512135652 3.687897666959788 12.283804264111842 0.26397619001048733 0.07011732564237602 0.7715062976213681
Ni 8.19232072197161 8.887639605440944 6.9229092690139105 -2.9865204128199143 0.7015512085884692 0.27579452280165406
Ni 7.017893532853297 0.6419694726527491 0.4379416747670493 -0.4768735590672884 0.03663204940073691 -0.6890972990958326
Ni 1.8582476173204205 6.481941258447868 9.199233336347623 0.8937499116453382 -0.5376418393945966 -0.5600667440570162
Ni 9.011115186552493 4.814944377130461 1.2401664781241681 -0.295437236733246 -0.8732070544969801 0.33474811851772673
Ni 6.090543565765243 2.1998156690877595 7.090964100072604 0.7409369094749434 -0.4021112784537333 -0.3671679296093289
Ni 3.4264406226415454 4.00336233437342 0.3752269207057977 0.046891265234899886 0.589414601091514 0.14018271500089405
Ni 5.987057468360224 5.668531348487034 4.7268438791891105 -0.07331474953375115 0.8414536733447832 -0.26073300048284126
Ni 5.27626024142624 2.506168013298235 9.482007994483526 -1.1664369991662622 -0.07418506795384643 -0.8491785527928666
P 0.14595924814542538 5.543714130856442 12.320665052152123 -0.05427933016885491 0.14284406388314108 -0.6368288287094195
P 4.0148517853687045 5.999573406356654 12.86951684653862 -0.37921380503026947 0.19584607000146917 -1.1200838658230194
P 2.2830061375402946 8.234073530956826 1.3937757557097141 -0.1848584606417139 0.3853389440914009 0.14942145999034268
P 6.285513066079426 7.948250926769271 5.805780764385014 1.616836680312738 -0.6275648869089901 -1.2406560056818374
P 4.47275503059927 0.8796075164084323 12.601330909799705 0.3717046411374179 -0.45449262026892695 -0.9287415972291747
P 3.943132759367575 5.869587736632573 8.084120888206064 -0.18373206034675454 0.632808908916749 0.617837118098265
P 4.659548651992043 1.1941645532105245 3.710676674113292 -0.8552525269010883 -1.4164952935440767 -0.8400390523854435
P 0.091066505118346 5.533818435994516 3.6635492152071634 1.2621707398251618 0.5151148619366741 -0.6980923035055914
Ni 1.2743025734754405 0.803190061309074 2.6311464073965505 0.5620390372920384 0.4416116505412008 -0.8083666609828273
Ni 1.7663680264459036 6.59567421732047 4.675301625750859 -0.3452467040562054 0.4957778521709591 0.91270459837097
Ni 6.056642481911603 5.555212586123666 8.980348489761123 -0.7891209253793378 0.2528448559840162 -0.4535479969674705
Ni 8.962888306042505 2.6294725132429266 10.253038398132132 -0.8482300728366682 -0.8572122217306205 -0.44433162057552505
Ni 2.108575381520974 5.45732714586525 6.861365070304844 2.073519366254448 -1.1317988402671024 0.09169608025441627
Ni 0.354803431091766 0.03311230963170804 9.46424346637334 0.4604961461505296 0.30458470756046896 -1.1007054612964076
Ni 1.6337621135873175 1.0399844047839906 11.22091929450316 -0.3232342043408562 -0.21365790137190946 0.3895786932043613
Ni 4.093170942701765 6.930092877167546 1.8046595932974296 0.36947318070373786 -0.13969317695898523 -1.4329426404668224
Ni 5.837820665228683 7.94174083815674 7.898222291444115 -0.8983200475145239 0.9853220647273805 0.9016228866355117
Ni 5.259971513487001 2.8546603501873404 4.6594342977384064 -0.8526996785722475 3.6967436952610853 0.8739735003493594
Ni 0.8356153449917694 7.495750244702633 6.900847902334016 1.5513056884894638 -0.6118510757181592 0.5055259326966584
Ni 5.092257944334829 4.697276551420133 6.703378816129323 0.554382034967413 -0.4501145458058893 0.5997283243126962
Ni 8.187422398036317 6.945796327430694 9.158471897702986 -0.25408078527364625 1.9181738274701867 0.3381872261062627
Ni 4.831007998271203 0.19425726240373797 10.353947472907958 -0.7211674401574999 -0.24013537883714775 -0.6136806727277302
Ni 8.109139257791016 7.198042001554441 4.759342097474519 -0.7492035203591098 -0.6716521070361917 -1.0175135618582607
Ni 7.417899309510447 6.427537447387125 6.906409841111278 -0.1873064079615742 -1.5396778744425481 0.010700931357271893
Ni 2.2354545774257972 5.300490737216451 2.7429803653170315 -0.2567123093592224 -0.9814582108966 -0.7732461631306102
Ni 2.284410803962915 5.575652283427189 11.499792401607515 0.45861641262931335 -0.722820916600523 -1.8008327929541565
Ni 0.8176230088015048 3.3067198229289247 3.7305761151004226 1.0741333672348339 -0.4558645609157891 -0.16382837944429204
Ni 3.1939593254258303 2.962036293070388 2.8665036690698624 0.918778829589508 -0.7784799007257238 0.023400124091495184
Ni 1.0296294920531306 3.2914665862627714 8.129284515402105 0.28743982035006627 0.7049378656725149 -0.5412588673218937
Ni 3.7226991780074172 2.8713722789077547 7.231302881673157 -1.1274482766078906 0.5805368389859098 -0.2687833815911435
Ni 4.216826609252112 6.903296163874469 6.0199599784557325 -0.5848210681835605 -0.578621624241068 -0.15171642667210644
Ni 0.7856407352982514 7.536179425712687 11.404800934350575 -0.1775310737423652 -0.7013761164631857 -0.42393300231451503
P 0.27489772104289906 5.624635522780126 7.860993228681494 -0.9068954478883606 -0.9953167140462471 0.15892605704666823
P 8.470480690738327 1.6597844594935656 8.018847120059498 0.2787402356935393 0.8074508340367773 0.7388666572094759
P 1.9934197476818718 3.6502418017072173 10.142707253198415 -1.4365678959242356 -1.1626405082383073 0.39209297498578277
P 3.9789427488724707 6.118627889945724 3.8629164019367823 0.21640255399658215 2.173472287201018 -0.8437581531082436
P 6.742569909747643 3.8635710125068115 10.16743028266374 1.3071745582293615 0.21401348493911526 0.644468090422232
P 6.292905573342066 7.541383894893936 10.007309115611275 0.09896561733263601 0.4969006529214926 1.0221762574412525
P 2.6202611430484315 8.527702838916253 5.932348412480717 -2.244556604742354 -0.5802167366423298 -1.1580282062772764
P 6.83587217558866 3.868478340714045 1.435472738208902 0.3724752007548553 -0.5544558256281419 0.2507884876756197
Ni 5.2226668148400845 2.471663643224622 0.6384902219751802 0.3505048671313512 1.0124407753210434 0.7333506124872532
Ni 1.3999121670367412 1.1090381662909163 6.966715052001418 0.8022998859634569 0.025268801869117775 0.47355914998207477
Ni 7.088577067581342 0.9789264367596765 9.4730856614183 -0.3089239583657712 -0.6264279450910695 -0.6663738893563879
Ni 2.664274024290556 1.5233067097008317 9.04447601408974 0.04237100876704316 -0.12218576420284118 0.9274676156127576
Ni 6.676739677595193 1.8170260603796582 2.6736213589913436 -1.1263427022485377 0.8650777405216263 -1.1985328512595423
Ni 4.362758844581718 6.54832075118865 10.669102393366858 0.21906107466535177 0.5183950753498426 -0.7091537035260754
Ni 8.005374027955858 7.07616918084819 0.10480432281701814 -0.2652799964235754 0.1571990470532325 0.29291627008360527
Ni 7.571097992295534 3.9080160988020505 7.8983411478337215 0.7426724041088112 0.17865207472068587 0.33129229875864236
Ni 3.078461529253013 8.05111572941044 12.219439927431203 0.11871760314858265 0.5229495274897445 0.9805719516369048
Ni 0.07521538479538444 5.053287455379036 10.029963863812007 0.21134802229181024 -1.5582870049033033 0.696400260515149
Ni 8.574290941933182 2.328279616854002 5.843523971075402 -0.1970945976965896 0.35730183544852656 -0.026071500276071226
Ni 3.5749120626581963 2.6339926577567456 11.464342582980214 -0.3788525650361088 -0.7069502681168535 -0.5153357196982286
Ni 1.2169543654903563 3.5689242218181776 12.23611133692789 -0.2435441474083806 -1.0884891217358739 0.7937332273403686
Ni 3.318398363634947 8.200550626524658 8.060385627372543 -0.11136501943825336 -0.5516718351251015 -0.19429723745711053
Ni 5.793123459319128 7.90326558415764 3.564683209734495 -0.6408819157328706 0.4188905547946012 0.15336218980564556
Ni 3.1361789123876322 8.211814970721447 3.570152404510777 0.2533233382823315 0.8036420018136482 0.554464053158258
Ni 3.8322811675157347 4.370907710687308 9.73042595260563 0.8564118373165122 0.989698082307889 -1.2653185414255241
Ni 6.995968130679695 5.806845969755502 11.300531465286786 0.3134462717161569 1.0571792558789985 -0.1797252531802066
Ni 0.49782548573040314 8.915147656217272 0.21566311808641037 0.45699713185833557 0.537972483261138 0.3488922712285927
Ni 4.44760609907119 0.43706916081607505 1.7323877049991911 -0.029815797809851875 -0.6640974346173854 -0.7843160477915266
Ni 5.979565914106246 5.635386623476341 0.43829464222709247 0.1199198509867999 -0.1933652125611444 -0.02970961124929077
Ni 7.736533480646917 8.657499418929596 11.369429452889152 -0.4044103589005551 0.47415950257023504 -0.024395141014912823
Ni 0.1154230607157165 4.778666165484692 5.734035625995259 -0.5984399445185757 -0.4142060048347383 0.25545478280303746
Ni 7.950303900771563 8.74674976239767 2.44551163580244 0.050473326159203406 -0.3880635421114155 0.5374595481804615
P 8.527459723573877 1.4435738816732104 3.745929299185109 -0.2585519336711225 0.5675008317375582 -0.005819177784938366
P 1.727082387972215 3.205736913123191 1.3767747898600302 -1.2338603229162428 0.3708417789164904 0.8318716860833029
P 4.493671954315607 1.0343027091899273 7.986295776569645 0.8824308870880931 -0.12510396629090068 1.0494824014553732
P 8.650368035553212 1.6143849203726996 12.214788320547065 -0.49420973635289084 -0.3036136018964513 0.3531482182914692
P 6.255006592747119 7.674485042709215 1.3057842094588366 0.21056974936488895 0.5371170772393782 1.1107193938889839
P 1.9180720000889713 3.143823539264589 6.022885466408999 -0.6165780488801833 0.3333952040342581 -1.0097141204184998
P 6.9476422031783684 4.03365270517917 5.715137460047843 0.06515278254824908 -0.8306097886517437 1.4609674078145225
P 2.4858093544421704 8.268388811319701 10.088766261715381 -0.02870610968544088 1.5487618390216875 0.9023384246452977
