# total energy = -340890.03144072613 ev
CRYSTAL
PRIMVEC
9.10335753881723 0.00000000000000 0.00000000000000

0.00000000000000 9.10335753881723 0.00000000000000

0.00000000000000 0.00000000000000 13.32368393953991

PRIMCOORD
 96 1
Ni 6.328180916691644 2.188092166440701 11.235636296141594 0.955826883481741 -0.2017398097780848 2.0940611949615415
Ni 4.875476194093383 0.42764934624211687 6.300331014399708 -1.1742330981719131 -1.4116536491810592 -1.2302772335506746
Ni 2.836023652606996 1.4883534714542808 4.777100758824594 0.23876215263870496 0.3644397320448885 0.7775090521720223
Ni 3.5953165138385854 4.678279259027218 4.993463903247619 -0.20602301053447097 -0.33513069866812606 0.15392037630196073
Ni 5.250652876065586 4.391523490650143 3.2127397123707087 0.683715723068945 0.44583674436614185 -1.7648759152435736
Ni 7.381120788099084 6.052804345472389 2.672797717567902 -0.8477988988365205 -0.06353453021853574 -0.5761605642950851
Ni 5.06641912240161 4.540645593563949 11.426498204566057 0.9449565164261403 -0.3989771037001258 0.3509645803765891
Ni 5.687186189112757 8.102580094620352 12.653542523495465 -0.6782935236121093 -0.5244358822272839 -0.07027519137647897
Ni 1.8783140063739237 6.466570160846193 0.3520796427491451 -0.42871191176039714 0.24779880891967646 1.1970817206353126
Ni 2.682859658862733 1.7254413200769012 0.468822012566429 0.3561234988697093 -0.6013085243156225 0.5068953022403593
Ni 0.7356195794644594 9.214327656939407 4.621586278115411 -0.027230039360546653 -1.569687276320445 1.379334368223063
Ni 8.624521109855259 2.6012662635622976 1.3382837090011723 -0.4170630146675592 -1.0555450627096852 0.17928945119436865
Ni 6.632415131903131 0.8968709962127285 4.6494999039114315 0.44234930003817363 -0.226913480830235 0.016819899770816195
Ni 0.7533137758769839 7.266463997536885 2.7698076491777526 0.5038547156418226 -0.34169935302457927 -0.6246680249771693
Ni 7.659829188246149 3.885941209249319 3.938401128818416 -0.04252630339798483 -0.6950072368223643 -0.34348729816293744
Ni 7.728486712217574 4.020925797614248 12.504237443091364 -0.18356211042779355 -0.8149348011186482 0.3373127939211094
Ni 8.120704879853328 8.916065244396345 6.645800709103819 -0.09002692008210947 -0.5054698826477424 -0.24836676560800455
Ni 7.049804083651985 0.7113618621313041 0.5114175337033551 -1.485409600017287 0.3304384353987793 -1.6657891989520408
Ni 2.0171220049838805 6.36050693997758 9.467903507075823 -0.24921060166553854 0.2708333221416368 -1.1842169488575025
Ni 0.018677359046960138 4.91769756722776 1.5115588406342808 0.42487376896122964 0.6562203458621537 -0.3097210003457698
Ni 6.439560498472391 1.958578311446326 6.928782225367588 0.5270710058572857 1.5213196836503349 1.3190767089835864
Ni 3.1465938047959576 4.36240184928385 0.4307281018251367 0.5520839829618556 -0.15448884721092104 0.6306913483531138
Ni 5.935534891242756 5.894369507604624 4.914827278536672 0.058789302224066496 -0.15016399458332202 -0.5234956298012016
Ni 5.239319195696397 2.8748403699517535 9.360087889844907 0.6355545899826861 -0.1276832969823027 -0.8005147690385762
P 0.2154528086503994 5.617918740173671 12.571642345039656 0.4139501800701903 -0.3463093409927649 -0.21746030583713516
P 4.265187092125158 6.061361501735071 12.750365836271929 -1.0967966131603046 0.7372810578899109 0.9221644582322892
P 1.9077451619029104 8.572249629791095 1.2924801646015136 1.2694112234376589 -0.28756734706686604 0.05470896150710579
P 6.483930264030164 7.890890614053987 5.5194695677073 -1.4598600336829568 1.2621820526790715 2.2507591340086397
P 4.763905441800386 1.117364334036156 12.830375247327996 0.026271274991703144 0.3312971838546488 0.07816744964036217
P 4.0375849422532974 6.163564898927751 8.394720499092507 -1.6685773032201392 0.5093391357951615 -0.43204046191299794
P 4.669257831520499 1.228343368076947 3.4738704390841444 -0.9876296298146345 -0.9745470855990637 0.355907011983529
P 0.23891762352559773 5.3683592914660805 4.104640275264901 0.11226259155185828 1.623848849964513 -1.34690067317439
Ni 1.475117189320304 1.1371641370907637 2.6826839640586164 0.5617765276592712 0.9580313473322276 -1.6246700603142277
Ni 1.9634941246185043 6.65447256767385 4.996248620376081 -0.4506948437893916 0.5361845381227798 -0.5720781666955954
Ni 5.970227787537519 5.7463671176911495 9.006557171874196 1.340662148463846 -1.0411455994549037 1.8813168065428374
Ni 8.778340545355812 2.1973138678173987 10.200559033264614 0.1987845838045028 -0.390513803424121 -0.4926794157512935
Ni 2.4158490733939084 5.327612662283357 6.936363501682013 -0.9460633763370739 -0.5109206213496685 1.760250243546104
Ni 0.7223268565125799 8.923320620504171 8.901726545641719 -0.36433380259464354 -0.25494621859773514 1.2497854787869316
Ni 1.6344441562452428 1.0514469207403339 11.615667798789207 0.14284817764819915 -0.05183061151804623 -1.6303935930615665
Ni 4.2540081688373155 6.543347879909439 1.7596854208357593 0.13314354876592555 -0.3553190006905429 -0.5004685727784091
Ni 6.103892389032141 7.69596041506166 7.8500483996151385 -0.6035358709842445 1.5901200902535 -0.45646954148963964
Ni 4.986919499378214 2.8360600660379007 4.994582705912176 0.7090197490513724 -0.6466473574617378 0.7447151455704529
Ni 0.9837725594033442 7.4643618911479725 7.019423447912149 -0.2811778986007545 0.545704561798073 -0.029037267772614506
Ni 4.973756044106047 4.709567499532362 7.045324321314895 0.8776812882182496 -0.6110581475032185 -0.3398818401998662
Ni 8.218993833223719 7.00354081968715 9.066433596982874 -0.6224841299519731 0.7484926103350141 0.6280055739908347
Ni 4.66626282682856 0.5087029124293855 10.56161822807494 -0.6509457277267757 -1.0864458660535998 0.590382621431738
Ni 8.133668061255518 7.37923639304975 4.41689454863322 1.2761958504596602 0.22211683077254002 -0.061346264317965325
Ni 7.664663071198791 6.325377082511958 6.615461948809524 0.3605090295319146 -0.6922821245817175 1.103235426807113
Ni 2.268183507716304 5.338591311701222 3.040664403285921 -0.15427673120011495 -0.5357117122514193 -1.6361407799579888
Ni 2.452335331160744 5.067793729418275 11.623928185590012 -1.1317145080834121 0.7728520130159852 -0.33246215069702745
Ni 1.1176738481988486 3.2693707904499765 3.943384306837769 -0.7541143273971658 0.18252672718474372 0.33608406372033084
Ni 3.348060214635737 3.0752143768643814 2.978176224845579 0.246380331305595 -0.7568180994815741 -0.923247663994139
Ni 1.3800144111541042 3.3261393292309114 8.138372676528446 -1.4745348620863121 0.7036073197865496 0.31029255657852367
Ni 3.668106962217731 2.899692536544433 7.5621237601060125 0.48297710086186496 -1.2064937579778316 -0.7867763364065612
Ni 4.165232224290864 6.871050551339215 6.34110131231252 0.0599144169674452 1.434067498099885 -0.9181026294580898
Ni 0.5392501396156113 7.338981345184243 11.16307525237715 0.8905576299602855 0.24527552827719049 0.43417062088212327
P 0.3593823563171479 5.669380021400198 8.050196643256156 0.4535446545333608 -1.8057618548246577 -0.4342189576215554
P 8.486359449643867 1.3971560337526447 8.015448216479262 0.14443660518124157 1.3720154659641468 0.369525374097912
P 1.8008171220503035 3.1069304751826587 10.347745762325818 -0.6642002787438367 0.461170803620051 0.7472289131312422
P 3.9735519240068102 6.501126506775062 3.9615309401292884 0.12924061416709354 -0.27454779487874653 -0.8556289364039007
P 6.9349561225775345 4.221563801900937 10.331797589925188 -0.04880647997974175 -0.7786614206089105 0.10287369413779059
P 6.199978329832777 7.728313748420775 10.263446849109137 0.48940948675077 0.5640522110673254 -0.11149511725821444
P 2.61896319098214 8.642454724575984 5.854693433290509 0.022567086667238553 -0.13218761261055942 0.616947259294144
P 6.840991264127117 4.128591209442681 1.5857184340154555 0.6769889458680727 -0.7684572263823991 0.5961573191319861
Ni 5.129323324290041 3.0990105539608153 0.7211470613512572 -0.12342220771310358 -0.47394815789037725 -0.9180049275379609
Ni 1.4044023065027447 1.118074395938804 6.978573040451347 0.1911088124267999 0.2679428879677192 -0.6394683232147954
Ni 6.764049684624799 0.7541385400869827 9.260133932346385 0.0626259023613373 -0.8085600079405559 -0.24869920924675878
Ni 2.5934828927063482 1.45671930335554 9.203827844137944 0.4207836580522559 -0.8569227155146597 0.6836571019168678
Ni 6.326023420910521 1.8588419241974616 2.4037789313846654 1.253287835513235 1.1631033068073389 0.3235746183994105
Ni 4.122965334367855 6.650011922387985 10.646023650577014 0.6247256176879822 1.45234855579726 -0.6280482543033119
Ni 8.399677277374455 7.4499057590786775 0.4091859161017237 -0.6500946925803901 -2.501386413516047 0.030610268686689222
Ni 7.898846948706735 3.8663052666337836 8.314072032324058 -0.7142830543328409 -0.279791302665873 -1.3334897990851227
Ni 3.050198349832629 8.06348117318608 12.413689985131382 0.48808562573302394 1.0409028873164785 0.4904667243706907
Ni -0.017986414195537283 4.62069141805092 10.24403484909367 1.4108046709172024 1.215399287997578 0.5034541377692943
Ni 8.502918457347928 2.1075729673519636 5.677727800435177 0.4231794119779422 0.6260479360438314 0.7746936942104142
Ni 3.4697994175089626 2.7478758397436556 11.697635342092193 0.8188135673477639 -0.5327893963983018 0.05534119577446597
Ni 0.9988477197980248 3.305775117997276 12.553881694115729 -0.29126022253742095 -0.06863071379452051 0.22627713279781675
Ni 3.2781191172249087 8.468434938280868 8.043894388702268 -0.6981234138538428 -1.1318032111424767 0.4500343273872572
Ni 5.590936387873048 8.060704649079572 3.5136020438803905 -0.46582732855545583 -0.13343176943030569 -0.16191804979545663
Ni 3.04669355710802 8.521753304483552 3.6121841253695655 0.326290988889309 -0.5171475760959868 -0.7386686822660569
Ni 3.479294219617448 4.331140918851885 9.569483324264256 -0.27944831750415744 0.3626021646155175 -0.7331526375438342
Ni 7.483424322226753 6.248726810456879 11.517099372336624 -0.9290275039007097 -0.027563254330249302 -0.9233186264413904
Ni 0.35750888529708436 0.19406629034410533 -0.015659595960706162 1.0354863442865974 0.8788508830463188 0.49440385464156783
Ni 4.332005737835879 -0.14397051277651668 1.4419554777950974 0.19068972261151032 1.0893658679138722 -0.2639023993497584
Ni 6.249154668270013 5.719512212398693 0.1952369821477019 -0.051881776470955814 0.6222894974426637 1.017404804194538
Ni 7.746839081393707 8.753888926503087 11.526811744694767 0.06935036556936444 0.9256508741189929 -0.5604377542431896
Ni 0.035261856152653946 4.478314903212272 6.0377073370191665 0.6894487688979803 -0.21618298178660833 0.7603366541577938
Ni 8.429181259765251 9.064395355187965 2.219725424203669 -0.3121332093316882 0.07479544784433571 1.3001955558083673
P 8.632550271369817 1.5550810835877398 3.644867000278371 -1.2061998808864969 1.1568714669650142 -0.8350403136192714
P 1.6331150660172091 3.408743197238961 1.6113534893725934 -0.03256096465515683 -0.5918538066606259 0.29152658882493016
P 4.675712112148414 0.9300445421029794 8.342305185976269 1.1092872894281476 1.6446362190235095 0.2899553876830684
P 8.361597932005523 1.7377035429341683 12.313455644214892 -0.20539668980438175 0.7530365209519547 0.10502776436631589
P 6.605724087049747 7.876598342423764 1.6002410205961521 -0.6316015188722091 -0.5378549838466672 -1.0621432847524934
P 2.219180133075866 3.2066486557160703 6.007702669953425 -1.011967949449683 0.11147969063924672 -0.0951758112729006
P 6.810212811654644 4.1682272289828015 5.995924745727194 0.5976069070943192 -1.0416593058665284 0.5005601040509509
P 2.4155668693043943 8.419386046851798 10.350078042575284 -0.2610068229695182 0.38369549495070693 -0.1883387058808305
