# total energy = -381173.63318909524 ev
CRYSTAL
PRIMVEC
9.16963629757783 0.00000000000000 0.00000000000000

0.00000000000000 9.16963629757783 0.00000000000000

0.00000000000000 0.00000000000000 13.42068960254614

PRIMCOORD
 96 1
Ni 6.1389888510946555 0.032943751664066837 12.427612409103354 1.827498218060485 0.3295352068582196 -0.308973580656784
Ni 2.0417386858841855 4.032136579170294 13.380870357128021 0.9301847574336044 1.4343683171697554 0.582266677192823
Ni 3.2937974793315488 8.07257167902308 10.454234277407044 -1.3368101217076074 0.5623285435079993 -0.1397890791069012
Ni 5.778750526749587 5.76653657144674 0.44889770199684337 0.5931912945251268 -0.8508664820182508 -0.9590196793874257
Ni 3.6440500699492904 2.6725546326589833 7.954657494315598 0.21683964153400076 0.3464674638371839 -0.2666123420817537
Ni 8.727806366767457 1.1699080235087727 12.207995956336614 -1.1096870959697276 -0.3723736421799845 -0.6361791109405625
Ni 4.578353463164264 4.4065603305825585 4.007203421614761 -1.8841738163756583 -1.9449433822545474 -1.9980160937098106
Ni 1.7971203032910632 8.775827751092537 8.651768076261957 0.11922822423641402 -0.45976441019082753 -0.4865061970610461
Ni 7.406590177753975 3.086096051730364 12.73993846779309 0.06924495033975171 -0.12532842359688096 0.25704295322576376
Ni 2.7445729546924342 1.4062095461471789 6.359017937486492 0.6011511728021518 -1.1516958363013456 -1.2393941082502784
Ni 4.423817585747692 0.3706211033161 7.9142744168728525 0.03983487260875075 -0.7157760939385995 0.04572886949568253
Ni 3.675061779284296 2.3784110454182072 2.3400177790120362 1.1001537025579957 -0.1351613505269027 0.747314787976829
Ni 2.627889335151351 1.7054514510669208 0.2648401811136687 -0.0998423635106345 1.2310225963571315 -0.8034041747712293
Ni 2.070971485813221 6.327397364313567 9.260531048184392 0.451139644636294 -2.398262293930347 1.4735712126214622
Ni 7.96646064992057 1.0718295956414698 7.121312711671099 -0.5160869960419564 1.7312399723566827 0.8346338222094721
Ni 5.081931539231628 1.0798988754211283 0.9244442004660086 -0.48834427871104935 -0.391917368639867 -0.23275399877141206
Ni 6.652717714339388 0.568257938319384 3.3082002267746278 -0.37813059926841974 -0.13183151482272132 -0.7188737590273168
Ni 1.5602410935775224 0.1701389302268752 12.103112741509669 1.1012934725893937 0.4831761042465485 -0.7062082477445063
Ni 3.507248268775741 6.323967920407212 1.0804352991337531 -0.12072872004134048 0.59994789652267 -0.8659717130908053
Ni 0.7454079723184487 6.137952682213859 0.42806520571115475 0.37741017616262745 -0.3056123774940349 1.969712618779427
Ni 4.56727654273946 4.09225271352875 6.191138405597921 -0.7283485312869714 -0.5010691824768855 0.9739210219792904
Ni 6.77010739586119 8.411169662140882 8.133676300154542 -2.6446166570940135 0.036031696812576654 0.19238536514637836
Ni 5.589947719177807 8.96189800710257 5.808232740780903 0.11917680217318828 -0.3978663871344503 -0.6511269904996464
Ni 3.989882895960447 4.815571949413995 12.134625112976458 0.27138559510068105 0.6768241381554344 -0.4714536736032977
P 0.07543676237647035 2.2072414480922027 0.787821207196667 -0.04687943816035797 0.35834570333200866 -0.21577571904586063
Ni 3.5685564558289182 7.102396669333079 7.851626545983529 2.075057914386162 0.555647789053714 -1.3710906401570324
P 9.130169999416788 5.547391437976222 2.57254507942623 -0.5392274387141617 0.00853066317883047 0.08460472062527365
Ni 1.811305730358258 3.7082283531059153 6.730529412469188 -1.3909233586122431 -0.9649514714908283 -0.343388310691228
P 6.734712600464053 7.060317209209383 12.481388657053108 -1.041159997632607 0.39244213079508544 -0.6001260739717471
P 2.9254256877540286 5.058429761873374 2.686446631370554 0.4570927768959354 -0.24826983501882405 0.7333125601604661
P 0.9808759750341608 1.4710663823761834 10.420359807677482 0.09679740603672361 0.9378384173241203 -0.909569138065782
Ni 6.10986608679898 2.335047836238656 8.78589417761766 -0.9003339926207591 -0.505963020234077 0.004433867401637525
Ni 4.7712459284425535 6.356556807153696 9.993796588361677 0.4562494550590336 -0.15671825076207205 0.5455055584133895
Ni 3.936799872500853 0.7168757325884656 12.178483482506124 -0.9065776595376258 -2.7747890390467567 -1.417388237671991
Ni 5.665166244214781 5.882596655732123 2.8255784370804804 0.4957683390892623 0.49794426369465855 -2.572941500046214
Ni 8.094991439319971 9.016915823782059 5.166952405273666 -1.4447440039771249 0.4982509963018 -2.6672274525149935
Ni 7.367921822264408 4.197602662833859 3.663431929801863 -0.09184597556871923 0.5032592481496688 1.4004580375755558
Ni 8.33460320059526 4.893147070932075 10.749019739175747 1.0669139666682592 0.3667794359216587 -3.3385062353721664
Ni 5.181156171613088 2.433850665358906 12.37970014344802 0.32511599474460134 1.939192338703383 -0.2498415503813181
Ni 3.740973123666324 7.167446067920461 4.201038525485493 0.08564807428812346 -0.8326486734586434 0.40970297475806217
Ni 8.012510562481303 7.284093008917092 6.53639904631561 -0.09702032068080711 -1.9493433110944558 -0.4863316191563948
Ni 2.743133321822654 2.7784455904947736 11.45730994147138 0.33945452285446054 -0.012072614893817918 0.2642937212509061
Ni 0.7858222265239789 7.096794021667884 4.579958149484082 1.0121227298599924 -0.32788815817309985 0.33715312841479356
Ni 1.3462401259665358 3.9400000755043765 9.486736801462113 0.9857588951544829 -0.10883222571407064 0.3589792231509495
Ni 0.6256818675149896 8.914830264933267 6.468584085476473 1.9820420868790574 -0.8490898497338022 1.282969678848384
Ni 0.4161419278730981 8.728182321848099 0.816601944065319 2.2199989700076475 -0.5605850784543313 -0.5241278640685618
Ni 5.711417888770005 7.989146329664746 1.490608710860738 -0.6041125694233209 0.47583689027265796 -0.22561610217505013
Ni 2.1895073718491807 9.05006405833145 4.194072352930258 -1.1362195950426173 0.9549210838380201 2.055729389260879
Ni 5.344458221153925 8.932041671917833 10.075863914611638 0.7501712835890177 0.8482174744311778 0.17840550592751855
Ni 8.038772400309647 5.403400642089885 12.729846366286848 -0.4143361026546993 -0.40163022505225665 1.7733896091415393
Ni 7.399492879402321 2.1668308617411176 4.948570185527769 -0.6862726851628438 0.29576222417283254 0.9650250050412412
Ni 6.151798832744864 4.176503330137274 10.902403910296496 0.29721258346611396 0.09568540391946746 -0.46029765698647823
Ni 1.02225854281325 1.7803948870204986 8.044777595000213 -0.21783980066374095 0.41612893288906394 0.39403595764476657
Ni 5.997180428603272 5.740934947418551 5.024531451089918 1.141801460005769 0.80148613181291 2.2860680937225792
Ni 4.545773746053893 7.325750665779579 12.428229525613775 -0.37434670674595527 0.3896792233379676 -0.20753173386951354
Ni 6.093314893614567 2.702062521671416 2.1363720814637412 -0.9613488417412346 -0.935380699812247 1.6455541028520886
P 8.766355516987552 7.862165208768485 8.435842402030799 1.5491544464744158 -0.5111011127915908 0.17244723146155463
Ni 1.9930387484867245 7.146025797959913 12.289781774757897 0.9344659013074617 -0.29490527548917594 0.4919942167588107
P 5.290412385902441 1.9163347423994033 6.568796287667328 0.5536868086726013 0.5142867096084239 0.4516440950765383
Ni 0.585447338177279 7.513618170467808 10.300432887843142 -0.929957729024463 0.714681318212524 1.1620152159494825
P 1.8863408626729685 5.271201998245185 11.397950302092266 -0.22618174487053305 -1.7150463933159559 -0.8204953259255611
P 8.880856763133682 3.2008815565960047 6.529057835643344 -0.8165288850786454 -0.5012892689074915 0.3426288068173841
P 2.7473513544347483 8.403916479975303 6.236970080819159 0.3174139981146533 -0.7937211431555105 0.07251539356090736
Ni 0.740273893058641 1.66426144564621 5.18026488298288 -1.2648847963222152 1.2890074004020315 -0.5130741773575616
Ni 8.549136007100815 5.206418519105086 5.501704643005573 -0.3189831423739861 -0.14418232307859039 1.3257860026829618
Ni 0.5245719579486469 3.3414429085759862 11.92314212744217 -0.8793640752373113 -0.0569573912216503 -0.6145574189057287
Ni 7.6898494069283245 0.6199801877797718 0.8915297916375042 -1.9549133489830657 0.8915565035384452 1.1386071214381874
Ni 1.2153068919054644 6.576233779518783 7.113005938316107 -0.1813699878724812 0.2740847391993989 -0.5629540929071402
Ni 7.241307486812675 7.312353827418122 10.321999871981504 -0.2976347586051971 -0.5847089680857285 0.1808053736182628
Ni 1.6566781565805537 3.3243231979525527 2.1149261365220764 -1.4753303614044138 0.3763711933751518 -0.09552985217820967
Ni 8.897499652679228 8.77349866351977 2.947264093121341 0.5775427893545925 0.2503195184590012 0.44984972218027686
Ni 4.8303350635563245 1.9955420591456414 4.46445924692883 0.4763811928119022 -0.2157302105199059 0.24918643329582243
Ni 4.154120248384835 3.830890575392836 9.777750791897438 -0.39752905839968955 1.0699334702208734 0.6601536194782889
Ni 8.365449856480227 2.9813421287726163 9.161365101474058 -0.6859800936230895 -0.7088127752468889 0.5427480502729104
Ni 2.593108905373801 2.9292585956493666 4.356409756751981 1.6047787207069393 -1.035066483140359 0.4898869406078208
Ni 6.735455340989226 3.7189201488139627 6.836070090205453 1.5937959964431907 -1.2390051003419758 -0.8781194041969329
Ni 4.070960818473788 0.06600212377954928 3.0433160314076155 1.2339261431571718 0.2882864846210777 -1.0743547392170207
Ni 2.6164914774625836 5.426012964745154 5.535926641943827 0.5966838810594175 0.7979418661050773 -0.9409615363341343
Ni 8.125021997590858 0.4911843958966988 9.654441193300919 0.5964324271702438 0.6527033338478309 0.796401775311467
Ni 7.816592117285642 6.875044711541203 3.8867391611041855 -0.5991878784281939 -0.43635451590731944 -0.5912889352960914
Ni 0.8917425271953316 4.211274590278712 4.177417542857765 -1.497040499387996 1.2710886111400819 -0.8264505150677316
Ni 4.3805369032931605 4.13287420151044 1.0123186572664888 -0.34361328221784043 -1.3413707444950962 0.4636390626548854
Ni 7.743821885090904 6.823016196234632 1.2495252229892728 0.8403910364082237 0.4260256231774856 0.9137415242759166
Ni 8.657447748870503 5.010390038276066 8.016379231957483 -0.045679761425301973 0.44008287260150014 -0.0767433155993259
Ni 8.638081477399322 2.0680372022569817 3.034914810800658 0.5185961356170553 0.5279143276941877 -1.2172854492766971
Ni 7.582023655872639 4.029541572150245 1.4859652071329892 2.239566350616614 2.0096202536076424 -2.0688749255039016
Ni 8.653999965691922 7.86810713296987 12.44794424325726 -0.2065793972585733 -0.17139076517258225 -1.062598627122357
Ni 1.7760118009583659 0.9662595750696431 2.1118928208958136 -1.0087700113376756 -0.8900953456118865 1.9348062938205455
P 3.352088856103468 8.645334659564902 0.690191174535302 0.04842827070471659 -0.21199696872971877 0.0921269971442478
Ni 1.9998334488466414 7.690775540175763 2.3611418697261266 -0.4317285870995339 -0.5642008208300476 -0.6660226766645562
P 3.2023762072824646 4.850480754097131 7.800534250524121 0.5716081690377124 1.063942285634445 1.2840564841546596
Ni 5.812118832565696 5.176791424823182 8.2034764872122 -0.6233873584925328 0.6860739388884766 1.1741631641659263
P 5.849026617921521 7.810641023448144 3.7582496350672954 -0.8435038710055925 0.5125201046263044 -0.025444922435665852
P 6.826033006515891 1.9148951095296232 10.849782119533398 -0.44808543119100247 0.1838639579389285 0.5137295515533733
P 5.8219486824791 6.839512371602366 6.835694135124809 -0.17492268958524068 0.7355388783878235 0.827105375042911
Ni 3.1338790255165003 1.3342279026581805 9.720175563705961 -0.04667657812093252 -0.8161663595329041 0.5825613256151063
