# total energy = -381170.29037548724 ev
CRYSTAL
PRIMVEC
9.27166435304757 0.00000000000000 0.00000000000000

0.00000000000000 9.27166435304757 0.00000000000000

0.00000000000000 0.00000000000000 13.57001797487740

PRIMCOORD
 96 1
Ni 7.271098613345852 4.4224632559459724 4.170663401641807 -0.7204609010087786 -0.884328104110806 -0.7150680121279814
Ni 1.4116664930015073 2.1898094480123933 13.190653766874554 -1.0648606836836565 -0.07584831458888228 1.9666910583442838
Ni 6.470527502816821 2.0089563675920004 4.395057143959166 0.627580570638274 -0.051027398890460506 0.1625543978278749
Ni 1.340385939209239 5.60122554612987 1.6388778940464246 -0.282594576442623 0.8625122937872952 -0.5712561850149322
Ni 7.82849251720688 8.983695508849395 0.5230822564339923 -1.0330522809238079 -0.11066876470217715 -1.123810165634671
Ni 0.6781971972436498 3.530047040595634 2.5079703111241525 -0.3811935544644596 -1.42019691076538 -2.922642897439663
Ni 2.466605708797302 2.018265118373405 6.997718960790971 1.5550062772695026 0.33761746964572176 -1.5892387160898114
Ni 6.486363505142158 8.1040278316708 6.047437362470689 -1.4713055565157371 -0.15322977799283932 -0.038191937688689066
Ni 6.7177286117150325 5.7296659092521764 6.249590236885226 0.04241137508667534 -0.7334794247556335 0.7528557723997162
Ni 1.7751713566825253 4.717163100156071 13.025195357567153 -0.045098177890219096 -2.137577373076622 -0.7426708614469145
Ni 8.407702646753808 4.912322358321193 8.594611051014176 0.07087785795748437 0.475998869771819 1.3052020078840232
Ni 1.6564291542348695 3.923629182697843 7.783097522484932 -1.1484770722537316 1.4310091708895356 0.9259930879497602
Ni 4.583660408421567 2.4847132688332407 2.853856231468614 1.718781434878356 2.4646201525302907 -0.887981127482361
Ni 3.1199520646869696 2.7499199494620186 11.859190877219124 1.86475864507384 0.6067245531248713 0.049216056713334594
Ni 6.095831740537042 1.2200953688527238 9.604193285910938 0.9201420284856218 0.5265606418797706 -2.5780934765607983
Ni 6.36003708144033 1.022145339786006 6.916162621649071 -0.9265497317841785 1.3031132436757946 0.0551524768024276
Ni 8.236649715313439 0.9272869441241051 11.042276604337124 -0.3143088768267684 -0.17634399541279952 -0.4833406548488708
Ni 7.1964802604686176 2.993829617595889 1.8618743965801603 0.5972482382033198 -0.32246467316468336 2.085747275779208
Ni 2.0953126472513635 5.603487832176347 5.984364085761786 1.4707134314576928 0.04645983412443611 -0.3481613065998391
Ni 0.8345944092017817 8.537339054548227 9.992608329596337 -0.16307196089424172 0.3913920922640163 -0.27361011355582554
Ni 6.192219960779553 5.55062080333614 11.406115247926637 -1.2363725478151353 1.22630873582123 0.9203754846526666
Ni 8.504211398629941 8.75185754740615 3.2236120511026427 0.0942054769398313 -0.18162786951955814 0.5866390952289058
Ni 2.7937563774445677 3.7586028329386627 1.424947224694021 1.8005530569302086 2.5399231361386647 -1.1513219979016946
Ni 0.03412157831247469 1.315333902743746 1.923604209157364 0.07562514283448267 -0.3292238462653878 -0.5742183529670498
P 3.1427140001136107 5.278896142827555 8.523165461600485 -1.1036362617899573 1.3865486265833153 0.029592883165768392
Ni 6.752024497313055 0.7812044585049298 2.1124856235435123 -0.6059794474287306 0.44737092162248115 1.9731692098694595
P 6.400424450368415 9.102066844732054 4.155573768278525 0.14644746496368327 0.20502413695631141 -0.5724154954303561
Ni 6.558478508705668 3.232667685453437 8.2332692665735 -2.8600123670926356 0.4145672448288989 -0.5424006942358207
P 6.236779578563846 7.244043897429379 8.2001851874766 0.5880480597612906 -0.3970176659809098 -0.2461867272375502
P 8.285715361862435 6.181103235493792 4.571820493334063 0.6778034713495682 1.3678875598387024 0.45435120959505615
P 4.436778705354825 1.6615192978394422 7.8579495212981145 0.2216000390371216 0.4165603639995277 0.729663393443653
Ni 0.7724381000748324 4.702754934105969 4.221714111479946 -0.6876299705216866 1.9889611825963942 1.4845022577116693
Ni 6.852705498045397 6.978744500159354 2.6863070619010463 0.48241325793859496 0.7202253879592048 2.021101257664048
Ni 1.2827532750088306 6.772385071731346 12.534109614028207 -0.20131454931520815 1.5710363341491718 -0.621056139256195
Ni 9.246315395187324 3.607956834237209 11.602174784678287 -0.4145759865796473 0.6361336024146077 0.3927781739782655
Ni 3.358975565827015 0.6387165970669801 13.188117039569981 0.08292579026095395 -0.4292320459299253 -0.2381818546552027
Ni 1.84192733838184 8.39428654876507 0.8105158974694039 -0.17335945886317886 1.0725462252533722 -0.993657066955637
Ni 3.697576739668539 5.3343036076379855 11.195616948633274 -0.4760634044611672 0.5256941801144172 0.05804908162393229
Ni 0.7984951849314648 6.015335152604619 10.242174640012813 -0.4712271594147885 -0.2787322652737393 0.9477039972642903
Ni 8.220322314789481 2.891581705626439 6.782878741187914 0.7489770061706005 -0.752653169470607 -1.3568791245433407
Ni 0.7911446096132403 8.259254032449956 5.3004620335820825 0.7477529039555122 0.05700367107855345 1.362522695982363
Ni 3.1103002623329434 1.100861768206448 9.651552946260951 1.3004012440612702 -0.9686854846119639 0.08409847041281646
Ni 2.954258155110795 5.665774871767457 3.343163669828403 -0.5864670884274158 -1.5238758744132852 -0.34714906328524087
Ni 4.173537617520528 6.6100196895760135 6.7934354579605305 0.528540905534593 0.7004692883782001 1.3253694839708337
Ni 5.297420927749114 2.307717200688808 0.6499631256504897 -1.1330967331429194 -0.5775433035752248 -0.6388000935031772
Ni 6.941166445461113 4.160585102738035 13.42010983780411 -0.28931261189274693 0.19666548057897099 -1.5483615182594752
Ni 8.1066331692899 5.142528506878454 1.659490657728913 1.4031083307142094 0.6562118612217215 0.30853340779557187
Ni 5.327729997773429 8.876987926435865 0.8328272300195748 -0.7805313839381138 -0.33792317381159864 -0.9053720692652989
Ni 3.4774118033585495 7.778777854169139 1.9922145236816595 1.9558471736512442 -0.24422934640086325 2.6214949834748853
Ni 8.074988979631598 0.5824561391570579 8.43372542645318 1.0966302627857696 -0.5421376703824211 0.22344531977597645
Ni 1.0715911245641236 1.546207611118001 8.694866482363185 -1.9343766624822947 -0.003924531865386789 -0.3130423514095189
Ni 6.648626898992117 6.754972886504776 0.5211148093066875 -0.46069514953521307 0.17827592232818976 -2.4872448319083422
Ni 6.982814760710187 3.7249559638293825 10.476148792870434 0.44845669848749214 -1.282779931435081 0.659957958527715
Ni 5.682241347253289 7.884725160124427 10.397456470776717 0.36721035281149017 0.03873804000014619 -0.9253202302524516
Ni 5.057062306975082 5.680155222825185 9.222347216258031 1.4801501513905606 -0.1250764554870749 -0.11546747164240116
Ni 3.2726100145035266 6.431651415141095 0.16234127582860836 -0.0590654387035886 -0.571087520647552 0.6728517837712477
P 5.541729277440356 2.9541283518130466 12.050718424546519 0.05578599662136843 -0.5230729404414862 -0.5582662005131676
Ni 1.2368307225981772 6.705082061848663 8.055257024040976 0.899389883539935 -1.053708780831895 0.10437084750860734
P 7.458506760302552 8.294356552826846 12.03733848604787 -0.24212515557366687 -0.34715523393282793 -0.6161525313069904
Ni 8.28578026351131 7.286535934113818 7.2545449842172465 -0.5588146168174698 -0.3733234076877635 0.6798516121278485
P 8.994116859325787 3.2666668777994627 0.5787205856811336 -0.21765185302265097 0.14461272574778963 -1.1818204236008678
P 8.405616522325705 2.7609717730989045 9.034347537130161 1.6945189627865656 -1.0930314896909177 1.2968775471787277
P 1.6976231579418215 9.121574426050854 2.824450221530065 -0.43457402696812897 0.039366931833396714 1.041462359364374
Ni 4.31117547145474 4.370625381823629 13.159850517152382 0.8031948869739006 0.20205271303281333 1.0230972265936251
Ni 2.1181394843268793 4.074330811384046 10.018975088034741 -0.5081821393725829 -1.1055067393397928 1.1408807479637126
Ni 2.509867293604108 9.091645494255662 7.01702905566391 0.5168123042437551 -2.122401693777448 0.7441947542906087
Ni 4.223372812191891 2.510933534978472 5.223520201675148 -0.2266165184151065 -0.07543076743548945 0.6598638561520119
Ni 7.457227270653315 1.7926577152220957 13.228555402650752 0.3148284967756642 0.455230526876216 -0.5637169392150937
Ni 7.802847094237393 7.074233368981748 9.961750377055829 0.9549200553967553 -0.25248927241681035 -0.034377706148921446
Ni 5.276188816903082 0.6845816651600592 11.403984619510734 -1.1390835468539737 0.261366263191466 3.731974236328605
Ni 4.563679972232397 7.431971257577075 12.229286039760122 -0.348083145063736 0.835473030281316 0.48061914215264967
Ni 3.1175970619992435 7.505894235644941 4.79917282367368 0.5583178796867094 0.7983843529591347 -0.0751893408486447
Ni 4.542151168134368 3.1034763175370133 9.925382274525889 0.14692311904852115 0.7266150935356325 -0.4343793944588197
Ni 8.232458923128982 5.887200754398434 12.45228254229386 1.2349617835105375 1.0199602236265402 -0.5030833846934367
Ni 4.311787401286984 0.2477193949227943 5.774775336719077 1.0937956215504516 -0.5530538030742926 0.07779155435818216
Ni 4.740472063766083 8.80839615523982 8.349279109603545 -0.4228353983749621 -0.20498402774699534 -0.4221399149698343
Ni 2.090194688654416 0.9720227235267708 4.756888472265638 0.07806049174885266 0.05712168471365647 -0.7608308201853929
Ni 0.5911854109306557 9.100175425250574 12.645058055612468 -0.6343261168922237 0.8771842939771732 -1.2910730246818087
Ni 5.7302963824126705 4.922178137285967 1.8166722524720118 -1.430906326763084 -0.00648715038624044 0.7749968272731298
Ni 0.9194635139355104 6.993032134575832 3.572252582858613 -0.07277507498019725 -0.46929523249939825 -1.7766654516793337
Ni 8.33927776551201 0.29237543801398586 5.914790445334914 -0.16786886806225282 1.0296951915261168 -0.39214773948311815
Ni 4.321467018633384 0.46086846298946854 3.455170935455728 -0.10297499560234523 -2.0134380846918356 -0.03812611744776015
Ni 8.960766683468504 2.5686960024766288 4.347602912635078 -0.46478603177513506 -1.4980116050520136 0.10840953635435524
Ni 4.451752442916547 4.019813426329606 7.284588884647588 -1.7641264386720585 -0.2976910657644292 0.6762908913597836
Ni 2.5616031794210765 1.7845357374486792 1.9850493816459331 -0.9175400720864004 -3.9463762149553907 -0.2013014366890856
Ni 3.044703238649242 7.328518029271388 9.771593181686093 0.3679117497538889 0.144467458419177 0.07712589574972524
Ni 9.144206558179746 5.15027034642275 6.499346616416262 -0.6236501252356164 0.638573579314668 -1.2487061296798239
Ni 4.718998889652803 5.084747496052048 5.053732852387828 -0.8139665236681078 0.24083137646290778 -1.453146111997891
P 5.977692196257506 3.5060705171686304 5.977376032510846 2.8867731801262475 0.011475090519135075 -0.9169453759251951
Ni 9.179475968510884 7.446286706985928 1.014333962760774 -0.5023117966347349 -2.4952731015294574 0.7096643246139068
P 0.5897028718370834 8.617770740831777 7.49211561558892 -1.1852299635030492 2.1778657882830235 0.9593778340577929
Ni 2.6687650733767265 3.27571602198537 3.784474484512797 -0.756024142825369 0.7035409853249884 1.2073005701498434
P 2.4979995635242296 8.592292207816538 11.551708189680019 0.3712935217419283 0.06093951579784988 0.16333884140238322
P 0.9652636803797151 3.3020104614436003 5.912293586186077 0.46224346785893944 -0.80316969016292 -1.2232663494504803
P 4.847837934332481 6.523552149947152 3.2786792458396894 0.08217297125532945 -0.027624703695804033 0.017295039635021825
Ni 1.3046900323283557 1.870066839000926 10.92036349275875 -1.0769793213240613 -1.344477408444878 -0.2919194533879747
