# total energy = -340891.7343688571 ev
CRYSTAL
PRIMVEC
9.06043309697476 0.00000000000000 0.00000000000000
0.00000000000000 9.06043309697476 0.00000000000000
0.00000000000000 0.00000000000000 13.26085968003807
PRIMCOORD
 96 1
Ni 6.338860126941103 1.8481743021552086 11.641946957450298 0.8098054503118827 0.9848592661583491 -0.8114478710113122
Ni 4.76528942778085 0.5665851164605571 5.867744792873242 -1.568871465287369 -1.195372965474322 -0.009011202359674803
Ni 2.815801363955799 1.7362870151885756 4.665130871316955 0.15046378521192796 -0.4881542741874302 1.1299898120828216
Ni 3.382313996952454 4.234157785601647 4.894358013822293 -1.1271286884849427 0.3436508203239953 0.07437327270525255
Ni 5.033025222571036 4.709694610967564 2.522772464436805 0.15947935844697697 0.3287631045788854 0.573555008351438
Ni 7.302708988185771 6.2192352302028695 2.6864781797473984 -0.5145235082095784 -0.4466610400396501 -0.7421723245439412
Ni 5.172963610067971 4.741750422878485 11.320424808271198 -2.8092063401843617 -1.5139933251922508 1.2871778033924606
Ni 5.546543383021911 7.798658969073256 12.453525275858304 -0.09661897147733037 0.04472511082151653 -0.06707056839625222
Ni 1.8401830002599482 6.542411814445547 0.25033342115047286 0.04380208478661489 -0.6618885998915247 -0.2857794019285078
Ni 2.6213916533360693 1.369991830356846 0.3500416740948733 0.4055560424692241 1.0828218961477674 -0.23248429004979318
Ni 0.6119353016945102 9.04943362217632 4.476282454465152 0.821348932175108 0.7734366818748616 0.16788326623995603
Ni 8.667382344378764 2.579768024190008 1.5625269373913948 0.518875614530687 -0.630293855804379 0.11105005930099583
Ni 6.823040605377406 0.6415520450451078 4.798163396790571 1.1011055249483035 1.0397834290000545 -1.2721077964332155
Ni 0.6499836839835764 7.187958604394986 2.448564800136634 0.009775334219208972 0.17249299709782553 0.23088223566999594
Ni 7.5320919701385 3.6639847376779113 3.9578625997678643 0.3023419342728793 1.4701030515672036 -0.7500504417404372
Ni 7.765805839059407 3.9829844623132025 12.994780139814804 -1.0917775626791584 -0.7861358746090849 -0.8356710052247349
Ni 8.342375552672546 9.08498676122054 6.76131459356126 -0.8463436544472328 -0.12614526307122145 0.09106436020768834
Ni 6.716734545131272 0.6061810207039434 0.46438433840120635 0.6087564959532356 -0.377149466302073 0.30794462517163745
Ni 1.8182929941613666 6.63052452525213 9.322662757487022 0.545336379825377 -0.9949935263788734 -1.152852318503292
Ni 9.469239724234136 4.936468188219801 1.2600253551836316 -0.7706007550879632 -0.48080066203583643 0.8655024867638708
Ni 6.197689520557824 2.012421831358474 7.11230308290336 1.7460299861816637 0.6746333011517027 -0.03540306208964225
Ni 3.4959227661867724 4.313083217358577 0.36333695346120554 0.08726298418372713 0.3160808811255266 -0.5708489222741845
Ni 5.918392613275176 5.582069340767166 4.815826710900332 0.4251180237615517 0.1752376497224982 -1.093327937885414
Ni 5.202056660391872 2.5845519328075786 9.620753720916314 0.4741769860717317 1.024920395845293 -1.1081809437378465
P 0.16798948802723618 5.552052126278507 12.42359504152633 0.25690797030979623 0.3863612147083281 -0.46780836354122657
P 4.003841579051173 6.161175975616896 12.54632494864949 -0.9920627258853237 0.37215998350728163 -0.731674767446727
P 2.4021382354637275 8.22513354981011 1.634440500059049 -2.662489937830008 2.6299315442780125 -1.0438591417313248
P 6.550194726382086 8.001250250680991 6.033014338917535 -1.171155230577538 -0.12191245593679649 -0.07309954819915153
P 4.7432272734555 0.9257769218298334 12.707655924473976 -1.1958501622210564 0.2067172083880182 -0.1837271752507481
P 3.896094909959975 6.007520092576397 8.19592724407386 0.9736441141688201 2.388618085972364 0.4944766168610323
P 4.835453420838555 0.9661592716565628 3.5396022075777713 -0.10930659424732787 1.1767448088501733 2.139676678807812
P -0.056383074483225874 5.630379569458242 3.8482884413430227 1.712376816903593 -1.2159111946369898 -0.41749393155739073
Ni 1.8092778633384823 1.3314940505915835 2.5333677347727663 -1.45230073327846 -0.058045739189822615 0.3866319518712116
Ni 2.001458707443207 6.452278627082679 4.85209562415059 -0.39894445068997747 0.042119811988185527 -0.8152294495409315
Ni 5.988574727198857 5.632753402901051 9.347341564859256 0.1535848473394129 0.43712250442159556 -2.3007874022106245
Ni 8.489761616085472 2.1656518740485455 10.256996352230555 1.3470220292436026 2.148015280580494 1.0219883098001628
Ni 2.3145329089044617 5.3605145729159185 6.950533582122265 0.12176153218122902 -0.7614679395487595 0.49937585393486256
Ni 0.6336984617312623 -0.02966476364543304 9.007160359985031 -0.03287026836545952 -0.2780151846020567 0.9777529941308709
Ni 1.3000996502887752 0.9785630044168934 11.535621870294891 0.2514929699418121 0.47437161858104115 -0.9478374375183611
Ni 3.842194394115413 6.828359079541258 1.4672872899965888 2.793751696192188 -0.8196396627934853 0.577499851931799
Ni 5.7116335324930425 7.9066683907211 8.105633687047108 -0.29893316570164646 0.2304937419823256 0.4566027246333943
Ni 5.28657237930229 3.099066740887114 4.919381117648064 0.8831507959732533 -1.7102939662326353 -0.4636130945129564
Ni 0.7908870075937141 7.2402373027347275 7.047192093322964 -0.2215882119625797 1.5168148538014459 -0.9950583181785378
Ni 5.001630822268227 4.691972404043383 6.8978353857351875 -0.16218827273770778 -0.37644138449145487 0.5836627862094013
Ni 8.068016581368262 7.159363877885415 8.993475482000223 -0.07064568734202027 0.45894679938553856 0.44538757264386514
Ni 4.648455144402866 0.40985593455058794 10.262207913285152 0.4859333552767115 -1.6020196699045635 1.102945663480836
Ni 8.15186182823758 7.361547440008698 4.695405402102469 -0.5243950016870194 0.09521592048221666 0.49388783423709776
Ni 7.17940555565448 6.0763068998199525 6.77306325701657 0.7271102880044962 1.0205502918020553 1.7032110912439247
Ni 2.4802301073857786 5.07422301136667 2.5488964108705967 -0.5812786022479408 0.21858233525672033 0.5243618344562389
Ni 2.457823656606891 5.094790194249029 11.260644071417538 0.07588893801883059 -0.0748188448831034 0.1792403431239881
Ni 1.0866902116935795 3.54147862324955 4.072383754604058 0.026128578766251777 0.2909426912970022 -0.6451597171726179
Ni 3.849297773577866 2.8505662453300777 2.6728585368801023 -0.7386493989923472 -1.4416005732521366 -0.14379948581787494
Ni 1.0123856007604386 3.512285908162782 8.347817248725033 0.11421354463064201 -0.3255818786374264 0.11560553988216218
Ni 3.7665397786670862 2.6471051621555124 7.003351376224783 -0.43507076409888934 -0.5797937901722983 -0.08153302367848539
Ni 4.438778604198654 7.039820525044071 6.138093616537116 -0.7712152487435106 0.10224840184896583 -0.39757122449153465
Ni 1.0622542239254193 7.331004720406744 11.320610547147448 -1.1961152429569852 0.15992133108040202 0.9815068047463483
P 0.18331702251273727 5.592633805630968 8.10681426146542 -0.30886328033116484 -1.3084729653258111 0.5052505675480847
P 8.57261021532613 1.8256410053144916 8.020075112299791 -0.8264194047194799 -0.6593393511071096 0.5330992143292367
P 1.8034520049273117 3.0237564218923243 10.533206369994254 0.34490243334290926 0.5881455045711033 -1.569155572186691
P 4.029247033149029 6.035707099601516 3.879146464012952 -0.8174007461606374 1.4201560302251153 0.24027807506259907
P 6.8580863601743065 3.904657019133468 10.369912904384606 0.8498388120846848 -1.6494148713590755 0.1614601363224316
P 6.5109539911118235 7.844450397393716 10.429851292772254 -0.5174154850453928 -0.479638009186303 -0.8255007495599526
P 2.337818221683168 8.433423843767185 5.811160576777687 0.021516791025853264 0.7253470254564863 0.2900687733324811
P 6.946208131413878 4.192343887362841 1.7765570156462562 0.9413202052251337 -1.1206317679066895 -0.39479263330513303
Ni 5.298205975258655 2.855087401391002 0.5251753135330084 0.41344392985773315 -0.07362122503057643 -0.3736946749842532
Ni 1.398785886392149 1.1673371257181968 7.1201666326934925 1.243710219127129 0.7824617681916073 -1.297343945292185
Ni 7.145320206754288 0.6980692139365535 9.337342471013894 -1.6864148456221923 -1.6232538966929912 -0.9682319420143131
Ni 2.7881036203120226 1.5476941025470288 9.203606855940423 -0.5759636177929306 0.08594683647546489 -0.0587147402323892
Ni 6.475382731201628 2.0479568495367175 2.508304765041849 -0.44582620284318053 -0.2552282686145282 0.6908214808757909
Ni 4.286382121343462 6.919670123192542 10.173479093035397 -0.9552684398751096 0.8973502274020869 1.2062782995329162
Ni 7.967790071656958 7.115393596595507 0.26358611648176233 -0.0841501495863583 -0.004859127864514212 0.20632460093528984
Ni 7.357243734339481 4.005771451277579 8.206867716906658 1.5419355601284734 -0.8405471023701137 0.3606344993661853
Ni 2.952206182587482 8.412892902616777 12.517044347362742 1.5819192996102625 -0.7006461802756966 -0.7183659661529629
Ni 0.016053275167825745 4.833133949993673 10.243165601274644 0.6261255833593024 -0.4447861916144405 -0.04526529959570269
Ni 8.471722294006716 2.4890277878169553 5.830972119548862 0.29994309502339955 -0.4932666557133311 1.4873029603852579
Ni 3.700217409196218 2.580266348004338 11.61176574912456 -0.016044455057372366 0.2937328524476296 -0.20278264922030237
Ni 1.067355247697564 3.268043816110023 12.483322321825362 -0.7023721618278678 0.3517559659296329 1.2468688193607689
Ni 2.965914617698059 8.288937118910363 7.9371413449890476 0.9827170230043657 0.3920808908009248 0.004577077847721149
Ni 5.520657725975699 7.8142519742453 3.656443739302146 -0.2522933543559203 0.1549310769546622 0.16198566980859844
Ni 2.9905499349919515 8.470082355635919 3.676029677291924 1.0494554048721796 -0.13632811714149426 0.3479782440547555
Ni 3.4635770204202423 4.124508425583007 8.914440419004139 -0.48394614964335364 -0.6552250718284199 1.2935775362712174
Ni 7.212186202204426 5.76026993677168 11.37552311335675 1.0788428568953614 2.506672858725967 1.3121427008679143
Ni 0.5867436738151656 8.824028170305246 0.22626438091831963 0.28301623736107384 0.40655645870928053 1.3643718333759598
Ni 4.4923529444556545 0.25665941546257126 1.5754697659145007 -0.44589407996663855 -0.42524966424340965 -0.19545371965905692
Ni 5.79311400635254 5.539213492734761 0.4735833960137436 0.7648947058421214 0.9204940125084019 -0.9649694692129575
Ni 8.190785448353271 8.817414054224134 11.562925485103698 -0.9385688677322416 -0.5069842624097397 -0.7238251894953212
Ni 9.189362949240266 4.87752101120102 5.927948651947434 -0.050963892642376746 0.05429064302276457 0.3385242977307073
Ni 8.061339042256236 9.028875499726947 2.490800914552672 -0.07751258966518264 0.11906778739914978 0.1114948601478983
P 8.694980423259675 1.8533115676593046 3.792261441876218 0.11309125810074072 -1.9453964106315658 -1.7761049511901732
P 1.9417142123214988 3.2622179576988524 1.3643970129868646 -0.7213646437699707 -0.8290139049195336 0.983481411974216
P 4.693548919383264 0.9067771938543675 8.122568542344649 -0.19436999967657495 0.2404994470447858 0.1842578509432375
P 8.298686144805261 1.6557941285247515 12.590112209193043 1.238045564642184 0.46294846434576403 0.7126514322666888
P 6.094880787444991 7.714569090513265 1.4694228340518187 1.2052128343828792 -0.364920528336049 0.09741267102321934
P 1.8172691652337425 3.2473135454338826 6.260849798915943 0.011470719643760889 -0.2556406735615984 -1.3152905024682768
P 6.933052382715559 4.084271042684082 6.0908588612416965 -0.32132310336107245 -1.0325313754233314 -1.0426178131250559
P 2.538515872796447 8.630751013808993 10.24850944465086 -0.461099069841851 -0.3176970765727109 -0.21731092474346445
