# total energy = -340859.0895296048 ev
CRYSTAL
PRIMVEC
9.39912663579392 0.00000000000000 0.00000000000000
0.00000000000000 9.39912663579392 0.00000000000000
0.00000000000000 0.00000000000000 13.75657190976525
PRIMCOORD
 96 1
Ni 8.752335018251207 0.5780613189614947 0.10991244549416314 -0.31442663335155524 0.012266990292811131 0.24448002895908863
Ni 6.622079389540588 4.535341716570823 7.63321862122301 2.2287139812831422 1.5921939420633935 -0.6532028991920685
Ni 1.8051116453535196 2.526748381404398 3.0636020499211725 -2.1879224011880773 1.0975016096471293 -1.5077530007094937
Ni 0.4557909019321102 6.343273099877314 9.766712249016292 0.8220354167191714 -2.0718964859390447 -0.6754413988752949
Ni 0.5333618930183456 -0.001575293603059864 4.24791924763592 1.115116237405099 2.2469634144116335 -2.7772578123022233
Ni 3.7293102235875195 5.968905890987848 5.22487009655122 -0.9360970091529813 2.3046664255500566 -0.25971715762381725
Ni 7.19194842983605 0.5722254013114956 7.69714584026747 0.13663202153515824 0.7456715959464513 0.4900563763061495
Ni 6.890894407723834 6.863777927742762 3.2581893463177565 1.0928957354440016 -1.3954634125744418 -1.162903532091707
Ni 5.657428237576148 1.287454752820572 10.7509812578322 1.7553330087501444 -0.6689699322183382 -0.01649388388996514
Ni 8.271879868444458 6.736551351304706 1.2106197133400622 0.3934734002730772 -0.47498739778816906 -0.8121060734206014
Ni 5.370858269415694 8.64868145109999 8.40577418522864 -0.27936475665141564 3.1484549176756036 1.3901455999059544
Ni 8.225166209690236 2.509989738837239 6.360859805489995 -2.7293005676966544 0.8139606101308369 0.9890707331365354
Ni 2.7304086546209914 6.003043518471819 0.4645349093242736 -0.9814841790385289 -0.3921770500591568 0.5698970998838766
Ni 2.039046505058513 0.31093626372472893 7.376934518502768 -0.3617313319747899 0.7000404283708976 0.21508717761926827
Ni 4.781467243359162 4.335412896578661 6.185256864818114 1.928537172982382 -0.2757127617211252 0.13073391088316838
Ni 7.248794346967949 7.570545245654972 9.087164801476762 1.2899785060660494 -0.5142872238290562 -0.5240417321126588
Ni 7.286231067856894 3.086720141484932 0.5972590348579732 1.3671280559648586 -0.5708116412783459 -1.1929198759481392
Ni 4.992336646608852 7.66643513430901 3.919907590780649 0.004098338439089716 -0.6045820528605717 0.8398590751641535
Ni 5.943218078236281 8.78134072266077 6.054432302752066 0.01896419980732863 -0.8332433696198488 -0.1824130844250149
Ni 3.5761702553616583 1.9082106640406538 1.5376134447943106 0.8783932266836099 -0.8670952851722873 0.9119538362478745
Ni 9.16302045197494 0.21046712063506612 6.329343594389637 0.4759567036799738 0.9330350823982061 1.5498676704913565
Ni 6.831632915078891 8.448536451198098 11.364138915181677 -0.6211600118239109 1.8286184477078569 0.0757459846830631
Ni 2.828779912673644 0.9480428954214388 4.153783235988631 0.7144049246226858 0.9831309706133328 1.7387187972322315
Ni 3.0377130958622938 5.335799527533753 2.8711069990856934 0.1507563767516823 -0.09832309865263067 -0.20369076285686855
P 4.908364850369372 6.099882718903357 2.2419905648350524 0.6472387111888338 0.48592564196722765 -0.6613391551459578
P 0.5350142594587867 2.052628242865324 7.528173983348326 0.7877924363759014 -0.423391013768116 2.3229608529838703
P 5.02077840342782 5.0774081406499905 9.26692215606602 -0.4406747405492281 0.02322194664241807 0.6606079334068881
P 8.496706974561356 7.752653321784357 6.996111049613649 0.4829189939304199 -1.022003222198498 2.1294112923260617
P 4.366072847253967 2.682849074480879 3.578166629832362 0.466587603760248 -0.3586773756398145 -0.4524874169134401
P 8.763191009370146 7.742069905334206 10.728502306871116 -0.5388510292113494 1.1141101647380878 -2.392652403942737
P 1.3177481375619917 8.857915406336955 13.649146462314604 0.6089711830672029 -0.20829483728778322 -1.3343871140884116
P 0.675273664715476 4.112230637600997 10.818182192640059 2.01871424548911 -0.2719669215254477 -1.3619789076637512
Ni 8.12429478398595 5.49327249308068 4.905607146651366 -3.4361613614234945 1.7561292793991947 -1.6183888552912065
Ni 8.564888238264198 4.825050992985585 12.098945707298231 0.030856580369540403 0.4791183892374072 0.9340105589375979
Ni 9.164787487758803 1.4118051965465985 9.583681178663635 -0.18559636724900294 0.5267267351439897 0.00638147804631159
Ni 8.06093527218269 8.135263564623008 4.941099188265414 -3.42820148314647 -0.6003379328722371 -1.0597423886204846
Ni 3.7334928348844265 7.952882913824837 7.096286000043552 -2.3214215335212085 0.1931988621866092 -1.8367971268639076
Ni 7.872416991773551 4.6445313692363746 2.3913050885713836 0.26309815828090816 -0.6399120956204335 0.8372599469784097
Ni 0.3503994362892108 2.243900467341865 11.960390363677789 -1.0175073912106734 0.10265412192781675 0.09379204355149655
Ni 5.672513835624545 4.57858709764289 3.699073233605159 -0.5726787763940718 0.6293142654999291 -0.10276930734944235
Ni 0.6575140151750128 7.404359289833365 5.058662522738638 2.824015894393369 -2.106405061238876 1.7195350252149288
Ni 2.1190706681638334 1.438790088756532 10.649787442088625 0.47480896322877575 0.06052222575477319 0.08036548573294547
Ni 6.158401680554017 2.6566913054038164 4.996620768472066 -0.4187239473097499 0.3401096399399562 0.6189054114617794
Ni 1.3973587391008764 6.737895426395621 7.461330215347845 -0.9317438743906081 0.8685325318394461 -0.17323964545586293
Ni 3.9737721049836057 0.1798757835832825 11.936026887851467 -0.29994026680992214 -0.7360831809270678 0.05040776302859061
Ni 8.95302516749067 3.8427294831825276 8.886181399490189 1.0666699689782533 -0.678906731716076 -1.1752769660553952
Ni 9.129136600906737 4.749585406237569 6.550576474529146 2.351911731690266 -0.3844406006468476 2.292733678668213
Ni 0.85157308066174 2.237170692760774 5.434368167243114 2.4718804336371303 0.061478676130771535 -1.4632248363901315
Ni 6.293213352085566 2.0398924264444047 2.276795530301226 -0.5856944719274494 -0.5289880203743406 1.2116845581501519
Ni 0.5209061705674213 2.472459026683194 0.585365380172341 -0.23238427413681917 1.0430381884919264 1.3837494665716232
Ni 3.2066999913838523 3.0069685530483987 6.89882445076024 -1.8712913039860353 -0.7159606991455798 1.6146414724336322
Ni 6.5089327046143675 6.232964951157084 11.935958274227945 0.2663626879647929 0.4916255205654823 -1.7126362412125666
Ni 5.15261995098224 2.6082764047513027 12.789305909974754 -0.24516959882694553 0.7303118256609293 0.4102159098387387
Ni 3.264382430775132 5.309293990775825 7.951820812529217 0.3484086467239548 0.6224980139090441 0.9724243828291059
Ni 4.7337666763214 7.253042752150425 10.13798808519665 0.4389880968754246 -0.33813246160892735 0.3448479259558899
Ni 5.994706493257534 7.659677162348389 0.033214633260697776 -0.001152368436888338 -0.12458820299674672 0.7344096498793867
P 6.262581598789791 6.493687321415303 5.719638236207249 -0.3928699623611234 -0.2313630319611564 -1.0772019788578289
P 7.5399228914857055 4.485441753929744 10.220266158839046 -1.4999898118243071 0.5305216834100476 -0.12214694054510575
P 3.981733165137494 7.283984676621028 12.202546639340994 0.040409514165298144 0.1474162566348558 -0.22646636599048742
P 3.9923259807141553 2.6139440780367744 10.962763316266003 -0.8305493677274535 -0.219587379482467 -0.5582358614958643
P 2.6102502213183825 3.74978152112609 0.6459371110527644 1.1663961186259975 -1.0676176776035033 0.6846963418146594
P 3.0594062798471513 8.385552904455235 9.155686313559263 -0.9291231489383095 1.1334482029450672 -0.1263452948971695
P 6.775726910597984 4.772406485403615 13.30603040915792 -1.720652940869456 -0.5194140035326603 1.762875596984093
P 5.263764621961852 0.2110169695358955 1.5406813196871432 -1.3028988136721433 -1.2931823577153276 1.8858620027113586
Ni 3.145229704009082 8.568732481006748 2.828268600191505 0.9729895113039565 -1.4609861768676 -1.4317609614538955
Ni 2.535508367311628 3.8780044049741966 12.263530051962551 -0.23176078162020733 -1.1467953136759348 -0.3772687654887567
Ni 3.192394520835779 5.4862513455777835 10.77784772104811 0.7880649733109976 0.25513030958408317 -1.0817029520519756
Ni 7.660053127408785 1.0719797775810294 4.410824908305571 1.3217997643417043 -0.32631567147965734 -1.0717329853234574
Ni 4.1002749486804 0.9872184547147176 6.483568221814741 1.6659732899383886 -0.5952818585055684 -0.7911631526203471
Ni 4.50638300779381 5.360444037242721 12.91721486299743 0.9639451417135011 -1.2541977489220144 0.13646567116062303
Ni 0.7443299870963895 5.430627314892172 3.8854203157905105 0.6109439905228575 -0.642972479713312 -0.23772651228533895
Ni 0.9928767288736797 4.529307477351464 1.7772798918450439 -0.5543848631808904 0.3276762992726099 0.05794160951179053
Ni 1.4256783072752164 6.409847112946961 12.058488107149003 0.2255268848953535 -0.06919249983526148 -0.17240892202445146
Ni 2.351276088591005 1.4522966335512637 13.404692100219727 0.19836086600352287 -0.5625877107066569 -1.4189455548567822
Ni 1.26227449290054 8.81252702442063 11.377193361991282 0.7952491497642626 0.09645930597101451 0.2785846839522815
Ni 8.89367908270714 7.8928694910591 12.676171443912995 -0.4572830385298705 -0.9438545416112133 3.5569096218488614
Ni 5.34301805669336 6.546829982702299 7.713378131750073 1.4068415725043963 -1.1369058224763644 -0.561826149950284
Ni 2.902196489842502 3.8056781264804873 4.712285912595666 -0.6105300429138906 -0.41472459634236963 -0.4484605551422341
Ni 6.323525535080006 0.689905284953443 13.651416351366747 0.8999537264632049 0.26152335759462053 -1.93942630909106
Ni 2.545762814333933 3.449996381092711 9.31585400867658 -0.42827096756823657 -0.011466091658070575 0.7148109018118528
Ni 6.063517498436539 3.0656754972292575 9.223258513864263 -0.3812210652682854 -0.4797053720891286 2.595617087266859
Ni 1.4122093589865243 0.1530835734668019 1.9074173777632177 -0.18131856580925546 0.18819446699348236 -1.0285163407266673
Ni 5.0088227145072235 3.8527959476746347 1.2130080313862286 -0.18872411424470723 1.402045950887966 0.010554635587394725
Ni 5.336213089100189 0.6222419131212972 4.083349001661365 -0.6476179489051233 -0.006469152664111439 -0.9671911594546245
Ni 3.5579735464384847 8.254068523708192 0.33621991403637 -0.46827733275784517 1.5013987763566918 0.2256281863599082
Ni 7.481789294021952 8.932845242873908 2.069923575556198 -0.19683594471856422 0.5468186207978583 0.2639473936550809
Ni 0.6312716539593617 8.695940259191785 9.031904516987085 -0.0478104346150596 -0.8100455913471469 -0.3454562489638502
Ni 3.8267415689891813 1.2462489822011542 8.954083509135687 0.24970528191376998 -0.2088676790721177 -0.3645533748046173
P 0.5077032175589594 5.512888470106851 -0.02505619145010134 -1.089113385583434 1.0389354791774623 0.993490459470786
P 3.287532479369025 8.447239371739732 4.933752830985273 -0.3483716228384323 -0.5284038657360964 2.0877761332837785
P 1.985292900548374 4.963716306386195 6.346966016683055 -0.9797116605191387 -0.19885246092796074 -1.1262424292252475
P 9.127303771237306 1.258984798622074 2.4485457690166967 -1.6066098603784074 1.149899149412239 0.07727373418149919
P 7.711513345050508 1.235035824274839 11.85652813591805 -0.27925625609800936 -0.3694261295158863 -0.2825927766704101
P 8.768435721962673 3.510677141840649 4.419724941197799 -0.17860605197409887 0.049003683592212376 -0.8548102971573471
P 0.08187955067837528 7.672469373528369 2.755771257595316 -0.12340935219729714 -0.11917165996686573 1.0091070829621203
P 6.024172754866083 2.5396627812290054 7.225652757587914 -0.6139246704177361 -2.040466806674854 -1.9804588015523377
