# total energy = -340897.91660900944 ev
CRYSTAL
PRIMVEC
9.02767273465442 0.00000000000000 0.00000000000000
0.00000000000000 9.02767273465442 0.00000000000000
0.00000000000000 0.00000000000000 13.21291157831694
PRIMCOORD
 96 1
Ni 6.409295527263515 2.05362401010398 11.35377532890135 -0.32767192839723563 -0.4243991433176562 0.8925029266121146
Ni 4.611949089347243 0.31742741588823725 6.0082276267140875 0.012347980042391637 -1.0195429335834636 0.49460594335004493
Ni 2.657403786963429 1.2924648153232863 4.925126276935283 0.7660277910053 1.7048517121711413 -0.7816528991370667
Ni 3.610175334487679 4.4541092601190515 4.913062597926039 -0.37221809043872667 0.00028590667153499146 -0.444393327051396
Ni 5.2059157859978695 4.465357740284822 2.7683692313082093 -0.354851317025505 0.8667571851065782 -0.6995087242371437
Ni 7.247496880739781 6.208763833906973 2.470444296721829 0.16809666780234275 -0.8503913421540451 1.0901055742933743
Ni 4.991129397471382 4.661213099190427 11.409626831502932 0.47175912065885844 -0.45705112502472256 -0.5632574830801719
Ni 5.578343394953473 7.989905599353295 12.30375732556587 0.362195416095402 -0.14658219076933465 0.4450415021583561
Ni 1.9173061525573272 6.677968094048014 0.304771521550843 0.19364392014382778 -0.7719955785529607 0.688608275274556
Ni 2.605124534443385 1.5769719199976413 0.24096393101178737 0.9287819635488069 -0.46604998608922316 1.0234877771638244
Ni 0.7374471097057241 -0.01172333574901213 4.559115537724327 -1.2408506381911468 -0.249079475404313 0.07258095669152016
Ni 8.641884120679073 2.333211033164896 1.5158906866095188 -0.19482662759801928 0.7969890152735049 -0.38387675772357754
Ni 6.872965824048524 0.5577341323285414 4.862747766982296 0.1253201960667648 0.13555215820741817 -0.11439737850667396
Ni 0.9203983132750915 7.4457806835977065 2.5144695481057866 -0.38769098926334516 0.46823182423189036 -0.13807698151180092
Ni 7.507746628908979 3.8034668343506843 3.776342289000706 1.4222437659920797 0.46166394120638554 0.2351070723846209
Ni 7.7395411527744 3.932183391496391 12.640514794207677 0.04369795510858281 -0.9056860009612918 -0.25332925181960236
Ni 7.691829902633072 8.563939194714981 7.12852389072322 0.2766784680685041 1.0517336593833952 0.2963414937150703
Ni 6.669617496814197 0.8115191640878623 0.42740071900491367 0.04039254488443366 0.2734067392957678 -0.11631567857530935
Ni 1.7906388771111628 6.342102559467506 9.22407873214819 0.22527157435143783 0.49588043918709435 -0.44507132695502705
Ni 9.3871546115338 5.017381869639969 1.453407455653383 -1.2111019461738044 -0.9721011951617322 -0.3864627732831989
Ni 6.3594627740411624 1.8331862984765517 6.964076707856725 0.8907586902274982 0.14268645525935425 0.5955919335468194
Ni 3.4198900496288482 4.403743874208272 0.4305360297284867 0.2181987266650565 0.5679304630758091 -0.1298859610605763
Ni 5.974640170488768 5.611267317236429 4.741016822960404 0.14526141507538207 0.7821768899613368 0.4208890732818687
Ni 5.395379552642346 2.9266270417817255 9.218661225769795 -0.7643082372110321 -0.01341910161938334 -0.019060101955244595
P 0.20823320092429437 5.533295308254281 12.475803100531506 0.9668232345922447 -0.4318430011902111 -0.6243265824773505
P 4.083017746720859 6.244486334722343 12.486954081832275 -1.1301859872540276 0.1658387250061015 0.5155352373035443
P 2.4965667704037493 8.523025782105616 1.4687608185891174 0.46791892097716187 -0.4112371520144015 -1.2248421785780323
P 6.212158238836611 7.5686382811707125 5.916067727339865 -0.4071244153976086 0.8875404404005167 -1.253241812766648
P 4.599346458278691 1.136231911833063 12.623020970078278 0.8874959603158264 -0.36898698509593875 0.11674736679608924
P 4.107654265478795 6.030990903389841 8.154943192013404 -1.5361595768766447 0.06712533289358763 0.12485276951204305
P 4.69423632587292 1.151615066088659 3.882112307715149 0.28842378152989034 -2.023634308498547 -0.4042928594860844
P 0.1889573142068366 5.709777281577427 3.545618447115751 -0.41282172289270197 -0.8450164509953769 0.4418533342383616
Ni 1.4922111011562158 1.0340025463457587 2.481952773860933 -0.09528019806124881 0.810226082789069 0.6456469412216815
Ni 1.7648197332314657 6.569970045714862 4.790552565751413 0.5818555577973334 -0.049698138556075695 0.344376128525794
Ni 5.968167329173474 5.514842745285714 9.18014556302562 0.444875408894137 0.35515033632316256 0.20764306263639723
Ni 8.430456026391484 2.312664050133361 10.001949051836473 1.397367057355058 -0.09109932721068181 1.281472011256935
Ni 2.261531312044338 5.2371244504706365 6.871268621583704 0.08937951630609768 -0.3163678162383261 0.9117756587987975
Ni 0.45772467155453 -0.06511840861294803 9.067399861627317 -0.27052607531386313 0.5745525963780169 0.08134918980245345
Ni 1.3961747191309648 1.103280906532051 11.373489057744038 -0.4944349649898195 0.4151053767205561 -0.2680483031973319
Ni 4.24151659605507 6.884232359559664 1.5074741873650985 -0.027989543234390506 0.4397334596818814 0.04882782013598042
Ni 5.435552696091525 7.786512133755541 8.087596753781746 0.34761134763364004 0.6484497007777994 0.15193034245512546
Ni 5.215403869990024 2.7028310359153993 5.14638911784614 -0.1607155448469232 0.8298752244785643 -0.6626889843056329
Ni 0.6561303479937062 7.328782045597401 7.086877431091815 0.5963815193276503 0.1711807060443052 -0.6365326376252392
Ni 5.138786011910657 4.45748560970332 7.001732936161268 0.06808846813780532 0.2468328454619813 0.21977995510924728
Ni 8.239629081171541 6.965616828816821 9.148884538051279 -0.6611272962454678 0.0089554094210749 0.519397291362112
Ni 4.476254141215869 0.35233381509286554 10.496627598760636 0.10174009475397962 0.22429841180489116 -0.6434805296979821
Ni 8.215714776228422 7.166735320897903 4.89029661294848 -0.567486433559855 0.07790236890443357 -0.22853893224879998
Ni 7.203721695889203 6.012466119039793 6.996936533663616 0.584543903262774 -1.0609888594330759 0.2617627272989363
Ni 2.333463808000082 5.432365927633646 2.6422120193687593 1.0679714613984963 -0.7210802797603324 0.08636284096696094
Ni 2.2446315087776276 5.236068212766467 11.277048235982491 0.6298973916969087 -0.3400803293639175 1.5981409036754475
Ni 1.2598749169296826 3.2338116602413245 3.6794518891394343 -0.8000547986830221 0.316619527237816 0.6170377621254213
Ni 3.667293419566995 2.7017657705385445 2.8150242437453685 -0.3317131883461448 0.32342806551921716 -0.05921404846631092
Ni 1.023331837231842 3.3167037508369117 8.022945978613892 0.14018194366994566 0.07650368878469406 0.3578271118243773
Ni 3.6318507766048653 2.7065865477524467 7.223261190649069 -0.6633824108282317 -0.046456491690326444 -0.579033514967506
Ni 4.012511623049378 6.74934990196996 6.047007800267939 0.46280936766473846 0.840907828143642 -0.4225646612120787
Ni 0.8169637534843118 7.341827032627528 11.482231889073722 -0.2804716165623492 0.49341757946889864 -0.8038883134964994
P 0.16597737338663762 5.4113314502771095 7.89935262571704 0.3086246819577975 -0.6431020633126409 0.39175101826533176
P 8.418304778957193 1.5923279912351815 7.978973087731508 0.4123622667577802 -0.5442711717856562 -1.2786378842422497
P 1.7803653855953951 3.1575097707059396 10.383551484542053 -0.46944692758591405 -0.06731070943151632 -0.26912122454653653
P 4.054246553873099 6.2711360244890795 3.7294633902809537 0.16831264046789077 -0.6304062130125272 -0.11144138120214354
P 6.946378858324642 3.951376223625145 10.415976176525518 0.08656775788891542 0.7089917240269145 0.07920668953815391
P 6.369050162432854 7.800595303144467 10.181380365825877 -0.014818038849438995 -0.40305898707898324 0.10293642905492595
P 2.3186493971236546 8.344007032757926 5.9552703959753845 0.2878856496382332 0.3389063636604744 -0.3239885660083775
P 7.049736682897597 4.140695547506659 1.533424232498731 -0.5839186109739491 -0.049994843860888094 0.13223800623252066
Ni 5.397807996594667 3.0909036016344693 0.27515624130701566 0.08783891129185517 -0.19878432669418666 0.22876030423098667
Ni 1.4518032382172212 1.080675614128288 6.952277539657157 -0.7012210789425601 -0.16934005329114063 0.7022083825564938
Ni 6.711253123238379 0.7594303954614762 9.216890899156226 -0.022238499683226217 -0.8244203720115801 0.06366668492102584
Ni 2.650587894086096 1.4695426150436568 9.13405929396763 -0.10637887907757163 0.21394200827123155 0.494538066226587
Ni 6.241507202736225 2.2505626897318094 2.579503999362762 0.012450052837894687 -1.2304854929067388 -0.2106635946302759
Ni 4.187197089508169 6.918943761034292 10.326062362115374 -0.3405626683169748 -0.027291231615785255 -0.4405454140602154
Ni 8.081166342528071 7.022382834661415 0.3605607332108964 1.2395298624971944 1.2972742683965142 -0.5562288583681646
Ni 7.526063776787268 3.680031465725824 8.179307075056244 0.4395383129519398 0.9058014434932335 -0.6598260609355411
Ni 3.0869314256529776 8.315308061291645 12.318952704229613 0.19967058595388193 0.5889479458677405 -0.09395916525698013
Ni 0.1259513810022274 4.759686952840684 10.210792523434288 -0.4922430995448232 -0.5675787361633451 -0.14743656834982993
Ni 8.75134465198723 2.3870159623687406 5.7426353018497815 -0.6054708832234281 -0.4923135477714425 -0.2051074406987371
Ni 3.703223556854126 2.6948325179163044 11.431718449330905 -0.5310217629749177 0.10387873836353721 -0.3365638315702268
Ni 1.1967895402054436 3.334659791807792 12.835524260182677 -0.9070821099778701 0.520621136466884 -1.2553866270237928
Ni 3.0022338005203486 8.212230094571932 8.042421376897693 0.4523845727869886 0.02779028273939085 -0.06086135426174679
Ni 5.655069585105062 7.992523624432006 3.509322689084869 -0.063902969301548 -0.33309875583976184 0.12045618310624415
Ni 3.2017002285000373 8.2977582655916 3.677390871465401 -0.11904259058816918 0.07213229918987576 -0.21247185148360825
Ni 3.4255233173844184 4.32883224626641 9.336111247404363 -0.06918504363609376 -0.28855670756332885 -0.5145757016037524
Ni 7.276340294969024 6.043106040133392 11.33798592937492 0.07080972372371032 0.33272183211631734 -0.36832724002475276
Ni 0.5449897667988322 0.07645445720376469 0.3425261514876547 -0.13444247008300717 -0.5215683308715018 -0.18640549341385962
Ni 4.492711588521004 0.545606356843232 1.7395323192729273 0.005261762619571583 -0.515116404598571 -0.6108136355925803
Ni 6.090077021114532 5.7064370426839 0.2020718143166394 -0.8996305387958313 -0.3163888992842486 0.8279417549012773
Ni 7.968112797491202 8.808309266630898 11.416365086395171 -0.3080546683869404 0.4037269596802853 -0.1574636135685288
Ni 0.19294664276643037 4.746723214864724 5.539764538500502 -0.5200554937714011 0.4129209674747275 0.4794991696155935
Ni 8.019362895325132 8.792303202960023 2.3778619022659386 -0.19322071656348017 0.36065275419863047 0.564577487443176
P 8.30742690303746 1.5705261617004023 3.5515252533536827 0.8166008759671614 0.3881748708782992 0.8177483593080433
P 1.9744784036727545 3.3251536524702674 1.6449412676445783 -0.5355245359412777 -0.37163882089648903 -0.24933761416170608
P 4.671901863649714 1.0841151574213528 8.224032873840574 -0.02390586008332012 -1.009706407109016 0.13305278882433216
P 8.417402011688672 1.6890775594025638 12.51223066258359 0.3561520381147995 -0.005217282534881337 -0.4569814481290517
P 6.335151251499896 7.876536085772444 1.3344118964551088 -0.9925121547179164 -0.1483775921068606 -0.01629770871875903
P 1.9613611952611463 3.218834751256563 5.8563984219597085 -0.5904178455450476 -0.1935145936548151 0.11735054759772694
P 6.9216069244764284 3.9147960939046786 5.921062738636591 0.7805534954253008 -0.04440886513267835 0.10199900484232112
P 2.2405780837419687 8.399491109081218 10.124459084011098 0.7787071862451815 0.1804644453390763 0.8633121639807714
