# total energy = -381171.35203796905 ev
CRYSTAL
PRIMVEC
9.23158675615126 0.00000000000000 0.00000000000000

0.00000000000000 9.23158675615126 0.00000000000000

0.00000000000000 0.00000000000000 13.51136036071478

PRIMCOORD
 96 1
Ni 4.698554620975234 3.7988441627703544 0.33877431354280635 1.9899682837046697 0.13701614434745435 -1.908996274735977
Ni 4.1109825786622425 4.686359694694825 11.444716756078355 2.3818110903528593 1.7688223014858309 0.8316307737170903
Ni 5.370531062214628 3.014297751006126 7.667021235712081 1.209951377509129 0.3394606935020476 -0.9803050711287634
Ni 4.707850828972487 2.9484765364873415 9.859874845317215 -0.1633810074942283 -0.4044905773191872 -0.09074425786410824
Ni 0.40144201798029866 7.588955244343686 12.458271143798756 -0.7080846388316128 -0.04877536963149019 -0.2597089300937011
Ni 6.161281100368284 7.189744500914466 2.449960689734135 -0.0301235588582578 -2.356633562645967 1.2371387365571984
Ni 3.7473872974509 3.934299237193094 4.806868829944224 -2.360387116151128 -0.6745124593031222 1.3114652151849155
Ni 2.923588178234516 0.03659493358680444 13.10510074235243 0.20404686064470662 0.6971291682613736 0.23604269682501286
Ni 1.950985109953855 7.9533352104405965 9.304382567443604 0.07391587345285978 -1.042511626564495 0.3773800942556404
Ni 5.216382024341602 7.499971978320324 5.791996392157232 -0.48472596523217165 -0.9982063768892163 -0.31369952537754364
Ni 7.019726365179198 1.977599774954929 6.162410123444813 -0.6712011355417021 -0.33268120868636897 -0.8645123549364594
Ni 5.923964696211986 9.223776966522037 4.311501877478866 -1.3296560271613296 0.634154881421682 -2.2513826265252517
Ni 6.4468233144328755 4.73961671945764 1.8837403847367817 0.9990921219282792 0.11698390828692755 2.5080136890245774
Ni 5.937608981633971 3.5692730600139524 4.202641158566045 1.6064931322948848 -0.8431997095016123 -0.5518371570583722
Ni 7.045140923884698 -0.11125723886921364 2.185652048673002 -0.1455097836407623 3.164581133813505 0.03869484546703659
Ni 7.79565970637596 1.7287900451217884 0.4052731265392462 -0.7523505506285237 0.43188799549553364 0.6222709854999026
Ni 0.770410082761056 3.82744361895257 0.9322490325126436 -0.5121704345963695 0.7517399136277183 -1.0370639731863622
Ni 7.293507537547165 8.801902677280248 8.75340268924135 0.58471616717458 1.0182499258036528 -0.9250008992398198
Ni 0.4858584179696572 0.2920467901866024 0.30391491829113954 0.45057400194081115 0.6338628041025599 0.15753431890546418
Ni 5.042422001004717 0.5683731110598753 8.908040078060806 -0.25954489371201106 0.1438709624857587 1.7086137503167347
Ni 7.3349481310920215 4.021436185838649 13.458747142373465 0.48939200324927334 0.1748517271379892 -1.247919629222786
Ni 5.107172351444376 0.6791078421111699 6.636388412246976 0.37518951436222475 -0.43583258196557845 0.2251509896131735
Ni 8.175161011797101 3.9951907843131367 6.192635262078186 -1.0788839945459419 0.8814770078152562 0.36433200282243067
Ni 4.703613530590422 8.572894701324076 1.3923725557117512 -0.6983851521556618 -0.6101022113478525 -1.1596770547346091
P 7.033139860928959 4.482175455883255 8.063390496696858 -0.142827865933225 0.8129067149450258 -0.5380799553732798
Ni 0.9817884972352462 8.81416222466888 5.732653905317169 -0.40217709869466217 -0.14654336711159924 -0.2737713217240381
P 3.64325499734264 1.8935646395040875 7.9246969815934465 -2.142982089031961 -0.7257326909306792 0.018536111130974527
Ni 3.0776449002386514 6.1317123275627194 5.472938901892016 -1.0883009169844677 0.7822637932481882 1.0648108042823274
P 4.4515173558247865 6.999527653066 10.384980431786895 0.35189480550034236 -0.5351956918469492 0.49963656379541693
P 2.9614284528926507 7.308167297526945 0.3634771168991621 0.9685525585785255 -0.23111800582988581 0.17758660957064898
P 8.69145597173989 0.40976983251289273 7.240062188411814 -0.45225961717335017 1.9883777992890979 0.32070655282299604
Ni 4.412033858700405 1.7869213477620112 4.879708819974739 0.19342486215448623 -0.3948790223713522 -1.099340462628081
Ni 6.844621625068074 4.024676472836699 10.318152974297206 1.32001156209303 -0.4607023486240646 -1.7006826683951162
Ni 8.526709072118258 3.43927385344263 3.765440588771088 -1.8945410185425953 1.4583235424337724 1.3694222513156737
Ni 8.354087628880285 1.1139386635517128 3.9478299740963454 -1.6017013673331963 -1.165978828582921 0.4110332635337115
Ni 0.0119696755603165 7.649560612270169 7.645471019278329 0.3601824994304313 -0.26213039505100016 0.9004648617716685
Ni 2.1837041838394162 3.8264004496341095 11.499653929654976 -3.430185089235402 -0.3388071190784488 0.700915117666367
Ni 7.404951254471537 8.477172376871723 13.610533817161588 -1.0389311083020882 -0.17113519751835043 -0.95693271495141
Ni 5.184736144486006 6.062373878439215 0.6138479080752379 -1.2358706684780523 0.9869675707506034 -0.5172745885921542
Ni 7.105700133876735 8.764717845291234 5.9656037688749555 2.9657379288569246 -0.1883911563853207 1.8672469587133327
Ni 2.258470806053672 1.9437567774197444 5.815464932346526 1.191836155965657 1.3666644860648787 1.7746702756261759
Ni 2.443564123178726 2.1859105331058943 9.857064750268194 -0.1403835181577905 0.09710979507081986 -1.963355823323464
Ni 2.77382414413378 5.898559369093375 2.8347378470623568 -0.12246344334426007 -0.9726938344404088 0.012796123323403767
Ni 0.7029197973327342 2.8073440361278483 7.888215596525377 0.9177509025456257 0.4593602327738734 -0.33161754330854504
Ni 2.4384867503897594 5.214231064596458 0.2647729898816517 1.8412255949489065 -0.4623997909311455 -0.9909260411777193
Ni 2.7390210615621364 5.094598930101516 9.548586658577808 -0.36354910190981904 0.4661667141727456 -1.1029490059149456
Ni 7.414949063072357 6.436059284120266 9.17828093685683 0.3029507715014718 -0.9483817400576052 1.6218544452423034
Ni 8.557717972478512 2.8719189864166146 11.532919029850905 1.1855048144309905 0.13428229035605904 0.08232492345216144
Ni 0.2549819688271463 5.331139880959136 7.867908874845577 -0.9891450380178964 -1.9153196458508435 -1.0097645140404607
Ni 7.647289641895468 2.404034468119899 8.57970022717867 -0.22445087822235535 0.09958988118019624 -1.0834538733048114
Ni 3.8082973077447213 2.2371458403400117 11.940813927066637 -0.912028655349868 -0.6494416323774234 -0.35407458676048054
Ni 2.343401405432749 0.239146104677704 1.8821460896810462 -0.43870758952052835 -0.9687636461480672 1.2904564741437323
Ni 6.386033314768612 5.52394157313653 11.786635348115567 -0.09839508954114667 2.387795590071068 1.363991824328722
Ni 3.3271746938491367 8.488988808089681 6.802254180199559 -1.1220476744176096 -0.892335804906631 0.25339172962642165
Ni 5.110634196527761 7.8050020723076585 12.553634359521126 -0.8794157544108532 -0.6136675601016077 -0.43361269149612425
Ni 0.13119562023214096 1.2282810987592403 9.746258012839165 -2.1330763998824747 0.036656474880769126 -1.3142237517666593
P 1.110892239878333 4.455920822770854 3.568431139289673 1.4635763061922795 0.2694387557869553 -0.6317760967768603
Ni 3.8096543510174086 7.949227154274977 3.7888020425524673 0.2297095555181334 0.8562328885364866 0.05597805802751649
P 1.5040655254821271 2.2104111647093805 12.938167802955476 -0.7491754953346517 -0.06514532634908135 -0.4439991769367709
Ni 1.3857258131516497 7.574147778973682 3.5491371226916 -0.6651878394680866 1.497872508370988 0.6661471180575624
P 0.5504232135128452 3.817095010049967 9.754486126233358 0.34447948687287766 -0.550727211823645 1.11970128567262
P 2.482401409220876 9.653562725727724 4.485595758825641 1.2779004918555925 -1.3366404288989626 -2.191219326771794
P 6.146732119431173 2.566519628953719 1.840598409728277 0.2726660044750014 0.08142092358065334 -0.08406170363761006
Ni 8.10845356493697 7.817252388109402 3.793584927719674 0.2877396109786722 -0.003870281588683657 1.0692922370924487
Ni 8.8228122215839 5.8084683126433285 2.697313675156187 -1.4410115335178861 -0.9916253812375889 0.5940814104395639
Ni 4.811299991650959 5.690119368725963 4.083079184131459 1.650639744905112 1.7743874542784346 -1.690338863266947
Ni 0.3099606845447654 6.523537801480716 5.473790054203185 -0.24922885649798363 -0.6956417850825697 -0.16027768597855624
Ni 2.5697414527779903 2.303068602314576 3.1050322490623374 -1.4121897241901873 0.9778157290480064 1.229197884443567
Ni 6.724869479943575 1.5230825944735293 10.493368493450998 -0.5809728980820639 -0.5647430664867629 0.6468949546961698
Ni 0.06787801207766093 1.8974603691712584 5.7727291471611375 -0.4451947399067687 0.6293034668666516 0.4292312745989769
Ni 1.0925029187953847 6.751733397790653 1.3722273868025097 -0.3889012075213625 1.367221387009613 -1.63745898454878
Ni 5.232989649154968 7.492134361051538 8.391636185392725 -0.3098423564149825 0.7936514662598396 -0.34542359595370187
Ni 0.37484858562906953 5.234032818473428 12.218296042618418 -0.7943700895934189 -0.35132427770885305 1.2331702388277537
Ni 3.4683164257955186 8.880038828708999 10.927136759240613 2.4603644625777306 0.5238854090404526 -1.305186067044423
Ni 0.2761296880725366 2.2120174608280716 2.2901757680653567 0.9417446943570621 -2.4933306330911065 -1.0319384790343389
Ni 5.581214338196073 4.935760246088863 6.213456183147705 -1.0354272089138878 -0.3944666174242819 1.4219460322460027
Ni 8.29901198150033 0.45130274192663944 11.901900942011997 0.27619098690912436 -0.06774908252051558 -1.1064441635523976
Ni 7.097253231873273 6.65399858739649 6.975955719103551 0.5390667447665813 -0.8516864068163849 -0.5614109167897363
Ni 1.5032069879014476 0.5904753763895915 11.20893002586957 -0.2160693390268795 -0.7441443606686474 2.950942515715305
Ni 7.0816333868570345 5.732353878743275 4.768672216032173 1.3754622868621666 0.49136815313903753 -1.5783364673550109
Ni 3.146909496667045 3.9688715300925117 7.17764004418557 -0.09506062585127499 0.23029422437700983 0.49532508090425664
Ni 5.467056534726327 0.8910789244636358 12.748522390335442 1.157569007252671 -0.11251944475767073 0.583176333491286
Ni 2.471711231603379 6.83114350821009 11.618337980176413 0.5642427298115767 -1.1419647250565108 0.2834996047553956
Ni 3.1866237834636526 2.2747737884996986 0.7009008492801033 -1.275297507015107 -0.6969875004771867 1.3040308703940573
Ni 6.707458707070864 8.112847800296148 10.875186004022597 -0.2529638980603837 0.03134020487417828 0.35416406115049326
Ni 5.13692575598772 5.272297746128458 9.109751174744803 -0.10688898594477075 -0.5173494076941477 -0.14678376525717948
Ni 1.557931834979618 0.47045643840399926 7.97721547940514 0.7450540169671103 1.4059825669382109 -0.8233052845705304
Ni 4.201645993499407 4.010349049984924 2.5229354609332293 -0.26069289127352524 -0.6186647562058829 -0.3222692693244256
P 9.01795873683111 7.981870045514588 10.304195738079683 -0.5779672784865207 1.2521038425074629 0.21024990413162498
Ni 0.5418230671670247 5.995444873493747 9.987206123277607 -0.050647904063854714 0.43099942224299326 1.3844156394007125
P -0.015317048966278834 9.129947117381935 2.3942268302089937 1.1224487665107699 -0.25360770229196966 -0.16640231081905535
Ni 4.507128435244304 1.3054202388039764 2.5189631090948796 1.6503193854512157 0.1205402581796182 0.06518954932345548
P 7.776448774059888 6.479780079626713 0.3972730333412126 0.2418636743821641 -2.409187425483283 0.21661569844865275
P 5.826146801535821 3.0473006741344095 11.91766849241846 0.2226876156743455 -0.02356133225970781 0.7338805168487942
P 1.9555916718114812 6.449066590046909 7.382918226043489 1.1091451074233285 0.5635906980498745 -0.4026123864598679
Ni 1.1609366724037655 4.283659411421551 5.739464046965206 1.0578408007223974 -0.5925045528707474 -0.505092958924298
