# total energy = -381163.92286445096 ev
CRYSTAL
PRIMVEC
9.27083754810377 0.00000000000000 0.00000000000000

0.00000000000000 9.27083754810377 0.00000000000000

0.00000000000000 0.00000000000000 13.56880786227497

PRIMCOORD
 96 1
Ni 2.2353843500814055 3.3587410068652224 11.681847719652211 0.9011117513270482 -0.15570652166810603 -0.3872487595196041
Ni 7.521940400465738 7.220795784325666 10.783714936143143 -2.0858730027237953 0.1743537044556481 0.41177065592036827
Ni 0.3468229598331967 7.9155245378179115 5.828400348921545 -0.4890346199098545 -0.9951717038279505 0.8055410186085741
Ni 1.0421812031950946 5.410868711093696 3.3917813448100427 0.2112320655392362 -0.24076118534660473 -0.3530168349199275
Ni 4.790241762139442 3.1534661218307893 11.150534165488162 -0.3380769257806436 0.18005589704674796 -0.045801374604830795
Ni 5.953991458129068 8.058313977764634 7.179039004916236 0.40976056746887496 0.8589055502726435 0.1696295595071014
Ni 6.701962631671568 4.688781715991088 11.195189008715754 -0.18519064717015202 1.0788878512006839 -0.629658021992593
Ni 5.7357188588493875 6.546583394331803 12.62808224379 0.483295146322916 -1.1693747416383473 0.4263248995854593
Ni 7.923478916435901 3.085223486624464 1.683929901339753 -0.05885923623005347 -0.6340327540215209 -0.2905092033040093
Ni 8.388467044598986 9.347229251518232 10.91375882862598 -0.29906069241844624 -1.2456521733448482 1.3352031822318038
Ni 2.850189213054193 8.725517614570617 1.1883090717436102 2.281285327621955 1.608912797479971 0.7442950273138988
Ni 7.3053921769703765 1.1712776160803118 6.366104291408881 0.4391058534002115 1.3716691383683215 -0.5133176608269354
Ni 4.0070506767440905 0.9861946152300082 10.383652337510956 1.596522394235418 -0.5241468902319554 -0.02485511137046687
Ni 6.993901306124386 8.431585710044526 12.99148238824654 0.4302057226971042 0.8951128534311359 -0.052665962935148004
Ni 1.3467560292287062 4.689949841522402 9.784955554781478 1.8580295538801228 -2.2255314697901025 -1.3250776637620274
Ni 3.971552639764737 4.770031336280212 12.94144026131858 0.8324735813333599 0.9858717665832634 0.1533400783184585
Ni 7.3281984373436355 8.495007509724797 5.159322148762931 -0.4215575601038031 0.4918039551248756 -0.756865922000374
Ni 6.362965185814416 6.100034962055878 8.86798906478937 -0.5294400203100946 -0.0026081270468084118 0.7893656944002921
Ni 7.822009599449998 7.243351732085072 1.400599199552208 -0.593395697226449 -0.07947151316376636 -0.1356855984614889
Ni 3.548737551617082 2.7700706349461823 7.039524951875965 4.116198092978956 1.8028074001820242 -2.026719118071458
Ni 3.381677058964183 6.115990073479609 8.679301562299587 0.8185741976434483 -0.0802893810793714 0.7143337050651182
Ni 5.344637847635743 8.223956032272367 1.6457739152347843 0.09238873544606668 -0.1861527539731052 -0.5077016001917385
Ni 8.15303412501406 4.303958520123765 4.759991946297203 -0.39193536636199594 -1.0708595815795687 -2.803889555957139
Ni 7.61629898505071 1.7900133141743437 4.100791823548226 -0.019042875564063977 0.25302200499182875 -0.23639056708273481
P 0.3138910906877124 9.193509494099935 2.7345892854744185 -0.8916776024973417 -0.9827635599715848 0.7760741194977085
Ni 0.4043642672554356 7.161555132380492 11.358598645541422 0.5201128293718978 -1.5226862249805584 2.010209550452209
P 0.7438326716601338 0.3447898651584586 13.10578625273681 0.6289913349428715 -0.8052016329912842 0.5035019602880942
Ni 0.24775386268901575 0.8341176502255898 4.7887445218751 -0.46920370122685645 -1.6397974028739697 -0.6099847119333818
P 8.965604494605696 6.29735546847232 13.373512280760016 1.4735776403793652 2.023760035443134 -0.7744026453325566
P 3.39896717099513 6.542624746697908 0.9807971336083368 0.8251940169528111 -0.598692169738698 -1.3708672112923164
P 1.1450689583261637 0.3326413596328005 7.309367512111861 0.9407869584294829 0.21576466330226712 -0.5464427255156782
Ni 2.578433151947954 8.33862702192962 10.790187834920626 0.13349244746491204 -2.0292603964360727 -1.6000005825920056
Ni 1.2420511899378162 7.27845112304977 1.7715569307795938 -1.5532550989063507 -1.1097475168940178 0.047460764585124715
Ni 3.3432957915067467 0.5900341121226608 7.932949076993333 -0.9483570574672571 0.16556053164405038 0.8166479271550129
Ni 4.402127418941831 1.333739773308358 1.9386702672065281 0.08229381310390989 -1.2800036542415245 0.01886932610067718
Ni 2.097119078859134 7.5283929034006105 13.040492670955171 -0.43300154027468657 0.1493813507810266 -1.2823287028302752
Ni 3.6026474719709447 4.5725995798131684 2.7698277390023693 0.06304242107346562 -0.7283336188886359 -0.24484846804210086
Ni 2.5670578342739745 0.7183647538262393 3.838385402111269 0.334752746503417 -1.2535251483350218 -0.3535850487185717
Ni 8.917850410385103 4.459578799239834 7.720420688659699 1.1926789635819266 -0.6823550952759926 2.780900037040501
Ni 6.959719728077149 4.493741835611972 6.851094251586319 -1.4523660392987567 -1.8121582452693048 1.3716634819413667
Ni 8.714624380449242 5.536822310049427 9.773707247581934 -2.679617341538914 1.2139656408748447 -0.3037565552322188
Ni 1.6970082718716866 7.641515663186997 4.102271449221223 0.21052784038336 0.534321259661796 -0.25468190919275496
Ni 0.5742820320412768 8.384295167701438 9.604558962312751 0.7028061640414929 0.06268709461657591 -2.849324805471803
Ni 6.722089619992848 2.8074506519482068 12.576778355871472 1.2575728360418341 0.4692299264791016 0.6718536815240365
Ni 5.632311936815512 1.6367107444458016 7.885200555275271 -1.8548177318110446 0.670447030984497 0.7464912636342692
Ni 5.582740768435099 0.49712734069803494 3.737908064743227 -0.2175477233446189 -0.8019566436914254 0.43991472245475205
Ni 4.652458574469776 8.504843868365459 12.135616280212158 0.17317382521493402 1.0882662070917903 0.05286033833414122
Ni 1.2799596446801969 6.610811756878933 8.108421000555444 -1.6992335946534156 -0.05030749000530045 -0.5904468990107702
Ni 5.334838572345282 4.503949027754638 5.17723247982598 -0.31446571411960683 -1.1745575713908674 -2.4670583296581383
Ni 6.5846216407998845 1.2119024262248734 10.976744898941396 -1.8345450976049373 1.3177011687922984 1.740135732184416
Ni 0.799458624044521 2.954819885644682 0.06728310351988968 -0.4244413094095013 -0.8081308908229372 0.62478552439164
Ni 6.005268460618701 2.9290933114431392 2.9902400475886144 -0.3191692902428632 0.662697211835749 1.7583476272067524
Ni 2.6299975504016406 8.007481975477406 6.5269088228829695 0.7683451262845671 -0.3326956068640722 -0.09645364954405969
Ni 4.169874396636591 0.6918696271917932 5.700650061648603 0.6655488223519312 -0.41207121787992257 0.07291417166122281
Ni 9.57668248088334 1.81871582722947 11.52914497311316 -1.591061628231163 2.1398646264489014 2.3772651228533896
Ni 0.3737074616447472 3.078390879350036 3.1356160512118167 1.006929615694827 -0.4223839126598403 0.7788889632386844
P 4.739511739065265 6.341605176098973 10.740769635359792 -0.13058761511329123 0.1560001416491249 -0.673842172708975
Ni 1.9269157722767496 1.9197123315003177 5.703132791944522 1.0804042878452103 -1.5690285596905238 0.8654312672063031
P 3.1988561424761053 2.726210302496634 9.534515930454194 1.5006523851089704 1.6024816971426465 0.6753940905771272
Ni 7.613823671424832 4.9071099402960705 0.2944000818223709 -1.8781772324725914 -0.8944078569443112 -0.24546373302859661
P 7.149855335392259 4.997639668972848 2.7310756380429293 0.7867030599664645 -0.53587703418469 0.23377652649865543
P 5.029568433495411 7.821073244857437 5.1723884672060505 -1.2799051809904474 1.2190181156970876 1.1882245273549987
P 2.59917201554754 5.000810295414985 6.893401718746225 0.27276087818165284 -0.02053205851508077 0.10824961373772324
Ni 8.379872978190038 8.90967353166591 7.4604830912623346 -1.0082275085706445 -3.102204628458812 0.8184860088050162
Ni 2.1609395245540592 3.9386318956243134 4.809640062629282 0.01564876228085047 0.054049473546235946 0.10985243944846887
Ni 5.575435348445615 5.599456088537939 1.4046839305767844 -1.2625134678765613 0.9575518365926478 0.049958591306313964
Ni 7.142716790478677 3.199718330368265 9.072565855756281 -2.1281815336840184 0.09520692162115216 -0.5148945183957518
Ni 1.6255393851979243 1.2903707952489654 1.8450589121280945 -0.1439352400647908 1.3703751021472463 -1.604628311172004
Ni 1.7618763222097737 2.7596131301896634 8.058378873627484 -4.71315785340758 0.401586773408831 0.6842122030893893
Ni 3.5666858931140855 6.867039165088745 3.023170989650344 0.9409098571605924 2.1073334865904156 -1.3851052092685694
Ni 4.794422909874539 4.178672421471641 8.605311007812196 0.3186363005575287 -0.8860728547160547 0.48226747638935014
Ni 8.626922257225246 7.228221725203299 3.5961411981782807 0.20372932940428784 -0.06236005029446035 0.3348553335195524
Ni 5.52304584544997 3.2653929435732114 0.9289490475256177 1.4930907707116285 0.638073756860114 -1.0262977358087937
Ni 6.484774720385251 9.41203240599347 9.182677447506393 1.4762549301012122 -1.9775549976419815 -0.9358316713067367
Ni 0.572545604168142 5.331250758213391 5.973410154461519 1.1840549693583413 1.586122539058333 -1.1968672906316613
Ni 3.9271175153870823 2.576208150935929 3.995633640301136 0.3305708472115855 -0.45830890869122354 0.9494520903036487
Ni 7.250110172659099 6.140669043037989 5.477591856025558 0.8269773341054789 2.429360557997048 0.8103896049501269
Ni 8.937588023529276 1.2309632682278902 8.83884340569935 -0.29614994652955445 2.0403562492389185 0.27669723712158156
Ni 3.484110543055297 2.83589358155193 0.5486769058116407 -3.036365875587132 -0.43328564717400864 -1.1171402098136631
Ni 1.5852019710174161 5.236614048501915 13.386320869919242 0.9073453909415857 0.013946434877763078 1.2327879157876704
Ni 5.047794900118919 5.979106157052303 6.808786784426413 -1.6640753015847276 0.6506271680450925 0.48050961315797897
Ni 7.3464063622920435 0.5823921607301089 1.9460109163787016 -0.11011289219870715 -0.8957296610795283 1.4537495499098447
Ni 2.589762115434183 5.757607306305186 11.195881540280746 1.3681235871089084 1.5053757587265686 0.5155380655170219
Ni 4.508389758941139 8.247021876097028 9.150532672468913 0.13676237646543543 -1.3076707811394896 0.5815714508980112
Ni 9.197811162723184 2.837061707083244 6.112083342535994 -0.5037019921140422 -0.39053334380814675 0.0028516105161821856
Ni 1.6646437779842689 1.2609451568649308 10.071773018571616 2.0627940094171437 -1.264966043182112 -1.8185500077282617
Ni 2.661129022894894 0.6218182515794419 12.306271076583233 0.39032431312113425 2.003428008754001 1.9032177203809864
Ni 8.244759791734802 1.224529306968117 0.08208584983614291 -0.22727240683155053 0.597474495281513 -1.165750514622199
P 7.981542172012211 6.593948103375292 7.503509975416128 0.8805380409407544 0.20154492015845935 0.2609415169492216
Ni 3.334442141646396 5.907600187028341 4.921189561283415 0.2172024241900582 0.3445969862873484 2.1839680445260194
P 5.002256546072801 1.5160600645687303 12.896364522066213 -0.548183619466185 -0.6218974042105677 -0.7140262011270283
Ni 6.062247028201647 6.752998592384898 3.7562939897725958 -0.40575838828801725 -0.1505573733669988 -3.0662840033028034
P 1.8918720063373513 3.8398603923654906 1.651201990620371 -0.8395757395957798 0.17052327496596437 1.1643585193706787
P 8.918907285865814 3.1630799803702487 9.944063522983896 2.016216932988554 1.1633655593297898 0.5562206308380485
P 5.887037469342206 2.7006598742085433 6.104851162163158 -0.7511459887974612 0.11157405012526592 -0.9743570810754446
Ni 9.205209291088169 4.425647533806448 11.977647697944649 -0.8384555099484076 -0.20764871906335208 -1.1889259242973977
