# total energy = -381174.8206376956 ev
CRYSTAL
PRIMVEC
9.14742316403608 0.00000000000000 0.00000000000000

0.00000000000000 9.14742316403608 0.00000000000000

0.00000000000000 0.00000000000000 13.38817843626670

PRIMCOORD
 96 1
Ni -0.122297391497584 9.564454402222868 2.2272439140650837 -0.17264237819149622 -1.492589662705494 -0.705463913379314
Ni 3.6378936848539345 1.857878276292881 4.113491094457673 0.9240753021017569 -0.2605208844720352 0.17231070588369035
Ni 7.429976338045237 4.4646561039490935 8.38991609399515 1.7044601331596774 0.17029084724018415 0.8523613213962224
Ni 8.641671480004941 6.759003686377327 5.18034136105323 -0.165705798972663 -0.6266925116063659 -0.5548348062341154
Ni 5.000109678379337 4.849954723748469 0.7424615947949976 -0.24428308245693411 -0.21802569142230194 -0.2397314585305097
Ni 8.805218262450587 5.968208935975959 9.875294825269009 -0.7137510930887707 0.4552287271040031 1.1653543076250448
Ni 4.674589470307814 0.6689282025445468 11.576236247243948 1.2243516120948592 -0.13292937587259043 -0.08820812170581584
Ni 7.366813379670206 5.282024119242491 0.7227004160871657 1.2188710485962622 0.2758305182459121 1.2659358632945488
Ni 6.821160428181576 7.867470155598115 3.8363689886984536 0.9394078186937692 0.8713928841063766 -1.170236061197378
Ni 2.9544073580148384 8.288343104886339 10.825198943038872 0.6130610368658603 -0.6966535141765358 -1.2622949241078518
Ni 2.23151393129455 4.704867441664997 3.9943367576302786 0.15133307519075873 0.12541866931784207 0.5380550156726153
Ni 8.821619592554343 2.5339277479315565 2.9618798881664046 1.4767344408407923 -0.14538971312313026 -1.677140876519434
Ni -0.011812067798649937 1.4140087046505903 11.945201227872513 -0.8309350332016464 2.2123705069281128 -1.3294459680330522
Ni 7.986359217147756 0.8480759155490072 9.906368622459448 1.5676465917413323 -2.025973241044369 0.13044594732910436
Ni 0.595786320014364 7.28080015771504 1.2515458918743787 -0.16483368078035485 -2.042349111299231 0.6790172891520112
Ni 6.5154992762479536 1.996013516614582 11.39229619913555 0.7903262585413485 1.3719010518734696 1.2133820004572329
Ni 9.139730387695558 6.705381490577989 12.427925395024403 -0.7501471152193017 0.05908575041856276 0.14511383375392428
Ni 3.580886942407418 6.0147784683564485 9.673320631985177 1.0952359535414042 3.3566579665805287 -2.007149423469646
Ni 5.784803097392414 1.2765503736583248 0.8177055552157789 0.007364153674555059 -0.5757098499109117 -0.5337802995566614
Ni 4.684834584483055 4.679885828439478 3.146543497463427 -1.637835394051592 -1.1718255171716851 -1.0351215047480107
Ni 4.446553353098379 2.5581226827471912 9.88272527727307 -0.2943969683941898 0.11029209808904876 -0.24143404304391322
Ni 6.186439015331951 4.343041110234967 12.12774903814388 0.706319319401074 -0.08886272457067922 -0.5307399700684409
Ni 8.61664412966257 2.449012216780881 8.061825459956447 2.587625841531266 -0.9458204070883325 0.5215901852483726
Ni 3.251808386644674 6.342329404416278 7.1728376933817595 -0.495009863656683 1.0579945526914425 0.4134354452173009
P 2.9726381727927436 4.234927713416068 10.29965934605785 -0.3801849106942872 -3.0065176818774484 1.3041208590047024
Ni 2.2213877336231294 1.9472668974718534 10.560582279769807 0.00789997157336704 -2.202166055591285 -0.1947664637840452
P 4.981476376973117 2.719657032051272 2.1537032038759363 0.7200004164325923 1.0659253775027449 0.6882596336858856
Ni 1.0423854827904864 7.489727307502978 3.467457977867777 -0.6857764622527157 -0.9408980300860506 0.843280956361509
P 7.971485506746917 6.236420536629731 2.78055051468802 0.4730043059198693 -0.21267933950872406 -0.12816897836946958
P 7.374414888491299 7.788171142397079 10.363293396736474 1.0988411543941592 -0.4610077956796254 0.11780820396043581
P 5.251837622119015 6.19412285096338 7.67500104993883 0.4536354144749542 -0.19832075679420685 0.382401972950264
Ni 0.8370313165711633 2.116411903020398 0.732576889100565 -0.5454099133757898 0.035206372697803884 1.9009212110373264
Ni 6.897138926699028 1.273714672413392 3.2326829538611093 -1.1257832302006416 -0.127535972771161 -0.902403216444962
Ni 0.5504745583473521 3.5865674923206545 10.193183338022314 0.2372889105272881 -0.5498334963647822 -0.298604321607318
Ni 8.97420776180183 4.568543391170706 4.114856804766926 -0.21804368914443092 1.2850381313416386 0.14333822991074024
Ni 1.3328161748118101 1.3900881925360782 6.505235867225971 -0.089868025906742 -1.4050677684334252 0.649190949819198
Ni 3.0292881657278006 9.164071681285124 8.07419643532305 -1.1092204407459543 0.5305057425704477 0.5252190402502116
Ni 7.062963417563991 3.9827698407779644 2.857010167674774 -1.0285664772383125 -0.5498715486915691 -0.8999714670750177
Ni 0.9289025484529574 9.012480581185049 13.17802417359164 0.14821895504180924 -0.624765212676666 0.7430354438751848
Ni 1.1957328881777454 2.685692649075676 4.685259939669795 -0.10617524770719779 1.3103195316162466 0.42098214721630717
Ni 5.826862950051124 5.394519131855979 9.73502640581725 0.10008404720779537 -0.04859770640304533 1.3234162168992047
Ni 2.7227214188804734 7.289874401698825 13.33968658682291 0.8568368406690727 0.31369618294343393 -0.6628579057833294
Ni 6.566496161539886 2.3215886092263287 9.045241163245054 -1.9348402323822742 0.8740182375443657 1.0703394474100405
Ni 1.4770984836386556 0.5044310028106802 4.185251716058872 1.8014115482757622 -0.8954676656673933 -0.37101892792430297
Ni -0.031603433003605415 6.2265047296958365 7.495144411623136 0.21804574602695995 -0.31228284753567503 -0.7390281224880046
Ni 3.394014230366359 1.4556386284108753 1.315001567797274 1.300305084803038 0.5433959682695545 -2.0139826443413957
Ni 2.3688899354764787 8.741442426709716 1.8143923403306708 0.19936128224357924 -0.8092233525561676 1.2233373118977318
Ni 7.348198373110729 3.0473451794616624 0.5896447399632422 0.6730911534755634 -1.0643274368880058 -0.09899981300468111
Ni 4.931750983529719 7.271250247715977 5.082366968298471 -1.2690142451095563 0.2595510643595982 0.23699657609784994
Ni 2.7920040034905367 6.108951191958324 2.1984725233370623 0.4817416857928671 0.9333407865640829 -0.39485973909764255
Ni 6.461373972163223 4.859623550251352 6.446889941997977 0.008057580197153864 0.21852114300148173 -0.7157028174985028
Ni 7.127653995641937 6.999919375692779 8.365818121867246 -0.1987123358056707 0.904594824779642 -0.020094199646713776
Ni 2.849294316061546 3.8399602671138098 1.2801480552700408 -0.3295082102750261 0.19338089629042826 0.5293634014358883
Ni 7.527387249520357 7.794921940844693 1.0012092712293907 -0.10515709085532858 1.231125954704215 0.8380947841748793
Ni 4.781193542270539 2.0546667952678335 7.287680849574518 -0.6182109564979159 -1.3782046254939941 -0.0005648713645345111
Ni 6.32357718650624 5.556318756437812 4.324528554817243 1.54875901080821 1.06524763470943 0.32221013395171605
P 2.9024865829624593 0.34491914881387253 12.503340412262215 -1.3687972161371653 0.945004081834624 2.268716746928325
Ni 1.6520338081808856 7.552002965811047 5.958381859048762 -0.13305767392033857 -0.2619614735733037 -0.7247381882278938
P 2.0799045363477333 2.0789532043171755 2.7981291181795913 -2.841544904416067 0.9873038710440997 -1.1113020058653311
Ni 1.6165143632322616 5.091657091473805 8.792766789758321 0.1440643094434874 -0.19444584721983285 -1.543519873896458
P 6.75098139608118 2.697218402522821 6.952601584080562 0.4759533612458642 0.4505012397213467 -1.93883058448859
P 4.7087093594807135 0.44526272422165564 9.38795120931489 0.09168039652513242 -0.6894222865354191 -0.801510300182626
P 3.137932113102203 7.704874705183027 3.829795650264232 0.41151817358993 0.4092175504812114 -0.15274923881199498
Ni 0.3589211097674801 4.606002089873928 1.7193496967662372 0.10984472613898502 0.15256746181849207 -0.31061882956969084
Ni 8.924948886950338 4.011081116110437 6.428199926566859 0.9105392152885351 0.7334830243000593 -0.026565666303670375
Ni 4.869310671600977 -0.19952542804748097 2.9163870075166516 -0.8026927505265015 -0.06521885989949414 -0.16799896588221389
Ni 5.526397534592087 3.0076636568793473 4.795699526251874 0.6815187154176263 0.42661492002205237 0.2512566855612898
Ni 8.546748667686666 0.05803674231806272 4.666208601015533 -1.027795660510559 0.3187239751753285 1.1922567884428434
Ni 7.874769799447973 2.5044821921011113 4.980911066208805 -0.511815365249796 -0.36530542247929343 1.5245782997969486
Ni 1.8588753454402926 6.149419392950524 11.198475104302071 -0.7762641240213276 -0.7604454118215161 0.140984384966583
Ni 5.182829460210074 8.16609693895963 0.43901686354410735 -1.330133223908064 -0.2971781306837527 -0.48692322999380655
Ni 6.927791942414413 7.960819611096622 6.143755308399355 1.6521939767661096 -1.065089768975327 -0.6280721655627118
Ni 2.1221656323206 2.9216870246176647 12.528416243948454 0.282042817704211 0.5020469730091225 0.1967279583857902
Ni 3.0454242205538042 3.0971163100219146 6.149552030589399 -0.39851636201362334 0.668191659291417 -0.11765676598423609
Ni 5.220864446585654 8.54779147395093 7.335021509745163 -1.7102073200560999 -0.4453384645734846 1.7362582515068807
Ni 4.109397622499261 5.704077086145543 11.895102619555587 0.7007078867515675 -0.7371162501772723 1.0497066016510375
Ni 1.5168714804546781 7.47792713135471 9.020298883940029 0.21438578067686948 -0.09027117488243162 -1.3054526904422485
Ni -0.0363966828498786 8.552255416555857 7.125830914164148 0.09592683050631222 0.6335504150684637 0.7693141750660557
Ni 4.252719451872179 4.9608397898487055 5.412425213104223 -0.5137676038801603 0.2431289142478329 0.6221015498015737
Ni 4.158400369496372 4.204823543102929 8.167029976143448 -0.10755593010480831 0.25950067073763694 -0.4610707877070768
Ni 5.65479991644731 0.6228178708172685 5.2037304078699025 0.3265573551768182 0.04636033243209435 0.2205595135877492
Ni 0.7167738004852565 8.624684714805458 10.829108551787531 -1.5688300705264722 0.08622014474150959 -0.21986634417546652
Ni 5.186598198638824 7.559714243712589 10.702590539146682 1.0485305790650652 0.3866206390173019 0.022254954743458448
Ni 7.219320325240227 0.5836614103364345 7.602584558081948 -0.7207133833392169 0.07360631263224096 -0.3548402612819115
Ni 6.927691320757335 8.841295700224826 12.17941368534188 0.11013346102399742 1.0021730748464481 -0.551658722498979
Ni 5.710178417533832 6.660385315017268 2.1708930418742503 -0.46588826370037834 -0.5345076646409892 -0.16774314111766597
Ni 6.733491522596305 6.6437644467526145 12.593885267755251 -2.0472457772699 -0.5173152120221026 -2.614060638684027
Ni 2.084807555274456 2.6988740861529275 8.338666739818185 0.5251545055608633 0.42763333398423775 -0.28166460842918584
P 1.58089429662656 5.2658514747230045 6.263565515482433 0.1681221217236395 -0.40053262111270377 -0.8208979606806185
Ni 9.315918909239581 3.8818737609985883 12.486511897487047 -2.149688297407543 1.8842668903100968 0.8523744340223449
P 1.6338121408263506 5.488097272938756 13.520319841382781 -0.35070052808192503 -0.9345103813921518 -0.24116176321913302
Ni 3.3929348344086105 -0.05481136083753615 5.720019215596086 0.12218062199651859 0.4624720389299778 -0.48938583260168617
P 7.895205143258229 0.8858721541746106 0.2375183362755555 0.9981040469833972 0.6166125016625446 1.5456040101189963
P 0.9800549399421934 0.8502941657164141 8.814455330570372 -0.5361431433618832 -0.8527012212341444 0.18048809948816014
P 7.68382648400693 3.8969944518304382 10.559926409514123 -1.433321878183112 0.041662926956425025 0.5342184155353444
Ni 4.241513858243009 2.8917840976186815 12.185572645497404 1.6061365202864144 0.8336773718334738 0.8681736058381305
