# total energy = -381168.5290616587 ev
CRYSTAL
PRIMVEC
9.26844665300303 0.00000000000000 0.00000000000000

0.00000000000000 9.26844665300303 0.00000000000000

0.00000000000000 0.00000000000000 13.56530854561196

PRIMCOORD
 96 1
Ni 6.7332577625576855 1.4776035826347287 0.9112792433136755 0.02452189640076422 0.6059365100059371 0.7023873313365193
Ni 4.219024755688178 4.8389262781620905 9.97408323587045 0.39486179598017157 0.17963860700367126 1.2533729390278736
Ni 6.50163927883801 2.095438241488414 4.078966476655239 -0.0735867722482152 -1.165719147163631 -0.10929990937910854
Ni 7.255080581761426 0.5415321711697221 11.671700280077381 0.17982629753444512 -0.45736865626514134 1.1308891839686395
Ni 2.5672392537039546 8.18136914770558 7.394965540840561 -0.9027068637283099 1.0129264567082104 0.14948188091463288
Ni 7.564229622356456 3.2037961749471453 2.54657432488037 1.6509246231353825 1.3481137196458848 -1.0224899320269294
Ni 0.3528015709921054 7.476846706609793 3.50796157173681 -0.7911304996101988 0.7206807303290684 -0.158963595152823
Ni 3.9556525734801626 3.064018729850049 12.142795963496962 0.9119304392091069 1.085352118768789 -2.0872477715841344
Ni 7.205503660216146 8.48206536488515 7.541755492731667 -1.0591559199893954 1.3379318940168765 -0.7985494177820892
Ni 5.76890368590378 7.044760988621495 8.640558584459042 -0.5096962620242641 -1.8189526424833191 0.1888894361779779
Ni 1.3313474932751255 5.773602788394611 5.130088044193103 -0.33792368803223094 1.3909752948961012 0.46243218683097775
Ni 8.698668964906311 3.214000734794099 0.2926345222160091 0.13605609442703018 0.9073829290477405 0.7002124351723876
Ni 4.088645515572744 5.3201347638060215 12.916846584563597 -0.13680222856443536 1.626106021429806 -1.1217519975540617
Ni 3.2837550648650984 6.610358158951327 8.767001515249316 1.222299614661837 -0.998691801166067 0.41161818950290396
Ni 7.710596933076788 2.8984657344038367 10.79732057687514 0.8421548131768659 -0.03745377397108388 1.3257587489894522
Ni 4.978416401410634 2.0383724149873315 5.758283899643436 -1.7153096742796718 -0.01883435909768369 0.08067941742893847
Ni 0.5796458778024572 3.7378533438311563 4.220343655657498 0.5029265474005983 -2.6254598816599044 1.2357128027439492
Ni 0.6531891488956498 6.724332248359125 0.31898008203886535 -1.1268988318623236 0.18569818293418985 -0.04953281662280501
Ni 7.212297431667388 7.2103788631948 12.526178774466379 2.769997016974752 -0.8083998282136077 1.8177555368514242
Ni 8.997363197592744 1.1820235480487271 4.249156475999209 -0.3054010328141773 0.2534855748918086 -0.7638930040504844
Ni 4.25620976395882 6.575749778870924 3.358675627141994 -0.7115563994302971 0.8368465135900749 0.8263088472835447
Ni 5.878475263116025 8.773613625144698 0.06574109263800161 0.7131324856681655 0.13835414643258753 0.9117761730194297
Ni 6.258898659045361 4.510647163521546 11.654852097616171 -1.8041582577829638 -0.7685338452566055 1.3600863186267287
Ni 4.764602603854445 0.656058660002477 11.574707838763668 1.060559228094825 1.6263302216254698 -1.52809608314222
P 7.51846203241617 0.08680085729217718 2.6726641278503265 0.9829047135351394 0.5204509294376068 0.03971428787048644
Ni 8.212409175795903 3.1194440412803677 8.484598431375769 2.0175683048101254 -1.3309418358522886 -1.2652198110641306
P 1.0337284004090788 2.1400843493746753 5.849171215097758 -1.5464933547024848 -0.8747072931915904 -0.35217556996555477
Ni 1.62353527635887 3.70583086038772 12.317625747272706 -0.6355659028365958 -0.26432148916504805 -0.23592776851370334
P 5.143923054623209 9.270115047888968 6.650799172557332 0.16294854794250002 -0.016414693912597537 0.36629375453449176
P 2.6210796607438747 1.350069755664631 12.372199288448769 -0.30242189558119525 -0.24352434991403865 -1.7242982509315272
P 2.9438718549217517 5.539704266779976 6.580802936026746 1.6230654348312692 -0.4230904518085617 0.3852219588975624
Ni 2.894109564441922 6.861848192454716 1.3455523147296582 0.17002190984951365 -0.45484588984328755 -0.43246417971397777
Ni 8.385302781050278 9.194085979383466 0.39451884971248397 -0.015448473344586298 -2.6623264156689506 -1.7184903860004985
Ni 0.5279770678307856 4.14334788815832 6.741171162373607 -1.3813508844324598 -1.7053307086900888 -0.4604516660658392
Ni 0.012359473711091943 4.697313680612954 9.734763599764914 0.4959190057345137 0.1278650739758056 0.7761898191399665
Ni 4.481136429141256 -0.02494973174569809 4.190880190355519 -0.7111051708254914 0.5660862107782185 0.624631258201963
Ni 1.9125903244487272 5.808238973815197 10.935211893063196 1.3232912612855663 -0.9427294268678345 0.7382999860727284
Ni 2.7659732884345387 0.8072205382149343 5.91748615539198 1.0778349844561372 -0.7663165258903125 1.2350993375296664
Ni 2.247403694032143 1.0060713553742844 3.818119019335789 -0.8794460934281564 0.07846981137212938 -2.5728044602477174
Ni 9.118909607976892 1.3720915850891189 1.7987867744607156 0.37860265380883185 1.9477901076747228 1.518435163013688
Ni 4.1868632455438295 7.368674664853397 5.867186295001957 -0.746272976975876 -0.14359019802054626 -0.486158326803324
Ni 3.3205600668199136 3.730494197129539 0.8365700016221663 0.3751254938935088 0.3201087713379971 0.306330229496666
Ni 2.0180930535476094 1.278406125567771 0.7676646612714036 -0.6660992955387625 0.7735492961933258 0.34978984334219754
Ni 5.769033444157965 3.712911953687513 0.743120887492369 -0.595266946107233 -0.30256870557170473 -0.7323149721338872
Ni 6.4507369694107 4.2439846827252765 9.13582823063323 -0.5840641354128779 1.6732322854936474 -0.502735771546031
Ni 6.353835358874918 6.6602316707918865 6.095286476343882 1.6394505610575119 0.2924311029170706 0.458881493365242
Ni 2.41841580460084 5.033443169631672 3.2025384467262263 1.0951860741400752 -0.16636785803669413 -0.5396195319462578
Ni 8.356876454937103 1.2451787440497621 6.562530193303523 1.388575427205357 -0.30014106996681855 0.11398934443497788
Ni 5.744481328776876 8.175502220927086 2.6111318368712726 -0.006000697668125149 0.9863301942769208 -1.5327307537007537
Ni 2.9966649274814667 1.4768435700030755 10.10671100116197 -1.3147189462355229 0.29452578066257024 1.4315316190519087
Ni 4.828610496954408 -0.2115495160206676 9.261253485972826 0.03585274803255115 0.34714983461618926 -0.22351679644386022
Ni 8.57606595159523 5.023572273866908 12.277065170703917 0.3732601585499959 0.4460938546822705 0.29521200809631737
Ni 7.794874919169746 7.188579476491771 1.6305635395123168 0.36277648540985263 -0.6873093539574744 -0.14311737214918577
Ni 7.914947646524224 5.909913834415631 7.891061932462841 0.8640652400967118 -0.13657160061086804 0.42636578012572374
Ni 1.30303238852268 5.814050289913326 7.895023266594165 -0.7654251244242947 1.6627203302187301 0.7720284886734252
Ni 0.5748244318148231 7.148734424010343 9.823196630525802 -2.05443226771601 -0.37457810603047104 -0.2612672757197565
P 6.168623987919725 2.298491372394002 12.48925420954878 -0.19283479397897113 0.4276878413712569 -0.747246653743055
Ni 0.5266609483954836 0.37858268240925824 10.039372955152825 -0.8650378884226264 0.3369029600772004 1.0985261942569016
P 4.418945151599879 3.275682247765465 4.023606044352014 -0.43309872797418314 0.5053644674181297 0.6560758498644895
Ni 6.847324536432758 8.680252561258811 4.644558608684822 0.7744170435102599 0.562855876766379 1.4326672753182488
P 6.9725968624013515 4.173247897301164 6.882359265062625 -0.23323145262846284 -0.03704779678191684 -0.37713558234500216
P 0.6371955172227138 2.460466747403408 10.180574033667261 0.30157343153797095 1.8776478423316825 0.014476853459936358
P 2.4406786136402427 8.026688040270699 4.182740640439447 1.001596633517688 -0.13038912594923993 -0.5882604328824127
Ni 4.430818031857778 2.0838156092921563 2.3226653351486104 0.2466693233009236 0.8406337485466491 2.3740895533388855
Ni 7.584842647878367 8.125276508110883 9.904059193999682 1.11875357704737 0.19179324008833418 -0.22559784734260502
Ni 2.2339737147240277 3.8438194952664126 9.024077641595355 -0.15806859414237937 -0.7719325865255092 0.09874630223297831
Ni 4.0080378343838685 1.70063948468476 8.111525840545996 0.8293450630067072 -1.2401410137186322 -2.3039655428282897
Ni 5.473110477043046 6.588354866420295 0.9332380473004165 -0.10623643996243638 -1.4052760277894896 -0.26314032437275325
Ni 1.5088753218932396 8.58500073424052 12.769418036692967 0.9007764794748163 0.9903213177141847 0.4986148073991219
Ni 4.332331516931597 1.607361836819421 0.2320902476581044 1.2898761761602302 -0.8231139944953308 -1.6412323355482834
Ni 5.663882916034726 4.72011405956255 2.971806026513698 -1.096579354943176 -1.637653617058089 -0.8529303065258149
Ni 2.4523568565168645 8.344030387772818 10.045951698639989 1.6682767412605848 0.4644723571894582 0.6233469921729006
Ni 7.781370792287811 4.685311042100869 4.694464560088927 -0.28763213886653044 -0.7805573520800427 1.2668444911517474
Ni 7.343974254324668 5.961668840941868 10.395462044199167 0.8375224566111771 0.06403101023898004 -0.6289787365373812
Ni 5.134506312748092 2.592023080253231 9.821582067105874 0.3116629545634891 -0.799860423284029 1.3894956250267811
Ni 4.513381355306152 3.8393428354970407 7.672999478926774 0.6067955155721227 1.7623762887501713 0.2022506879762323
Ni 1.1623002934126538 8.715417048142863 1.8280064796137627 0.7154305376737227 -0.8549704768842954 -0.11895388752910481
Ni 3.718500827064182 9.306076621191583 1.6414428422810305 -0.19375987689640176 -2.9941486187891337 1.283297494501448
Ni 1.8343646340688127 1.3324689753291503 8.01489950287802 -2.430329606778537 0.06604649800711207 0.29314741225780483
Ni 9.330545320552124 5.421707671492454 2.9193225200746804 -1.2110862624445207 -0.6365233816538586 -2.2362303442648455
Ni 1.6312651609295867 3.1098048566837906 2.189427706062423 -1.6402555734573108 -0.37796527733514906 0.18834359097683692
Ni 5.316529338029033 4.765325542699187 5.461583309848082 -0.7350737658259469 -0.7533620226121736 -0.2911216400770277
Ni 6.770971072291793 6.403634723141658 3.699069528500025 0.8127218526277294 1.5047157565450666 0.3423434143664814
Ni 3.909653272371689 8.374903583822048 12.754239101487379 -2.1389313160013548 -2.3729235580552426 1.0909794922578955
Ni 0.713802009959338 8.51473663959951 5.47706161588297 0.9357118578994207 1.3077545991025479 1.1788855093422599
Ni 0.20603571706249094 8.651668671551269 8.049789643738938 0.2574291329205889 -0.4604622075888005 -1.7851691182749707
Ni 2.786530703276085 3.229655141316809 6.236229892039296 0.5331660630114301 1.2273137800469767 -0.45229201307318234
Ni 7.310107349982463 1.0124387782760618 9.451995339090304 -0.1495009070780264 0.7312096548848503 -1.7230281259698519
P 8.582007025947545 7.239296416984531 6.293651626894713 -0.5693965060983742 -0.34499165062260584 0.27914415600017733
Ni 0.13333680146617158 1.517976936579623 12.519776131467038 1.0174361716531057 -0.08211255033103923 -1.3900119025415674
P 3.8607807527776976 6.864860437641147 11.10424982447894 -1.9434675690399688 -1.2560268317109529 -0.23978673724847735
Ni 5.714553514293849 7.63606008449441 11.106148929213399 -1.0039147401279034 1.0518889540143368 -0.9459484480257643
P 1.496418529491509 4.848676684119397 0.6601692161261136 -0.04719645518014453 -0.4190587049413492 0.4983106458951419
P 9.094904330952724 8.142636308831449 11.682158795364668 -1.4981136778475168 -0.30276076697785276 -0.3537750532421907
P 7.411309519799795 4.975969531474581 0.8298170113365257 0.9456599702510681 1.7440486940855768 0.07748122220661494
Ni 6.469431426460024 2.031013268285714 7.4421864232277155 -1.2682753100610027 0.02674075842895395 0.7054780544467012
