# total energy = -340888.7298132951 ev
CRYSTAL
PRIMVEC
9.07270131475785 0.00000000000000 0.00000000000000

0.00000000000000 9.07270131475785 0.00000000000000

0.00000000000000 0.00000000000000 13.27881545684985

PRIMCOORD
 96 1
Ni 6.562910962325001 1.9296275041121376 11.380078118625852 -1.8154783107814736 -0.5945858608798082 1.5762546451253177
Ni 4.485616169702018 0.6251808030214108 5.960528043462477 -0.8999485842568824 -1.2902932090929908 0.4998772190513132
Ni 2.5249509539902486 1.5655672137413648 4.65463696830374 1.058225951975958 -0.0029649961655948934 0.3819792835905486
Ni 3.589460085734289 4.656083156912037 4.931566663200026 -0.7467889973803461 -2.1522084927262353 0.2577348370864658
Ni 5.186527718848329 4.386424324943534 2.7924150994822967 0.47864787735889186 -0.1441381001042163 -0.3457984627946174
Ni 7.109396060393461 6.031468403231163 2.815640307878642 0.8060110162664571 -0.22443519449307153 -0.5490122860150674
Ni 5.221013056992204 4.373205398956787 12.009161997803407 0.08114530132176348 0.24232467317898265 -0.7033738636195047
Ni 5.881759756898068 7.662549594014604 12.46511605190058 -0.9119435518352295 1.1038134107977697 -0.5531785015776151
Ni 2.0234483096227454 6.521421498675449 0.495967389223705 -1.0087255312529855 -1.4199454568762062 -0.7896749981105948
Ni 2.7599611391890955 1.479267677718069 0.3581575908189688 -0.812823154092284 1.1966394908915712 -0.2997595182576837
Ni 0.5371710627781412 -0.006966927429803278 4.7263820766894655 0.1276262184921221 -0.8577457256365874 0.6080687258575914
Ni 8.710945608015018 2.300201994111245 1.1601617156738138 0.11118992731296978 0.980604090426421 0.40763426515449147
Ni 6.530866180866392 0.4938861115151532 4.823038101397643 0.8008649532891433 0.7370900249250274 -0.027557855013610605
Ni 0.9180122217179514 7.304141596636106 2.646773745201267 -0.8654284389928256 -0.12751103307049652 0.4082662423115356
Ni 7.575106897610848 3.809981166745877 4.050012184917315 1.0294856466184723 -0.7492873383221677 -2.653237823104121
Ni 7.586284465775345 3.74062036429654 12.439342321671925 0.9312648778716607 0.3146732021447226 1.2616822302245174
Ni 8.022382005517962 8.765681215755613 6.858720948901739 0.29104039321713104 -0.2749802544304748 -0.36028020135056016
Ni 7.05827138782289 0.7775949289215947 0.38568870331504645 -0.8846626046320892 -1.7281178817879337 -0.1320163771400178
Ni 1.811909203029057 6.260336369560397 9.314173195380882 0.5819997966846816 0.4850910618810743 -1.7893852132388475
Ni 0.08240099621786992 5.089422595419257 1.5260683007860432 -0.19099439833612267 -1.2972313309737207 -0.7366945892588216
Ni 6.345202418757402 1.8542696460161014 7.1469643024840055 -0.5335262745643263 0.21074818392428224 -0.9196740877102676
Ni 3.572194734908771 4.313978804007242 0.9089839765227473 0.7491916932845677 0.72931758006846 -2.608293654293263
Ni 5.84566855060069 5.338758576179582 4.8707224055851155 0.539062116780891 2.2804898283038533 -0.08758180097572658
Ni 5.341435023102087 2.9454706653737386 9.482243174872506 -2.823916906921659 -1.459888315817731 -2.100105601383409
P 0.33760247845412666 5.618125198680561 12.392322139229291 -0.4078859761539815 -0.6395616542595501 -0.016553790593623104
P 4.026129205667134 6.135786324298852 12.659677412304152 0.6899084821432183 0.16531524840246367 0.22891739863414123
P 2.0944875618370435 8.517923885044494 1.3074307125917846 2.337573717801039 -0.09776439793568323 1.3195775598794048
P 6.220071720604195 7.652678494856347 5.896590901929322 0.5134701272443996 1.35824592298388 -1.6266631794848567
P 4.759167190584943 1.0259138598513677 12.793527883803867 0.8905170065303374 0.767797224200897 -2.8566151684856287
P 3.882599069009382 6.443305539344017 8.140498598193917 -0.13166182201407647 -0.8354604318758256 0.2906120474304608
P 4.685696454386809 1.5112035867594906 3.475809983973417 -0.5938703228700224 -1.7820933075631242 2.516670079147995
P 0.26677371291305585 5.468253243721686 3.694312388916335 -0.010530981438310895 0.38566881662699387 0.23089252008264108
Ni 1.3599072176757565 1.0861928881670508 2.4631277518908017 -0.6554981229841486 0.4880174914992498 0.6301994963183597
Ni 2.064611156020736 6.423182287567349 4.8754765011356 -1.5432684200072841 0.8570810954693949 -1.0675685695331227
Ni 5.91838625257995 5.551957987135366 9.09454123910965 -0.31888466912290886 1.1421027932962715 1.122994354601595
Ni 8.476978783480877 2.499674407800078 10.097994719295409 1.48676354294202 -0.9272814677438805 0.4048564452990382
Ni 2.308639606443212 5.251787660250302 6.977884531322973 0.1885161119989592 -0.039615043288460806 0.589314842288856
Ni 0.7272650249964864 9.196543806771835 9.355510237646373 -0.18994076026062773 0.3010232154614558 -0.756960024376077
Ni 1.6574555338469092 1.2694342389936386 11.437415777137208 -0.3202599522038807 -0.22483937191002568 -0.6045769106542491
Ni 4.2149502678745385 7.071127405752348 1.4191465144073068 0.16925135023207624 0.022627764701844903 0.6181438507054063
Ni 5.89789102004456 8.377723429812368 7.956334553631671 -1.5086343748731823 -1.5095612575628259 0.08436457959000954
Ni 5.20899172759451 2.7719643231839255 5.231521059791004 -0.13029090980847885 0.6063617704688138 -1.6096445334396727
Ni 0.9611529170281672 7.358233042575014 6.899686010408508 -0.24997113398064688 0.7542415970036495 0.19392288483682732
Ni 4.921178420060132 4.859828812975446 7.04360173687713 0.07623629405592032 -0.3785368335679029 -0.031917417533886966
Ni 8.421481068819975 7.182993814411645 9.471314198727253 -0.7415210641131875 -0.3134647836589182 -1.2731084697835882
Ni 4.649959083445287 0.6169563991731015 10.477954918926152 -0.6151158625123601 -0.938831634475325 1.0359146900732676
Ni 8.085555225590523 7.048545451887548 4.847617864117819 0.37675145953270595 -0.49737450723411764 0.6402555950027813
Ni 7.008498547765719 6.220280392737136 7.12523971890455 2.0116894774318452 -1.5251627115455089 0.19878484091481893
Ni 2.325850521060137 5.10417480794805 2.665243950776984 -0.47305315687993366 1.2698300561426323 0.6353874682772025
Ni 2.4663775935438235 5.1835972362857206 11.437641687402872 -0.7817804258538665 0.6382470492131846 1.0069442709828464
Ni 1.1427430361940907 3.310919079063641 3.8238342745627367 -1.3801699767504814 0.18055314839814066 -0.11221296926084545
Ni 3.368657750978302 2.9352548035610564 2.7686600453223096 -0.3048045368807589 -0.6174357688947882 0.457644021413715
Ni 1.099883594628274 3.3150562309167344 8.055725997821664 -0.8121803783019625 0.14199148607485867 0.6192391406521142
Ni 3.747824089233724 2.796487835155221 7.0810611065504885 -1.1614248906636515 0.09104713381650772 0.17268942937934773
Ni 4.194455035339149 7.0887647373365885 5.709412905951293 -0.21382296619486402 0.26549108399311694 0.5377917347088996
Ni 0.932220072160811 7.372232220884932 11.172716083771558 0.4753154705515491 0.3946519939622107 1.5479115752062504
P 0.12537838290230557 5.575111521190397 7.8408481371009175 0.0015123228794683631 0.2329982535717342 0.7396603567553648
P 8.38793929162505 1.4576837210108131 7.994338285390962 1.5280577737051166 0.5489387524646546 0.7335583576226851
P 1.748935582388004 3.470734714792232 10.35124829253417 -0.41797601340013174 -1.2697264406852324 -0.8956746394718768
P 4.074541140509471 6.214655317849159 3.5807521068996424 -0.10892941341356722 0.8719754960827241 -0.8306203301747049
P 6.704998539455029 3.980674971491702 10.346839866908253 3.6166057521579136 1.925660622765535 2.0284494704990035
P 6.4775822053549525 7.853593468072903 10.176300298086774 -0.844274687733346 -0.5088534544079946 0.10032907333906592
P 2.4976239772763957 8.587057869958027 5.647625994657575 -0.2650455118152661 0.022282465547284202 0.6497643058241648
P 7.140687807633194 3.953384285583578 1.7838890719257825 -0.24804383505094701 0.23138360078644665 -1.0969655346380012
Ni 5.520756966909955 2.7359094076922745 0.7610045870826335 -0.6473623812508915 1.4339068041523046 -1.5954016503674138
Ni 1.4705851024474328 1.1347136954265742 6.875293145337836 -0.28697316512629284 -0.15556768209739658 0.5633438721463911
Ni 6.665459706613405 0.9799152635900023 9.268892249802805 1.6141259662497942 -1.020816143868932 1.036675736609008
Ni 2.810296486735063 1.7898534658473253 9.183256835524347 -0.712469912383502 -0.1630393078840934 0.6013442626495644
Ni 6.4971248042399585 1.7949704694550983 2.551670059708143 2.8704217353514174 0.20003491127183612 1.2464111629980599
Ni 3.9845762331075574 6.869423107511189 10.368603463103867 0.8032653352005199 0.5941562295415573 0.44676311283515313
Ni 8.442429936426976 7.189471723234252 0.36259777089989825 -0.8630244575370234 -0.7095051733282232 0.19767335301819502
Ni 7.582918493543991 3.664255436341527 8.185818556388151 -0.07231433329369481 0.9695545174804785 -1.1795989904695168
Ni 3.1682962125491114 8.336243038864248 12.693790769689306 1.0039378800563548 0.2563433560555779 -1.7118625962713359
Ni -0.04191860242729534 4.789887357634447 9.896489113215615 -0.07105089320023891 0.5110620320235393 0.9629750644907479
Ni 8.332060523503994 2.121106867839183 5.829480129435176 1.057606059003772 0.6034777640527994 0.016193579040726946
Ni 3.613820289079805 2.952601808699465 11.385747649750847 -0.17037775052703558 -1.7094347035561335 0.6536222461176744
Ni 1.0161516331102969 3.3281027755762693 12.514433442345855 -0.1598511399640989 0.74153417673931 0.19734399470323433
Ni 3.0840561797509296 8.556591738548626 8.130977705310942 0.0786706145290258 -0.7313011861573921 -0.37980952963273945
Ni 5.6253924325277715 7.966158474742482 3.3088813503219643 -1.4590352237888162 -0.25438803210141997 0.5309651987053694
Ni 2.9946900706435433 8.41553844938187 3.4439139948182973 1.048014815770911 0.01298921317081634 -0.1939138859757628
Ni 3.5310046704064826 4.3106581952830485 9.310401673395505 -0.5987741879295431 1.320223935214152 -0.7984882255268506
Ni 7.280416482390845 5.896067407056683 11.47612355052764 0.4391444199476308 0.8329579771689462 -0.6956291866770794
Ni 0.6063386166869722 -0.044499785984762494 0.02506605951694296 -0.3980988148602305 0.9809072234891365 -0.6745733944480446
Ni 4.584925959579119 0.6375722986375395 1.5182331158291764 -0.0001979749434190139 -2.36951607503559 1.8001385951006095
Ni 6.087510479977999 5.646586263073442 0.47773579569565483 0.5333563246453653 -0.7595835780418531 0.9633679290537924
Ni 7.9979492205609874 8.823873522741886 11.455939511651376 -0.38859653179675013 -1.961560421985938 -1.0983932682234632
Ni 0.04570191892453191 4.68324682500011 5.754998694297492 -0.021521933232175838 0.40264606791128077 0.9315937219659891
Ni 7.902604201209766 8.551129972286427 3.0432789231638084 0.3786031680294641 0.6049584623633839 -1.7091184578672953
P 8.432622346178743 1.5022216123415908 3.7601493541293975 0.0956208692301192 0.4842140585927596 -1.4098428212245655
P 1.7463407897783882 3.1700653893283945 1.4050048946849023 -1.171291499045086 0.26259267939939934 -0.10875586395018043
P 4.598054158551545 1.1127849760648936 8.211566883052797 0.4705332186715574 0.08121549243806657 -0.2838258777465628
P 8.575245212693273 1.5140251969049117 12.212088388927484 0.7935920737768138 2.948905430680618 1.037585392907471
P 6.542216130358102 7.67069687990074 1.3504153574373658 -0.06789434984912823 0.5583248216652449 0.10301253370850001
P 1.7982457146721305 3.3249908389850176 5.975294772313561 1.0733049577962677 -1.1859948666935316 -0.635992191740737
P 6.900778363660947 3.896661756229326 5.951883573537856 -0.37954419178649473 -0.29585426966600664 3.70182059556336
P 2.6338868800869384 8.661943947579587 10.346441575315376 -0.8166669533184064 0.0011261431846432217 0.1827936076928852
