# total energy = -340874.35635502374 ev
CRYSTAL
PRIMVEC
9.15798020320722 0.00000000000000 0.00000000000000
0.00000000000000 9.15798020320722 0.00000000000000
0.00000000000000 0.00000000000000 13.40362973021757
PRIMCOORD
 96 1
Ni 7.576360161587955 4.864132826443232 3.509472530285266 -0.9795512236818742 1.1082683612453301 -0.5619670464035226
Ni 1.1518174513635266 0.5426597637592335 3.5589045585365855 0.27955116163060884 0.5367254982279143 0.08590389905267141
Ni 6.2482882285517 3.0440942117349934 8.24279002405897 -0.4090784538001858 0.44337311331699775 -0.08258871863650938
Ni 7.390654644630686 8.85600469677087 12.205251041851431 0.038352117415637176 -0.09579030492844794 0.5329781153703402
Ni 0.482580668044924 6.580777847776997 13.230749728689528 0.5935430214375907 0.5739836112484243 0.13715729791100897
Ni 7.341723557881367 7.4839103542261025 1.2307482487573185 -1.636397376053485 0.1163341905180706 -0.6575087256562739
Ni 0.18656911446437344 7.596809930764676 11.053785256917097 -0.3809552132014084 1.4724751513438061 0.0919202804500804
Ni 5.416450595833353 2.529186790346176 6.076709811429635 -0.9297620680738891 -1.0359663692468093 -0.9662233962247166
Ni 3.874292566046428 1.7199327361275154 8.147047922913403 0.2413671943617198 -0.49310673309669906 0.981403960619897
Ni 7.0961706421019395 8.104619917710162 10.051850968228855 -0.06301285338711084 0.9637163135321467 -2.678417407693542
Ni 4.746297098724069 8.100681986341604 2.0768118874940797 0.23260024680236713 -1.029117464645776 -0.3678780683024761
Ni 3.0308242988209444 5.06985768752066 3.3243549556393033 -2.344784376616865 -0.09331304703254896 1.4735550146715461
Ni 8.148761380957723 4.936554131704997 7.899817265211371 -0.4006388076732649 -0.7346145668013413 -1.168880061390116
Ni 8.733058816252509 2.9123108805871927 4.158275112993022 1.563800735632681 -1.2158502594920673 -1.339012785785881
Ni 3.4477504929720744 4.233761594136315 5.982495261335873 -0.7351133608146307 0.7094653212292233 -0.6128558628335897
Ni 6.396583397507663 7.633469324411977 3.804392452658533 0.9843941535964724 -1.3980268024262439 -0.8318030376288964
Ni 2.4376802549167933 2.0405261394277967 1.1016344687582036 -0.9106356316570833 0.0757189880998696 0.4399995688590745
Ni 4.033247623637281 6.3825075823600494 0.2644165228328152 0.6221730264694575 0.2174317665920449 -0.4372564588962985
Ni 2.4898990564598615 3.0775116804881772 10.022577485392585 -0.10347738916006051 0.6687616728622741 -0.13752110900833092
Ni 1.2611637316904716 6.940494141324908 7.876723587229758 -0.190713119650278 -0.13350401742913784 -0.42588524094487945
Ni 5.569883391528297 4.83129231042544 6.97787609958844 -0.0972252376027616 1.906203542482188 0.6789090457089211
Ni 4.889353903161858 4.420190591507806 9.933456603734156 -0.5694947222391353 0.45957749099100204 -1.1396257925106887
Ni 1.0396963031187374 5.287762661900837 11.279382018637861 -0.4961552901150359 -0.8115643419845184 0.0029318289348143054
Ni 7.697199706723134 0.7378328003649106 3.595067589671848 -0.05390754865173297 -0.27672963302141373 -0.04359459676149911
P 4.4758161615836745 6.31191787308366 5.608856090905126 0.13991429183085582 0.2020552841359746 0.1470403613526758
P 8.273557173421313 2.6728846533788473 7.503767602101556 -0.16808124118337503 -1.1057468803750568 0.3026949467369239
P 4.791940470679638 5.873214002666409 2.74874935909312 2.5608514016508996 1.4798485609897418 -1.2343822568579839
P 3.852285940282136 3.745119259177788 8.127330792130833 0.11258397944701902 0.36757493523976054 -0.31281583722100964
P 2.0778082757101246 5.692435478909802 1.3945139932037611 -0.4573930817451736 0.5283244186484127 0.026584949577380022
P 3.104555195212254 0.5006035725410234 2.5286483011264753 0.6290152462022714 -1.0226477977610322 -0.24537682974174516
P 3.62401413262473 5.885009480812231 11.474457980656313 -0.5553608539409145 0.5184367272210556 -0.31342621711149893
P 6.444607844244221 2.630702997835639 3.971307626401829 -0.4432268175471205 -0.34704030562151844 -0.11569527138249107
Ni 5.583977522635765 7.474376897122221 7.281910043584937 -0.6491444128519788 0.024101263923577844 -1.0746218768354783
Ni 0.28696713260476403 3.6343077020625425 0.31473870673302706 0.6108951395627931 -0.9841756098277632 -1.8227427056533707
Ni 0.3808465006332016 0.9520361192586437 12.989859140490875 -0.36867408184121025 1.002688838140602 0.9333479856529345
Ni 2.4472686599002365 8.051604371913456 0.974603213394461 0.14080235086276394 -0.15297035368386558 1.2306109627410096
Ni 3.672633848056535 2.0113488153807575 3.9911181685796557 -0.5673527361954681 1.08889381337346 -0.12708114462192954
Ni 0.48235171854675196 1.4013082985115133 10.681459340807866 -0.04692006159030629 -0.8044860949814985 -0.95167815142069
Ni 2.536156013070532 4.50198051023477 12.941203708937353 0.5370759395887976 -0.41775746963142246 0.45042873461219846
Ni 7.42779941121411 3.6188856638656772 12.715969603221694 -0.43349879162607924 0.5950170348799558 1.0550516680130344
Ni 2.312270877798101 6.6197358943859435 5.527992043948771 -0.9128771193930922 0.07529784140205097 0.8484743276369904
Ni 3.3019188206164403 5.786432984879297 8.007596615172826 -0.00458993336352758 0.31197251538410786 -0.4294187080194347
Ni 7.2579097255905625 2.9589799462945723 1.868037419101001 -0.12815509441239864 0.985502813279619 0.16559832686052126
Ni 5.384196190530882 4.540196760469639 4.491288568670138 -0.43964192840933963 0.8252364401549723 -0.16790923438188501
Ni 5.961570193000947 0.619791933895386 7.775124042122961 0.16446524169734256 0.11346098273533362 -0.34379403077007886
Ni 7.204692704235464 6.429588757164138 5.572974209753618 0.6658385856782081 -0.738732959845089 0.6682754772544748
Ni 0.5940671682807807 5.097148467702761 4.2918552398024765 0.39913908319928676 0.9489023884477656 0.7255447432895892
Ni 2.3328763326335804 7.285768300528131 9.941324224289337 -0.7349534381979987 -0.7656223280367653 0.7546000087843328
Ni 5.3419321131683315 0.3932006155545625 4.210857486339187 0.742581644167218 2.1956377675544636 -0.8993659722805349
Ni 1.1819288893631077 3.6876437771566906 2.281271115745613 0.15181644258508045 0.4679636581721683 2.0017591056920105
Ni 3.0080209288030137 8.523744027043744 7.755540617847322 -0.7706719746455308 -0.5344169046993957 0.5273085757893886
Ni 0.4383311406342261 1.5039967274316166 6.001354289399297 -0.8317130490182515 -0.5519052912921463 -1.7285328578381651
Ni 1.5043080987491304 7.155120558891264 3.1632569307455602 -0.4940690970099685 -0.3492463121339018 -0.4020097198788625
Ni 4.624917232773204 3.667798434655142 2.38592667875401 0.7509037908796681 -1.3027617738736466 -1.2730040829952396
Ni 0.02591525159708447 3.400916583626011 9.434104011251142 0.65232615301407 0.797701210849181 -0.006463753347472738
Ni 7.246645410280501 1.490305547440931 9.505639739853978 1.005027770686424 -1.165011322463329 0.5706581464196172
P 1.8167417419345617 3.300316174129236 4.4821067779954475 0.2838168788854983 -0.4492645391007682 0.3600004653266123
P 5.098815220049453 0.4889509588820615 9.68589167976479 -0.4038357173440077 -1.0684720551839986 1.0671898460374651
P 5.552254280169054 8.257375022890518 0.013845949851449576 -0.3807664942293701 0.7992446440769009 -0.6060414110149175
P 7.682647676619322 5.721915016294429 12.400153002251272 1.0626852732988923 0.244284882229147 0.26026788792096467
P 1.859848353450385 8.947447126340764 5.5452017198273635 1.5488711109060422 -0.06621156283006661 1.068656403280663
P 6.639865134265226 0.030436546286985028 5.86762671911302 0.6967807837830193 -1.632530694009227 -0.8080067065402472
P 4.135981842457019 2.937403745586843 13.594631071508184 0.8109632180654097 0.4015222387194827 0.43367671196484026
P 9.016663138628122 1.6568525703911672 1.9703604446220215 0.662059321141434 0.5013648593404333 -0.4524835602586981
Ni 6.023340767607751 6.854326708192897 11.577183957294118 -0.26184011750409103 -1.2707147727404309 1.8022404719349607
Ni 4.548310730684855 6.935164197007465 9.721759823946408 0.14774690050139716 0.7621384832532229 -0.8186410463256417
Ni 0.1138767329967723 8.650014254275561 1.4935932622346808 0.6327001512530266 0.10033421554538849 0.5864539758012932
Ni 0.803345325569838 3.7100075641381314 6.692633414603907 0.7335691562559624 1.815993045634363 -0.7314973613285982
Ni 8.403646278282642 0.1440815823916073 7.503392124924554 0.12891665516877152 2.8585445242978578 0.7093349662989461
Ni 1.2480678203950333 1.7512896593971519 8.218073552034312 0.14001687884699113 -1.271744756666842 0.7043961342364321
Ni 5.86434907809719 1.9439827150386297 12.73988200460877 -0.4145919274192473 -0.6866622072917787 0.8997482953206182
Ni 7.198199696467307 0.8116030760699054 0.8931805296625653 0.8102111703907335 -0.9457885254091326 0.5362506154740247
Ni 6.085615031110533 5.114658525322955 0.986351985842655 -0.05820771868898362 0.3231249324565016 0.14212235522576816
Ni 9.0152253357796 8.259078407156917 5.266433726651135 -1.0935117717614458 -0.9626670463320262 -0.44864078947384023
Ni 8.08675269887282 7.253468105326027 7.7541870684141285 -1.454386412162895 -1.4008858691415937 0.44717243245842986
Ni 3.9842615890084003 8.222217537951225 11.455947871628103 0.4413607108726592 -0.3157867469238755 1.4151032982925562
Ni 2.6369578981256976 2.083541171144351 6.199312267700738 -0.08987188256148393 -0.3568022701042887 -0.2187232317099588
Ni 5.004625396501495 1.2869983930641995 1.653337737695231 -0.31195143233818534 0.991445661126615 0.018557451287213204
Ni 3.521133386126162 8.099207551573375 4.167804906904933 -0.29220973093488384 0.0012922364488622906 0.22339775436749268
Ni 7.366303576005113 3.8273853928609496 5.6919583481556115 0.5006986865113441 0.10517868812188338 1.419988908519632
Ni 2.7856193862787375 0.49231651650518987 9.93270564938015 -0.39895576354388707 0.4542499081305016 0.33299822570615556
Ni 4.527970857267254 2.0930654702683062 10.981580079981606 -0.5984268318924532 0.5014831300858524 -0.9626727027589806
Ni 8.446936049397003 5.472524906925638 1.3772365482737097 0.14032823943982284 -1.1824865964299571 0.8518098197681265
Ni 8.014661080888422 5.851674433878388 10.002498614402901 -0.17836051162219604 0.3896206021858903 1.1970614089203384
Ni 3.3893500549783617 0.6900098291867443 12.842673918702047 0.10984498324930114 1.0035316457568715 0.27814682508391453
Ni 7.103698501601834 3.698459351450336 10.42293048327004 -0.9302287232976625 -0.061465820614965104 0.4451474316086011
Ni 5.046651366385945 4.466365126299134 12.214003323267551 0.35477212704813743 -0.9135386642364912 1.0727043480977911
Ni 4.148436695157575 0.395385709565116 6.222406861480344 0.5919108851508065 -0.6281559835257697 -1.4729088964471149
P 0.7175341378569814 8.648842032844922 9.132656280785996 -0.16998719995683628 1.370366360396498 0.0476620819626534
P 1.2910920100915146 5.255013725682316 9.230221735735002 -0.2619838421708069 -0.7680455927662774 -0.646551455313822
P 1.6469802680299908 2.641152252932209 12.058964217893433 0.11961723214471659 0.02144711413018242 0.36949580641155716
P 1.6257520705594832 8.431413273420942 12.509393050011067 0.1378054730179691 -0.11562199494239443 -1.3705748768628783
P 7.659230721946289 1.7857602958419274 11.552560896664716 0.7621631658435711 -0.18243031081619548 0.49967564456346847
P 6.1233001185096425 6.086732304661613 8.801734507724179 3.063238788718576 -1.4795875940188714 -0.2215159639637475
P 8.491068354664636 7.038512000482303 3.054526066669702 -0.7075269665559298 -0.2776194918255348 0.4507164410559463
P 0.21853321180316201 6.072519119815095 6.268689460434809 -1.3852268224480981 -0.8292298775850816 -0.8151183778843639
