# total energy = -340898.08745568304 ev
CRYSTAL
PRIMVEC
9.00132644552066 0.00000000000000 0.00000000000000

0.00000000000000 9.00132644552066 0.00000000000000

0.00000000000000 0.00000000000000 13.17435112104423

PRIMCOORD
 96 1
Ni 6.292665359912246 2.040672737125238 11.390886192670889 0.7285544766501904 0.0197733259721853 0.257097460612783
Ni 4.492184020168001 0.3619793454609203 6.035947527004666 0.15629324740951148 -0.46066815295201957 -0.501940272227929
Ni 2.754252898546993 1.6554339638861553 4.759550422371853 0.06281050756831764 -0.3478566308752267 0.124456819625205
Ni 3.5412838845313654 4.2816879990409396 4.897209509406292 -0.974023866105742 0.3854127347521298 -0.08751906605859121
Ni 5.014215952828419 4.5891823149580455 2.4716265474606645 -0.07629208699452023 0.3207248076554412 0.5390968266735683
Ni 7.29349585386369 6.085220788482088 2.6434996766718823 -0.4644116791548518 0.0546480263621833 -0.6408922001455156
Ni 4.994683074237625 4.429957849800185 11.592677931034219 1.0056888013091905 0.2396882639974001 -0.9929014197365351
Ni 5.564485046843363 7.820199474998128 12.25870768487822 0.20303076067536646 -0.1146118085103252 0.44228785067261894
Ni 1.8061071688314565 6.452375896703243 0.35977312032607994 0.5007501085745699 0.13928771399045045 -0.44265140465962477
Ni 2.802310980941578 1.5548441398068351 0.290229771614275 -0.3388837379526551 -0.5097134884154447 1.0530732041304252
Ni 0.5649538581315443 0.11587677694141507 4.909593534459386 -0.9332669959033539 -0.6352709973039962 -0.896882800847365
Ni 8.463065215125285 2.3226572936292977 1.3415442054627087 0.6807746381627501 0.12616146102113754 0.5420854769882472
Ni 6.778367938659096 0.6179176634901771 4.8758403602014315 -0.4041766456231943 0.5153074375634544 -0.2938310685883907
Ni 0.7236013382582209 7.32456843307817 2.399457511797277 0.38847389017595674 -0.053963341590332864 0.5166474965311166
Ni 7.795319808442849 3.8869798302822645 3.9227024947870692 -0.4946835906655158 -0.9867883648602618 -0.8057027409974188
Ni 7.553238132488555 3.785147823140488 12.757817739505708 0.24490914607670725 0.05540778734634329 -1.2093656802089883
Ni 7.88172354189586 8.762152292054463 6.90038272016782 -0.287897219602459 0.3362668691550983 0.6505343512209699
Ni 6.925998695234034 0.5424217375377767 0.3105367642874693 -1.0634535189234846 0.6357368811968213 0.4548422902988618
Ni 1.8614203204169084 6.395217473177185 9.156727241180354 1.0692271881824684 0.8425512772843361 -0.46635466181383556
Ni 0.1030570876838072 4.819706287635575 1.3926339346358099 0.4231516440638003 -0.32610149858632226 0.4457660390292065
Ni 6.340192364040999 1.9981234665728491 6.930354437146516 -1.1356045871664378 -0.46988504356459715 0.717726532796751
Ni 3.563310130573612 4.291715476805983 0.37401411904428056 -1.0810059259849512 0.25950838404712084 -0.16130432747085768
Ni 5.966169243670179 5.487361681052614 4.677790473280589 -0.3158186286030754 0.6942083950701529 0.49047160946669727
Ni 5.133465526824198 2.9323891507644197 9.374446826855392 0.81630211377982 -0.7568818628399738 -0.1706091498115513
P 0.1375447701873873 5.4704211845052075 12.412465644428618 0.40372978789376274 0.962127371778472 -0.28390712460645945
P 4.046123283501269 6.149760299770565 12.484252123714077 -0.5621238836963609 0.684421233776402 0.4128520619100052
P 2.3528747468225215 8.473938817585044 1.3869829018342887 0.25296749760480947 0.22180572729002446 -0.04342310418064134
P 6.191544457567094 7.702246092024041 5.8975908371634125 0.22022989816247232 -0.5513609887529021 -0.05577802620156846
P 4.784727132702936 0.9809555649521469 12.657429545140872 0.23949491703967138 0.38562767897641326 -0.1263200980861889
P 4.059283222902072 5.99528853502558 8.17556734611576 -0.639473465421118 0.28184818519490173 -0.3038545142626638
P 4.684290331174788 1.009732805899045 3.796940461039935 0.33701197485123896 0.26539543895551715 0.727516008083347
P 0.2242230440998539 5.5884465780916095 3.5760857133311754 1.023578794215734 -0.044119616027033695 -0.018868040549096538
Ni 1.371253083706449 1.0970996812917861 2.7224134063113445 0.15409906797167008 0.07166872928989593 -1.0230044097695026
Ni 2.00684575198966 6.483268449386932 4.7402236741588135 -0.8895690407947713 -0.8314371696490455 -0.7481285421273761
Ni 6.0446068031357 5.580228366961013 9.157794798507942 -0.45948853082162155 0.597810538464693 -0.030420264163070188
Ni 8.73658852468218 2.3806258365439126 10.183615675331101 -0.5620058700612579 0.09726097593670346 0.3982641367935012
Ni 2.2595129879544493 5.2086266034293285 6.9700619889103725 0.3719098151696886 -0.043539318043531464 -0.06310284199775583
Ni 0.5493077523405221 9.027520399766539 9.141076634726062 0.6094440089385632 0.5049502626988466 0.11874434262146001
Ni 1.604189411896574 1.1107186883461049 11.393442569408117 -1.0647174732375726 -0.15516196201854565 -0.24995750713389206
Ni 4.153968176771456 6.911965627158896 1.5659031695933097 -0.3534683206350493 0.02810832820044192 -0.18516802146233272
Ni 5.513555541282666 7.846627369718207 8.01817375077604 -0.3662413040300015 -0.20891961535597567 -0.7884398401519132
Ni 5.311466759143532 2.909219736251653 4.72949949371961 0.8000236883347706 -0.5089668400574073 0.18392052220847682
Ni 0.6936476239326055 7.299391722747086 6.862216195507532 0.5886905784412958 0.5691987882652714 -0.3179043074875106
Ni 5.170316957677061 4.295252998136021 7.100659535274546 0.23680065803695993 1.836080303302541 0.38300772485506296
Ni 8.182088807193653 7.217695683074253 9.009714875738682 -1.0634149523760654 -0.46286721748586734 0.3707908710738969
Ni 4.586013848016129 0.3638399196566425 10.476296508162092 -0.7093149116942881 0.5798390415879369 -0.4335738678383888
Ni 7.938881965421916 7.216390490726021 4.6505065524066 0.7185834814804076 0.13137745800443826 0.6185351726065541
Ni 7.333038681351874 5.9463483226301195 6.966162614253446 -0.8760614932266396 0.695272574668609 -0.204779367935357
Ni 2.446416532221385 5.098720406381587 2.4182837862547175 -0.395924432916731 0.6547229353810208 0.8034059745434422
Ni 2.4000326965631533 5.266919194099366 11.30578045050488 -0.276684124495459 -0.268128521615964 0.13018857990265967
Ni 1.258871521860336 3.337538858308957 3.7498815258912384 -0.7334136045147046 0.5898231493838423 0.042684683352720035
Ni 3.777712727418831 2.583515736745065 2.454487121596733 -0.15306959826589123 -0.033102953201555894 0.8859450708889387
Ni 1.003791930382951 3.346090118521517 8.249093781821308 -0.7719966069942252 0.19106870321748384 -1.1441334505730554
Ni 3.6823796780386 2.7267808499483275 6.906838471561977 -1.3073671338561421 -1.3803586957225193 -0.13236219051521075
Ni 4.062874752191347 6.680424504582399 5.9799034677042044 0.9749977999832369 0.655830823733219 0.4563037053357367
Ni 0.7292757745087448 7.309680238981777 11.10733540534895 0.31635547494315197 -0.11309048676979234 0.7810304350617195
P 0.2206540181269277 5.527795639868213 7.922844301926424 0.15442431252157277 -0.8101152682428177 0.6021934980237371
P 8.306343118745415 1.6061426997556536 8.110552564785994 0.6659519713276207 0.03007547922914175 -0.540283905003134
P 1.8092036251610573 3.3373408291250874 10.350178922016646 -0.32965090650047746 -0.4585027698695845 0.6746898654212509
P 3.9998834690676706 6.0962654161461 3.762910946057217 -0.10334986244326073 0.4951687578320504 -0.6059082278711629
P 6.844680711275861 4.0255732550115075 10.419067874289027 0.5466754103517747 -0.5408850289222427 0.35657729857767617
P 6.202607087884185 7.723678250514679 10.050435648382734 1.7266942619675296 -0.2783959649802431 1.3846550091050283
P 2.3321086864958107 8.359801997063721 5.722964202163751 0.9322514101546462 0.7214631170210478 0.6259332648428382
P 6.950599320666586 4.117440793674017 1.7159066758440693 0.3511270740963824 -1.25990816904323 -0.0041798424093024795
Ni 5.405206573726265 2.9551535055829077 0.5619087093632191 0.3830799728538951 -1.3025928523959502 -0.46220515842183624
Ni 1.3328714273418654 1.0528311573703457 6.956465485172402 0.49955428849425576 0.6715315222979273 0.5849820192414571
Ni 6.665518307832928 0.707852617344648 9.2530315336942 0.23887836650159505 0.42780585500636004 -0.5608298474752857
Ni 2.5846679065421254 1.6665235981828643 9.094966439394632 0.8187341202600803 -1.169875592534166 0.09338786613454239
Ni 6.384388877350124 1.9588686815339305 2.6516152726799285 0.4994064500624819 0.4986240633705025 0.13557015592954716
Ni 4.186958038538857 6.936872297693793 10.288022061863185 -0.7408260949286919 -0.6770709640589178 -0.23270077693597344
Ni 7.974509215865402 7.209036406943219 0.24427529923197933 0.5415478593172222 -0.47810666014344105 -0.03806261119967638
Ni 7.45002892238623 3.7140283421516105 8.261148358323057 0.7374715766341622 0.14060977523598364 0.11995610354137405
Ni 3.0433845083234448 8.321267318147965 12.34684417369009 0.4159512696606191 -0.5155313806488024 0.19741804247427935
Ni 0.08386895989947726 4.982009206469958 10.062187780312753 -0.0888400988628599 -0.9420593973840032 0.4984456288111093
Ni 8.429634288357446 2.140623467020251 5.890160242105025 0.9197075120513645 1.6145926214735677 -0.5322692622287736
Ni 3.617678142872412 2.5870532580751027 11.439737291933609 -0.14286951780443782 -0.05555845399159464 -0.4854875259885445
Ni 1.0573678259462722 3.448084149541005 12.571691009719133 0.38861324396729846 -0.42351879759523187 -0.15785339280777974
Ni 3.0734489389654964 8.32507487927419 7.762050905552722 -0.38379293976051965 -0.1888351859012748 1.3883247446471316
Ni 5.606017167496785 7.892129075375564 3.720884652576775 -0.7808031495422617 -0.7184515838882337 -0.5793752145776409
Ni 3.0763743700908455 8.369892484114542 3.597981440138598 0.42492570524508755 -0.0881081057928418 -0.39717141794995464
Ni 3.25029800148777 4.092525121812581 8.942657693417097 -0.01791236150404657 1.2275379802426407 0.45825877217957856
Ni 7.320004760522625 6.073249024184506 11.31122175239803 -0.726292420088891 0.0047336580302434605 0.0214370868278534
Ni 0.36160489027687553 9.056774711020031 0.5475677959204297 1.1204124528070316 0.4794274358373936 -0.7551538244052737
Ni 4.688899010363031 0.3897727414170471 1.7229808183714912 -0.34637824655748733 -0.7951331930116886 -1.07426912148175
Ni 6.027603297302515 5.613389253932665 0.35514643848475813 -0.3572936079184105 0.7879865546645783 0.2610060516385699
Ni 7.896332694869528 8.780325970337787 11.31546317746346 -0.2424807391408727 -0.03910647908315846 -0.46226943600086834
Ni 0.2077029095018426 4.986077806065827 5.663534743951769 -0.2806225403179167 -0.990819597506842 0.20926774272401383
Ni 7.908655510902153 8.800443935153652 2.6184021780143465 -0.5980702198839829 -0.3058610031697313 -0.3814660913995559
P 8.403170388331208 1.5537729819486301 3.6846813172347597 0.32582947587185823 1.5499558593297889 -0.25716328085371193
P 1.9538999492841063 3.165370485587243 1.5201089208234178 -1.5168698754090975 -0.12079248339974034 0.03146181805370711
P 4.572367836982192 1.1390098576598682 8.153210751389512 0.5868334706278991 -0.3490845897450568 0.20415561830842904
P 8.505506469759199 1.6405367684632224 12.287006055253213 0.0741408449794723 0.13256813587842978 0.827324947252885
P 6.2630870009033295 7.7120035299928995 1.4836958545730308 -0.028094187133054838 -0.09416716750272813 -0.07665924052595184
P 1.762270708583914 3.274313540695253 5.974040903729004 -0.2854592995849278 -0.6953106269953961 -0.1777727574395261
P 6.934883004528556 4.025951310726168 5.997320134425553 0.7934167245412143 -1.0525535841815292 -0.666647968953381
P 2.4965089144139054 8.442479181329364 10.109443844512665 -0.9500519286711768 0.20213781654745186 0.04848663474647779
