# total energy = -340855.67939163174 ev
CRYSTAL
PRIMVEC
9.34563942609493 0.00000000000000 0.00000000000000

0.00000000000000 9.34563942609493 0.00000000000000

0.00000000000000 0.00000000000000 13.67828797180206

PRIMCOORD
 96 1
Ni 5.460526259191829 2.3837735490488248 9.99313800137355 -0.15358639000130966 1.4343163808858976 0.1381047494259428
Ni 3.518773416579571 6.4911446803266095 5.876711880086538 1.2115148653415069 0.5712363875205904 -0.5687665858238591
Ni 8.04024048378348 4.429739616547949 4.233279323454794 -0.5358886041489158 -0.27351729673170316 0.9310008255769966
Ni 4.655567646874042 2.417670183132285 0.6365670125817501 -1.5940973297336933 0.30324670547533583 0.06249349054853108
Ni 8.788041165565165 1.568179599100219 2.737832162941433 -0.2148794324838364 0.02581567551152328 -0.3482880619856905
Ni 3.2933192118292545 0.24140160381290776 9.869637245904537 -0.3630922168780586 0.5696322762582642 3.162803473087792
Ni 0.02385194086236772 0.9087671710188772 5.534536246683899 0.7951830724130176 -0.23697857837572087 0.4706134370901895
Ni 7.921868615214109 6.942875506093951 3.5725912155961184 0.6002412593933726 -1.1618087563656312 -1.6432804763265636
Ni 5.606477109614051 0.3409382707468211 9.097825747390779 0.5485386888127586 -1.9251350892793682 -1.0015976619589524
Ni 1.193288620433571 3.3344400251645805 12.623800913687669 -1.69615572705904 -1.1543474149915796 -0.7079596832179743
Ni 6.323390453197271 4.096062907610571 8.234849405712605 0.14228202073208399 0.6784444473676767 0.7410672644052205
Ni 5.463058927467709 6.7246361349561035 7.337266161356998 0.3898129207023545 -0.6244265983903245 -2.8260614640684873
Ni 3.3123843161938145 3.660855172292516 2.4173094414516614 -0.6717804050839399 0.396870084659452 -0.5683199852047438
Ni 7.59849080088935 2.854961996035289 11.222666207686757 -0.5438363982410828 0.45044956054780483 0.5653423906336585
Ni 7.097274814528704 7.6854519754541695 9.804008427821358 2.102725298394443 0.5456459406459958 -1.26557847995513
Ni 5.871538134117802 4.848545754728846 5.613924649647442 0.20904251408708516 -0.3412666363625349 1.2440753157760316
Ni 0.30483045838264744 5.482768880950482 6.895676288896512 -0.9190693642467332 1.3248071837094602 -1.1992553312478638
Ni 3.3707852167693715 8.640155767788302 11.97605277813447 -1.13187005982467 1.5577018218237948 0.767237495042685
Ni 2.860812366296179 3.028407717555814 10.084714052671321 -1.501373322435395 -1.0911000769961596 1.2769460983621235
Ni 2.5423036300958994 4.732893467223243 6.847692972553884 -0.40573859079367547 -0.6663831453277684 0.6327726563621748
Ni 9.129699050545355 7.04879898298999 10.621519168409751 2.512573797591434 1.448443307205583 2.0742883832099888
Ni 0.3521511688922128 5.233950577714185 2.41729542299257 1.6388239832171065 2.1479795422465524 0.3575653735225584
Ni 2.761299998024691 8.0605392125481 1.0736111660408032 1.2921009517256907 0.5794891144476858 0.5722967104643046
Ni 1.560581594272578 2.061442446336238 3.954393294594919 0.6321666473470596 0.42675350248244565 -0.33698652092994225
P 2.9425306371607443 3.7412743992812603 0.0970404466516712 0.9469000133057562 -0.44668983639505644 1.8996081486528575
P 4.220780465328734 0.10201513050130616 1.9763074097090831 1.0803572366573588 1.2981587278839966 0.08880693163207931
P 7.549416848429397 6.213831522576811 5.529311099698495 0.07189215815461167 0.5490259128618222 1.2397898010268005
P 0.6657216692364959 7.401475376816169 1.1942530904190722 -1.3080592748271602 -0.671374942115405 -0.3889731984098785
P 8.509055138363768 8.65442655914354 12.248565080927369 -0.5349084996238337 -0.6899349645057795 0.3867797903029855
P 8.572998003100201 6.157365169355893 8.807025897430933 0.10579909531470166 -0.9198154983841386 -0.7857892899029435
P 1.5433575808687134 0.9772361289140127 2.1817283018535814 0.35305077348165653 -1.9569275511996167 -0.5563329880461967
P 4.4853648622233715 4.664539460692659 4.0453123474432635 -0.10289940516940344 1.0439128777873956 0.016469201299616796
Ni 1.2857730678804762 7.542837518295745 7.390994242235358 -1.1307565150455172 1.681133799728911 -0.4853414873289835
Ni 4.229696205310985 2.781467887837789 6.112170591808552 -0.9200736371415316 0.37408805376793 0.9940311624656041
Ni 1.2466054931785786 2.896559436979729 1.3753790583939083 0.13616665186296548 0.8063596578551274 0.40782246990589766
Ni 6.776523124873769 7.13652649998515 13.007517914198381 0.4238697531767474 -0.15522135450157137 -2.4800339159822
Ni 5.409975695707561 8.262657355730619 11.242239714834373 0.03383494627157398 0.37803958221651024 0.9397657162538201
Ni 8.165210373765293 9.075017714448766 0.8876918196205834 1.1916692913704894 -0.9203618578059118 -1.1543031920172055
Ni 4.719566585446839 4.08761444959804 11.711062780490115 1.3968584931497556 -0.771258186166304 0.21094513042643673
Ni 1.5656843133819163 7.370802988323773 12.625784992931099 -1.6975343525741216 -0.3986120070512232 1.2450551631907978
Ni 5.417237257517004 8.82001259793338 0.29009612331344875 -0.44536880359078773 0.4481060000162928 -0.44140082008197534
Ni 1.7976991569870966 1.2015221287400306 11.414586389162116 -0.1341056555688787 0.7746607840899498 0.5321353077540706
Ni 6.881502692190977 4.535691130362173 13.395667551473855 -0.43961133228172034 -0.3446268110840194 -0.1756359136021814
Ni 4.061820484869518 4.1737345166173645 8.662732963437275 2.2482854756571666 -0.6453206682305144 -2.0210639766682097
Ni 7.415353651316842 6.634946033688122 1.3654979138622176 0.9193691548753392 -0.5570156159355181 0.4051454372943668
Ni 2.294803062014211 5.851482391977437 1.0896613671367321 0.2051979435300144 -2.0553735485833573 -0.6581826117948472
Ni 3.9815040599141116 8.092641483867837 3.56222316325198 0.1370264287600995 -2.4500715652921543 -0.36866996807615215
Ni 7.985923627623273 1.8609878269659204 7.652783358387132 0.3493722961888048 -1.8411479476334354 0.519423259504041
Ni 8.993691960438765 7.993680508320619 5.3659371737533075 1.5886597036578898 -2.127909768079871 2.516412968831866
Ni 5.781072344780087 0.7218272807767898 6.667577268197582 -0.5716271952011059 0.011060114468903533 0.5662232505767152
Ni 5.641775589606671 6.608890391056557 3.047536372268256 -0.06670598596798188 0.4831326526031228 0.3770142262757894
Ni 4.819733148475934 2.6269283948121203 3.9538325562312555 1.0241459795731136 0.5240931541758844 -1.3164696103780424
Ni 7.918027557423013 4.164024397286591 1.9151514146400597 -0.8135003826649668 -0.24256172889045322 -0.5415280618228802
Ni 2.6462832139979064 0.027145344184951525 4.680423309407367 -0.3815923325647751 -0.2698838137441739 0.7620235549419134
Ni 2.861550671808336 5.864584978408375 3.5915899659209782 -1.1603951638475565 -0.3996551036037569 -0.4162037519910574
Ni 2.490846539590376 5.31605201979392 9.528486829143462 0.476742689916379 2.484344113321779 0.20942149469305868
P 8.686257806920839 8.963991518443386 3.648833876339509 -0.5305278540576347 1.5095437740613293 -1.7271256930779932
P 5.839688195061714 5.39671423340692 10.449678093173246 -1.818906876847048 -0.8886056484402375 -0.7786508790859493
P 0.8403514832682899 3.964429576740557 4.045914206620263 -0.052250215553968075 1.645099017592541 0.22367569061922768
P 5.860706538059703 1.9650608672618717 12.55397403438853 1.625220019280427 0.47118139377851753 -0.5539894275146847
P 0.1380519160060824 2.6546755981740704 10.17934052066742 1.1540417108257028 -0.31300841284778996 -0.01092384600135538
P 2.181589986390544 1.553235921708586 5.896286321798093 -0.02066267055567409 1.9842954016896084 2.723531526423361
P 4.656661086683186 8.343300878064829 5.913137444190121 -0.5470546480680644 0.6016525379186025 -0.09587643688435102
P 4.401618587610223 1.8356424529283288 8.037621835625172 -0.4707946998630602 0.8467156930746709 1.051241550238325
Ni 0.5987274532377955 4.813546335196848 10.291202216834657 -1.3581268809075124 -1.0246604573156868 1.4414668758877498
Ni 6.5398541528501815 8.268647910582425 4.9147726937332665 0.7862171214689815 -1.1276074278935742 -0.009184237602429344
Ni 5.194698892257738 0.5322472474057868 4.227876609320897 -2.0416104333609937 0.35341252769644943 0.2764465545633562
Ni 6.806746922675234 1.8506889323533002 0.9548402386692912 1.911114349520244 -0.6179163080756326 -1.239695184430465
Ni 1.5445538227111955 7.770702898009815 3.4034865435742887 -1.799258249378185 0.39239996470324034 -1.2447476592527078
Ni 9.176829110011273 5.448666642800346 13.225563830600763 0.16675043818709345 0.013497777376118689 0.30111963183000395
Ni 7.081312462443082 0.5353415886092701 10.846512633137925 -0.2752293943268034 0.5282879089835224 1.4774180971713782
Ni 2.677740636199431 4.869377184938947 12.090977040331248 -0.9786436242659405 2.3001047743213032 -1.5208111194450322
Ni 7.693891087827306 5.239931786926596 11.116208160217356 1.1112431276029378 0.13994797328226868 0.9377563991332752
Ni 7.162479340583378 1.4184063821656898 4.980168805395526 0.9938164753516369 1.8165910842296777 -0.7616530589763721
Ni 8.816236959618045 3.883234661682078 8.313813516647643 0.3238291576123778 0.6701066169259426 1.5842618317005104
Ni 4.024297742701034 1.5665441122062003 11.713565542719934 0.06374973155313537 -0.05936162978776873 0.547739847060547
Ni 3.4384289547059823 9.053849841220467 7.9444458108630815 0.5063515139217474 -1.0988617232194495 -5.154073249212703
Ni 9.349658019331768 0.35932020887165106 10.415729123509177 -0.24122604079816518 -0.8930706261901266 0.3433098920448088
Ni 1.28563288328956 0.7685722998996607 8.550037636236059 -1.1744590981397902 -3.4458029982783174 0.6066757021648068
Ni 1.586599854346566 0.416519260221089 0.10842530456191975 -0.2651175027037821 0.47363088376027457 -0.37035712597058795
Ni 7.321299136451678 8.173462573350541 7.112559607758232 0.9229954387740169 0.1062014729594429 1.553733581204666
Ni 5.123662687220962 6.992669072787272 9.36118773465263 -3.7883068494820624 -0.08892108861244041 1.1808642303351857
Ni 6.504490253381802 9.181913137841823 2.4964380356400406 0.4493483570638261 -0.5059823035077866 0.1943203773855621
Ni 1.7930917567656612 2.5682190881365483 7.819371249720051 1.3904137659656766 3.3774677042370285 -1.569000791776382
Ni 5.681092694538878 4.582895954943248 2.148298015175901 -0.9939900248150236 -2.248422515455663 -0.5712361304102742
Ni 0.05406639302443764 3.247217172696718 6.066607796069071 1.182620808014976 -0.062053317687318935 -0.9135708030260073
Ni 3.9342057789390923 6.678982686514499 12.8055997676989 1.4163549113114704 -0.6706362641771675 1.0236016770338696
Ni 9.094363187995157 1.4048925876013987 12.655151795600096 -1.2728552161222013 0.11039571354644859 0.36215016467976335
P 1.514395444385492 6.649459811667613 5.2536932409348385 -0.7759918441965474 -0.3656962301598089 0.7519684846987565
P 6.844531342746761 2.588863605558761 2.913188133154171 -1.5536993855326209 -0.17130617587857594 2.0830717858295738
P 3.041631797298879 6.848306981062096 8.132877265152514 2.2750180065560044 -1.0082827872886118 -0.077869201673653
P 5.218932135207397 6.242475907320623 0.8081641666300637 0.891304021208007 0.5260191675540038 -0.3509895200772536
P 2.1895337798757772 7.3441118422133895 10.625198546639323 -0.2088712786165435 -0.302359417774376 -0.32974552309681276
P 7.308916164254108 3.2828240587893522 6.5559893992646 -1.847731000167592 3.0958532323194876 -3.6081074848789148
P 8.74343442873573 3.1320508584396234 0.363603315406101 -0.3825613813462637 -0.0895929178684844 -2.4858003861523317
P 8.401131694637328 0.1759082975009468 8.550434825910319 -0.0982109985547986 -3.95847659776335 0.6515972452678456
