# total energy = -340858.8333429973 ev
CRYSTAL
PRIMVEC
9.33453193897688 0.00000000000000 0.00000000000000
0.00000000000000 9.33453193897688 0.00000000000000
0.00000000000000 0.00000000000000 13.66203104163962
PRIMCOORD
 96 1
Ni 0.5033319653393613 4.212011523939702 -0.13128832517836206 0.754754532084326 -0.3873793715601974 1.8929579903261915
Ni 6.783843101814393 5.1569928673950995 6.191358888585727 1.3804157742127001 1.1831208875798462 1.8344741351576856
Ni 5.844845193348425 3.123661104037113 10.976758973713729 1.250272445725679 -1.0191277004229158 -0.2663457186839284
Ni 7.629953082698747 7.712302323692114 6.146643680114798 1.398193409911095 -0.6119053259948622 -0.12763727423571564
Ni 5.172245492625565 2.85058870593918 4.089674081462376 0.48246210889865937 -1.284077310090266 -0.25723064375653765
Ni 4.406711191661268 5.632885976023966 1.109090816475154 -1.071120805660755 -1.3785393831255937 -0.867194529754313
Ni 8.801763552898514 6.064589410331519 9.80213880939256 0.9244589106934208 1.2181873922656763 0.48296578800795537
Ni 1.5635341041021305 1.9454938175693246 0.7759880433116643 -0.9687250796006479 -0.1814527773942746 0.2599295307449394
Ni 9.15608371721797 0.28529876806541304 6.709518757951155 -1.0596277174194912 0.5557681166816621 -1.3577550993903906
Ni 1.4976043048348266 0.40199441942322073 8.208326283956243 2.2686298436414734 0.4862467727520723 1.3790173512032766
Ni 1.0838325064316319 6.124442429289744 1.8032654209282302 0.5982026316967891 -1.5020382097129035 -1.1831959637921556
Ni 0.426315542457478 1.412893427254368 2.9197809241281774 0.1396882918629788 -0.4463692198308442 -0.5008241563456148
Ni 1.1756656319012246 2.6655502788011707 12.012901356337252 -0.15138269748177155 -0.7047164936903283 -1.8417544708691829
Ni 8.23858323586691 3.220637556619304 11.906364476116725 -1.6476531514729624 -1.5786717392072425 3.1251550666073986
Ni 3.1572934227062466 2.9498614533847096 13.200131539889655 1.1135856596931852 -0.618945006450463 1.350301728436139
Ni 7.123676072524495 2.1224765436217212 2.6821573446197267 -1.2447062644918112 0.10593279267908852 -1.4211597888992815
Ni 5.73587386719148 5.013157064349668 2.879368934893017 0.04230338875390134 0.030084478090206253 -0.8839511803873615
Ni 0.47750144848639764 7.787912032606905 8.250677988933687 -1.1032973903932999 -1.6238203107194227 -0.5726682348711106
Ni 2.8272243724313135 1.1711477184302665 10.651643759552506 0.28387318604473044 0.7424245497640634 -0.37639767573771304
Ni 4.728827220702201 4.95101708506007 5.222953470617888 -0.41097901325700825 1.4262426027388277 0.14875425871998896
Ni 5.8878400475782415 8.038898928076147 4.794457381493435 -1.809294550568265 -0.37825221244794854 -2.156978403311053
Ni 6.473712611816249 6.494715308737024 8.691073739406852 3.474142211542642 -1.8372923213327714 -0.5865984717989574
Ni 2.918786796473927 7.0462367953446075 13.548772574961733 -0.020091885653868623 0.3658769787120473 -1.5226494582053518
Ni 8.362247115336432 5.861021937243405 7.7388441318807955 0.18331039942830363 -0.4942279911853359 -1.789896091436995
P 7.420990250134985 4.609923952534721 10.534942507475522 -1.8416110033127833 0.05296061135743137 -0.5933419611703781
P 8.656854278677132 2.708069071900784 6.920993513066643 0.5655619628436325 -0.473049814445824 -0.31878671009246384
P 3.2663207560549803 3.264528525917741 11.198097528756406 0.3137064673560791 1.008732216121205 -2.4214014510509716
P 5.058606900486225 0.8210644981696296 10.783481888663594 -0.5028887521841274 -0.5533826471686212 0.8566519783517763
P 7.1519970425056645 8.66117616697683 7.928800923911052 0.025182669913214693 0.24112833887803634 1.5770480875608903
P 9.048045844257503 1.3971927444895933 13.33214795856127 -0.4625895383444485 -0.3079888481460115 0.0314906144091135
P 3.3107998008671995 9.272111949540294 13.094263945611 -0.6335563286057347 -0.3871091486179462 -0.8003000819246088
P 3.7973156068719938 7.076209977483544 5.3688232681784465 -1.1617653047222056 0.12982091215059577 -1.1406220949856873
Ni 2.0596738125626217 7.986970926756026 6.29278604600873 -0.49248581168324856 1.0223534064490651 -0.01298021430975184
Ni 2.682567130572981 8.844646392744755 4.015790327507876 1.7084767105182381 0.9852171637184002 1.4663384423184487
Ni 3.7461810407688803 2.7280263012415022 1.9451316377290908 1.1160323214614651 1.6286087332470018 0.11685046803285683
Ni 1.2598817792875494 2.7307426500432563 8.11598442649457 -0.0893185811611752 0.19432474826093632 -0.03127181353008807
Ni 4.638123573600348 4.335890097644415 9.582357254281607 -1.4395668306515592 -1.181574369028333 0.5203802241006715
Ni 6.908207071181275 1.436855170807981 7.309145755039278 -0.8278203988320646 -0.42710085851953544 0.12842865978875947
Ni 4.756998838171934 2.9392387560087796 6.634035998671087 -0.12706828910612308 0.16900580988017347 0.32863840607556305
Ni 0.8694257748260041 8.066463800968167 3.06099185678511 -4.347445425297854 -0.5908456771110856 1.0590564182970537
Ni 3.5735015339522516 8.256365519259832 11.019151750631815 0.9634597174366504 0.4630636497673896 0.989214200692935
Ni 8.244884044943142 8.603199388943526 10.307879083978836 -0.20829509439809935 -2.219924922236603 -1.067487322673226
Ni 7.032795069315312 6.68674530031666 11.242622312775254 -1.661935886644222 0.2494872523656929 0.18285814238223347
Ni 8.437996842230692 2.6291362696065295 4.4258693850658 0.6229569558233335 0.9743228854033994 1.9196131310198745
Ni 7.304196586191547 0.6726454399294871 12.062794429689049 -0.30646649796421416 1.2096667563891748 0.013799881997569782
Ni 1.0772983340562796 4.073216368155257 6.122953571441361 0.5429761071233165 -2.8062104907808316 -0.5344145907065505
Ni 4.357704898846126 0.35843295910314066 1.2757122120466349 0.7058513786257198 0.08769287263229414 -0.6751709188227275
Ni 4.424708169289381 6.465694248858495 9.143682791502748 -3.1348319275755303 0.48277784036686533 1.24847061663025
Ni 0.44221878456588876 8.931448205485326 0.9457831797511733 -0.04351103590875732 0.9338349525916821 -0.27058906734131466
Ni 1.4306103689235372 4.740430043934434 10.015853852179596 1.6762703009890227 -0.15177659048608053 0.19557533283858575
Ni 8.901512361474248 5.43639407816516 3.650494620504223 -1.467594426212737 0.633452970258651 0.026702706102166913
Ni 8.995791134318615 3.3086341894513684 9.874615849379964 0.7922610136702162 -1.786707666406684 -1.6661854059491947
Ni 7.250915077736533 3.627660488411956 8.279218320416028 -1.36348788810911 0.6290931506280585 0.32491647713928556
Ni 5.237549878251228 7.238042758157088 6.828214799509017 0.48535485706542214 -2.4591071931318615 0.0692385225818485
Ni 3.9410673991297416 6.637458971542574 3.3121682432532373 1.1243930347213347 0.16255285516597812 -0.7690814902299593
Ni 0.30388102084771823 6.055086856791364 5.90597330937304 -0.3571015465122624 2.7068453240169315 -0.3358614061865635
P 6.907432305028197 4.263276773490323 4.40023956065008 0.9298973081001727 -1.8682684579993116 -0.8263070475113318
P 2.9850899770198227 7.861692173256595 8.670034637811414 -1.5158900279943313 1.9050015517542869 -1.2635226258673657
P 2.636762582221762 1.0715482623659698 2.4582779299762314 -1.7399225877323454 -1.1487385534452346 0.8690848047984904
P 0.9640144541316025 3.82487114523205 3.948886936556645 -0.3308541827799592 -0.3527342706825021 -1.2976085118074812
P 2.8891683265496524 1.5718791756786514 6.853626195876761 0.7324550972561773 0.6066466486990842 1.9484614227101347
P 6.395209197992375 7.118626090731545 13.26432978347749 1.2983641590265833 -0.02636537736740621 -0.14880182412847276
P 1.0052824199479338 5.1486944684784035 7.940058369460587 0.27239423887085346 0.11615035664203865 1.2897010840349465
P 7.041588198426143 6.919725883625824 3.3154063923918224 -0.1881430449302566 -0.7254388138393442 0.17874540576544057
Ni 1.85971880334488 6.331454344672867 4.175540574100076 -0.04344984365351872 -0.9220158484695669 0.836542609196411
Ni 5.430886704305935 1.879003946384134 12.953190230573952 -0.06309152914384618 -1.688981320797788 0.8524708503908931
Ni 5.730403831460114 8.169778400754451 9.797042154939785 0.8356020996600125 2.973131907328151 2.4989510646016773
Ni 2.905970484086272 5.988214269795616 7.259852892092817 0.4724661740282121 -0.8011369760036073 -0.2977887676845581
Ni 1.7244334315791956 1.7432238444243153 5.157539870968237 -1.2391979330790723 -0.8022348370534764 -0.9381700896319263
Ni 4.835744949826892 1.9249951853746483 8.867696152525408 -0.93775408514043 0.3709613352134901 -0.15558645115047398
Ni 8.182053310288149 7.129146108255862 1.5351748625399053 0.11395926252799084 -0.3646114817360624 -0.7047789714971475
Ni 6.920519318842831 0.7001459045509516 5.006710636574786 0.7792766855954063 1.4476012709202617 0.5894529105286171
Ni 4.461103509420092 0.804826146363683 5.63633881939774 0.23472680622706668 -0.7366801910811184 -1.2337909031308882
Ni 1.669779746925357 7.264450149085476 10.237055189602392 -1.3610484254296817 -0.8509739541303926 1.103125897812442
Ni 7.579966664027303 4.904297752576301 0.14743799893064322 -0.999543607643401 0.6106809666694579 0.763716112152988
Ni 5.118693282743571 4.113065485112941 12.83867512588312 -0.2200671473323629 3.287075944616333 -0.039029603098636005
Ni 9.039430071254003 3.683639676604795 1.9371254096628916 -0.13637748232219093 -0.2871731969522409 1.0374254702908392
Ni 2.9653754455101886 3.6782723207250414 4.501311072405224 0.19613094823173963 0.05303440201816028 -0.2700275384108898
Ni 2.535576255723451 8.098527918267218 1.8254526699553368 2.798005072151904 0.3610101375380492 -1.6348223182568813
Ni 5.696892861706522 7.539109417617423 1.4786692067442526 -1.3034469728661295 -0.9566943736883587 2.434192689278369
Ni 2.2773364289175677 5.030696649911508 12.342210575710252 0.6912598539647901 1.0485755733703879 -0.73569185902592
Ni 4.906818076206794 9.061422228563046 7.89232343989905 -1.2255212069229282 2.524470291918704 0.02209734611967162
Ni 8.4923144837338 8.195028309719206 12.828906538181966 -3.061896672868385 -0.5625311464371086 -0.024442449313080483
Ni 6.750406808316519 -0.09786976729122152 0.5932692473669052 1.126940997954169 1.5771383332818516 -0.6520937252882898
Ni 1.138206155126527 0.2162269653387616 12.017423003620996 0.020654443025557977 -0.5506045702028518 0.10781432597251754
Ni 7.424462696025886 9.033278614689207 2.9934191798920033 0.38724644552675885 0.04865787021701942 -0.5318748550038324
Ni 6.889967395722078 1.2535249630195282 9.843411442474872 1.7157837857026128 0.18456561199164342 -1.5097139810906064
Ni 8.848949611980522 5.472500047804963 11.997517114206085 1.9852567371616132 1.4402350603631775 0.43041758159759425
P 4.430859625854176 6.317564561109261 11.526519034139556 0.16200983817831455 -0.5222913250804553 0.1299180998500924
P 6.131125954176534 3.5097186770368496 0.9076189458131341 0.09728668696831633 -0.8239308339696714 1.3712631611791546
P 0.07539594813279592 -0.0352714624821511 4.513579447766546 -1.0716676793031608 0.8413238326351382 1.396765676325633
P 5.212141282243072 4.870889462674322 7.633878253389941 -0.5866105559838155 -0.061939417817273974 -0.7709535104416916
P 0.909306629192368 7.384622913600168 12.578837227204863 3.1886134921723603 -2.2985477142468285 -0.570819611698146
P 5.106278355230403 0.5351459171817546 3.307263880158937 1.759916771466085 0.7526570261253489 1.537243811079759
P 2.4773941179869223 4.354195114827366 1.1081713650766223 -0.6210731085370594 0.9850780670373744 -0.5080175887702606
P -0.07894960445179103 0.9894323846717223 10.173321805706404 1.8667527926857335 2.53066356521361 -0.46264430284178387
