# total energy = -381158.0351344668 ev
CRYSTAL
PRIMVEC
9.34509740454881 0.00000000000000 0.00000000000000

0.00000000000000 9.34509740454881 0.00000000000000

0.00000000000000 0.00000000000000 13.67749466848398

PRIMCOORD
 96 1
Ni 3.038156618436829 4.558716125611678 8.39608043585246 -0.807266485940113 -1.2365625523387542 -1.5339923940219968
Ni 2.736842639198429 2.35775875842413 12.260137148130848 1.576519211640614 -0.9419889491573843 0.1335865498406151
Ni 8.52864438216913 6.931324243990211 10.256110889937087 0.21124286417251364 -0.5640506684054285 0.06383072130271587
Ni 5.200462662294351 5.14511164970157 9.001897876111789 2.727314390504561 -1.154174379748825 -0.608611485734939
Ni 1.0478377492809026 0.4956219193591847 9.836813185527932 -0.9782055082872572 -0.1645806842292843 1.3734491130868798
Ni 5.419408952018523 9.121198325522679 -0.09280522893088831 -1.2925457525725932 -1.886790685173215 1.103849149131712
Ni 0.6687837728186578 -0.10690698108393693 4.817951934260594 -0.6686284897185195 1.5750385133300293 -2.0391468023118495
Ni 2.405829940051222 9.024168178004386 11.666670188749896 -0.08040173828751959 -0.30606206343694387 0.6870620138333586
Ni 5.350227195100685 0.7947388661713549 8.587729695729676 -2.0093934823088166 -0.44802166783260255 -0.08188937857663962
Ni 1.0123450689115991 3.399980104097357 11.09471844738217 -2.3611931569921913 0.1391018232318895 4.124229962144498
Ni 3.35892709070548 3.907932879630132 2.918969244705894 -0.334108942271831 1.513728244456322 -1.4699048195134683
Ni 1.408465062459263 8.376842618104105 2.4902208431778656 0.7107405883972212 -1.8058675271645865 0.05459351897516404
Ni 1.2242358100104889 4.863964390904706 4.346256268074007 0.1655823860209213 -4.369114425630856 -0.8664257699090885
Ni 4.969162153652796 6.3915140310222185 0.7881589830096839 1.128782679148598 -0.3858403092078516 -0.6610604475632744
Ni 6.859058604891785 4.126598816428796 4.391993978851122 0.09922401320034525 -0.10454054031725223 0.5243857457156389
Ni 7.722424129188473 1.2805493676475141 7.279859935491414 0.4880221194849401 0.7900467796277169 -1.3976503929234314
Ni 6.896710002787499 0.47795220897417195 1.9855341792272583 -3.1157440577061437 -0.09007885636596744 2.148644686634377
Ni 2.796679298599337 8.632664662630086 4.51522871431664 2.3495136637717344 -1.4603176900456656 0.35930549614211665
Ni 1.3793737738890575 6.815566521047988 4.564891366050866 -0.28589278757792047 3.7893167788038165 0.1254181550972098
Ni 3.4872259345154237 6.240160831638007 9.5216563133377 -1.1489103031364085 3.566407019816335 1.343579322110641
Ni 1.600170392921582 8.149579191589865 6.676340454711498 -0.276588222347543 -0.36178018293485437 -0.03126178622775907
Ni 6.4270254015865556 7.345900805133813 2.61954110614641 -0.6085968304469197 1.3271908534502885 -1.1188505076365505
Ni 3.2308338390409093 2.599834164502706 7.605754324728599 0.7376512967451361 -1.1754672276893303 -1.400891782678865
Ni 1.275820748303947 4.25373886814664 6.6357182503151515 0.09765204072753504 0.35460037735696354 0.4572683832418512
P 6.391990630995582 2.288866699529316 5.483403245304714 0.6322255256094531 -0.3570933189821463 0.1742107511198806
Ni 0.7332770943122525 2.5898162199645562 -0.270505061744583 -1.0855837751636206 0.7524400250185365 -0.005477221064487342
P 0.3501598694496463 4.685949628304692 1.4873731968727235 -0.22236159979349449 1.550488591904807 -2.5070009314893467
Ni 4.382430206052295 8.131234765164129 10.400544979119763 0.04764614112305343 -0.3986040366314232 -0.6085760045113132
P 2.43665007166206 6.090424334124224 7.183762428705312 -0.2044644077980995 1.6442682941611293 -0.9019525020607886
P 4.65961514350198 9.444435903535798 2.699814559307094 -0.027229010919282138 0.17545413660867848 -0.2040473748653389
P 8.81650142098315 8.7133689247863 6.362428349510523 -2.2956873619798976 -0.6470026839186277 -0.2320474596226907
Ni 1.5588744069942646 7.438566792111699 8.895186207565954 -0.7145957004772532 -0.5331128411759914 1.3104473154433625
Ni 4.8459750781846145 4.730002417999503 6.431650290347685 0.5913570695298654 -0.7985481322305086 1.8811975073561538
Ni 8.08763054015013 3.917221906561961 10.468754845895843 -0.7101975714095575 1.745970593698638 -1.6150374223204704
Ni 0.6099264796375241 5.164427966269066 9.665653051956586 0.6292409890598325 0.018891694698180368 -0.8538721016137939
Ni 7.851236953361847 1.61826250171436 3.8717981910614157 -0.6426670326577513 0.4288607786334356 1.3181953348198976
Ni 0.5308594785662758 7.126907789922056 0.5900690819237978 -0.5705010520164627 -1.0092374378923974 0.5127795289352781
Ni 1.029128864052007 2.3563102683090054 4.384759004353514 0.2570650647129508 -0.1029495416810485 1.5542706846550587
Ni 1.5314372006845558 2.9435748864679727 9.20280625860878 -0.51059177725534 0.033772982685387 -2.925282134834723
Ni 8.605414358270716 3.172426979560092 5.8414251452953545 -0.6608912689752618 0.5945940884099243 0.22530525580285068
Ni 8.671063668327154 2.0837511541302014 9.172429084620244 -0.1393126536911149 -0.09491278741950104 0.6027653113668071
Ni 5.826453364563479 1.9101659677532112 -0.3996141255092442 -0.2713328874858747 1.772732692283831 0.3365540613782139
Ni 3.097058768086044 4.228264132315487 10.662851586812742 1.146038380905252 -0.33745934680130274 1.0373223690540716
Ni 3.76799938941161 3.3445262954318897 4.890990412923671 -0.5757594722019246 0.9337544770627337 1.3334550891924455
Ni 9.54966170157644 0.8301091257631863 2.4747790040408892 -0.19919518897936017 2.0982310100685155 0.053744540711307444
Ni 8.9910584975019 3.4858802404729854 2.964446227262286 -2.9475064934505624 0.6548820866667044 2.0085007952912184
Ni 2.883869058432302 1.293884821804174 3.634876606263427 0.8272750678515558 0.962862964392916 -1.6018286369396801
Ni 6.463751634828094 5.6364021163616576 10.968475525025951 0.619754646835952 1.2444093020766827 -0.5909094404694856
Ni 8.932707708606184 8.911382196072548 8.364444477228393 -0.413759661325939 -0.42789121563131466 1.5267526817404482
Ni 8.174371735302282 1.1135057495323755 0.4773784199866324 1.1030305098851585 -0.8821321249007518 -2.599676602048213
Ni 8.476283800781765 5.879047573388767 5.544405238365984 -0.16353707345611837 -0.1352950478912896 -0.061036189276714226
Ni 4.64618623837015 0.6287325538805957 11.52530035704302 -0.6667796094352387 1.1531335971891368 0.9023047431938847
Ni 7.390177877169031 5.858750021581992 0.9380898585518187 0.29302348508543086 -1.7989566589773662 -0.22369394545167282
Ni 4.178903327231058 6.0741825546397985 11.850947101196004 0.5450602433458549 0.43664479345422863 0.6823795207560247
Ni 1.7290112523875072 4.811435597762038 13.226534241571201 -2.324791992655338 1.267883731049539 0.238274414369009
Ni 6.164830000554028 9.20943473627754 6.738026508911006 -0.5732737296655933 -2.1033649888609713 -1.3672147021413936
P 6.303838326118374 6.344461465024471 4.550940069967839 0.7363649738335447 -0.0548845678530216 1.4439757583525323
Ni 3.9951787100481986 7.865749889805641 6.510091169885299 0.6583052534156404 -0.8215695328263464 0.7665587238081056
P 4.708648870173316 2.6033292309740386 10.617292367398202 -0.14328166564119196 0.38045359097464154 -0.18863309719279772
Ni 6.394784815153145 2.8848409485740625 8.38554944546063 0.04873320353964511 1.4798421332318386 0.18995412999706643
P 3.444042238889686 0.5746263082770696 13.653955639251826 -1.440065881775165 0.0354457424021196 -1.3150848142153737
P 2.458274627316238 1.0215126095757086 6.179915791475609 -2.564530136054067 -1.2788443438261008 -0.49592980436779105
P 5.6113666001138 3.883691696671214 1.2426998536844407 -0.9298353445139856 -0.9210020624930718 -1.344868987456342
Ni 7.7624211465609365 2.5105137224358813 12.077939519882255 -0.9480546957354897 0.7837468055516179 1.5950488950136854
Ni 3.050249174623738 1.4157168581324013 9.564822253278157 2.672641681552029 3.0967824290019763 4.405265678740433
Ni 6.7720090215215745 6.104862509787883 7.267728129894936 -2.189012291818146 0.29978368662739985 -0.16079679170681985
Ni 6.515682341729679 1.3255647023865698 10.370782712547843 1.4052261483881605 2.892148071284916 0.8408510067637777
Ni 0.7959341041437704 1.8863079337924868 7.26336490386428 0.10765003248051137 -0.8415912273639119 -0.5546026356186513
Ni 4.349582188280283 1.5042803473003548 5.881746437551656 3.5324661440945166 -2.201726396950705 -0.1438089988995717
Ni 7.539409739416899 8.508954261700955 4.485274873245622 1.7855439851158863 -0.2649200419809954 0.5546257755471029
Ni 2.952845223204768 6.98789946435771 0.1176108557798295 -1.4946406316972516 0.6312737032191451 -0.4218969457210927
Ni 7.644878509992981 3.1223185666743083 0.9453182914811646 -0.38243462596041233 2.4395256714555082 0.42996403899994334
Ni 9.35761994760351 7.892738531434537 12.08788270364027 0.896701023853862 0.6798423561564678 0.406997402901441
Ni 7.455275826471971 -0.06401204897147275 12.09094602660632 -0.39612343630141456 0.9613884367299184 0.28554337465830176
Ni 6.0610153122384425 4.3238551348161725 12.73567645292615 0.21668537534432358 -0.2467040331936009 0.9583766464867882
Ni 5.515457864297539 5.213667285085775 2.826877981225299 -1.1276035712388324 -0.26036996071646773 -0.13558326855566974
Ni 1.440621543015022 2.8162198975072394 2.002768408067982 2.0969737406226465 -0.43009002305484645 -1.1575381540147356
Ni 2.9355661378959628 9.202594124895146 8.374127867275437 0.5031294074400238 -3.0394581413592103 -2.956205820996773
Ni 5.282680830248309 8.378636876827356 4.458931977855145 -1.3937109486597095 0.0675361951787611 0.8400573072178886
Ni 6.88446792504032 8.525121280405246 10.092226849292423 -0.702612559973448 -1.7178108434349704 -1.7064355117184935
Ni 1.8346482347188933 6.523616329521553 11.317812091384358 -0.10970768634048848 -0.10407877018948528 0.15045272946833443
Ni 8.328350907088751 6.013317934512028 3.1451673301032046 1.2683269892345446 -0.11996818772623209 -0.12888425926893934
Ni 3.6844355274152147 2.3742154751514453 1.2307147661189768 0.6346541896556038 -1.3554161668445688 -0.16341468894564112
Ni 3.6929489112531386 4.2043687179646945 13.501369821505131 2.8604186013921193 0.3142325150628782 0.09215065129333162
Ni 4.098974708168749 5.820257564909754 4.691599674263427 -0.631151575818984 1.160390535861866 -0.3351034449746164
Ni 7.293044933578053 8.04244699365577 0.327224196613843 2.0170430284342746 -0.6750853010874567 1.0215674202126601
Ni 8.839537086362384 6.464975842602811 7.983129921676802 1.6785565259200383 0.6393389967257828 -0.5542804763925422
Ni 0.8992357466056754 0.29068019277388496 0.05570892982767973 1.6220781312173354 -1.1421722130816265 0.011061914241116433
P 8.417493792302754 8.380038641454895 2.2583044926099456 1.2528168094140875 -1.7656187069468692 0.14445074624862864
Ni 3.065238711040895 6.516140251508008 2.7229838595808205 -0.08986468347263232 0.1171255760711144 -0.7650032063955278
P 5.492356783235685 7.7589073898945715 8.5443861989364 -0.2130657763138653 -0.43383560614020766 -1.250198397954634
Ni 8.699239137340701 4.8416950235218605 12.819163685122907 -0.11884075899000823 -0.2464906316312142 -0.28749741306087906
P 9.21345312820982 1.1805755144113879 11.757858715810354 2.7238806822326636 -1.7442533538972154 -0.4966216882284931
P 8.077603250514462 4.443537798715505 8.004794661250303 -0.08968933423703263 -0.7480838049323697 0.1329617717724226
P 6.139981386256509 7.218527125978046 12.411574453392712 -0.8909846901953751 -0.3805818890223897 -0.47094176696388573
Ni 5.389355118404074 2.0981706395988255 3.331742202028728 0.0405475824050592 0.37279196066432574 0.07314248562194499
