# total energy = -340864.9546761813 ev
CRYSTAL
PRIMVEC
9.32365711354650 0.00000000000000 0.00000000000000

0.00000000000000 9.32365711354650 0.00000000000000

0.00000000000000 0.00000000000000 13.64611463538131

PRIMCOORD
 96 1
Ni 4.984156562743213 4.599220066282656 0.9539536794545476 1.8976605380081837 -1.6040423567615474 0.13981324747661728
Ni 2.8835180284808395 0.9076887618290346 2.050506163777978 -2.72241849586484 0.8978055697719505 1.331760732209158
Ni 4.293404121800113 4.9101174037451685 5.686404140209255 -1.2607260369588353 0.5329706591711724 0.32285393818330205
Ni 8.404735872750985 3.504249806525649 4.808849437299964 0.08471270695804765 0.5393598505269679 1.2867391731931452
Ni 2.488773045020415 1.2410999334727049 7.469460275051983 -1.303550074102897 -1.2013559225306343 -1.1843424186917733
Ni 6.663309865716629 3.2258174421938755 3.285493507823769 0.8875995757732261 -0.9549359962363554 -0.7472199142701776
Ni 5.225807100825485 1.1002288022170115 10.465668681977586 0.3833273129780108 -1.1276182265268515 -0.8061596260291793
Ni 9.493347398540399 3.7161858502461578 2.5750215326556525 -0.44384465363677755 0.8332114879406489 1.8522162896324552
Ni 5.649623246325438 3.369467023189075 8.796107557165257 -0.2599382724956878 -1.8578927711919424 -1.2621018342604393
Ni 0.01098606485926159 8.527528433386202 1.839468920577229 -1.0018036073221714 0.9086635955323771 -1.7941787779727485
Ni 6.773245103563997 5.119890359077873 6.2560749115480085 2.1665711892058104 0.2916906252066202 -0.5316424272780522
Ni 3.3155949339445585 2.5072618565420277 14.10967264566902 -1.1031546941678485 0.7348071424281216 -2.8115087630652935
Ni 2.0533489467497072 6.388196723221311 13.236840374951205 -1.7248284124033844 -1.1136016005327851 0.17724002486450766
Ni 8.23797294643956 0.8540488316399335 5.652684202867317 -1.4334949134258665 -0.9558816479790764 -0.25138909737409604
Ni 3.121196688747576 7.887011855518467 11.977604064185591 -0.5613114150973947 0.47233993286299303 -0.4502510713837536
Ni 6.633502134786425 7.813037962118329 10.601598275105971 -0.23870301726599538 -0.10276596491533269 -1.9510384394086917
Ni 5.311612714760633 6.986132160282591 2.479525842162556 -0.09068306560886963 -2.6998084717748085 -0.8054366318202258
Ni 6.372486361439206 8.366686029170703 4.4431606980281195 0.2369197001133274 1.102199786453747 0.21151642954887445
Ni 6.768023855731368 5.173837037577141 9.70614028632487 0.2636427179304685 2.1213100033751657 -0.3584246361990601
Ni 3.763624616268328 9.301093594417532 5.696597694236778 0.4271813340484837 1.088419701950519 -0.3285638440838857
Ni 4.553655355286126 0.6505805330651275 8.259379130187654 1.425121858870823 0.38180676256842633 -0.1016310799799411
Ni 9.045140566736594 6.970375180216264 9.745481456378043 -1.8205184443085423 -0.14774638628076492 0.37836122722198706
Ni 0.5055799541932355 1.7001501781860584 4.272775531032808 -0.18448410802143067 0.2921138287869679 -1.4241085871149604
Ni 1.3660089642115043 1.2930793203778932 11.980032876793448 -0.2991846195908202 -1.2380226818240485 -0.2645955687620411
P 3.3128537788324284 5.912839402687837 7.305624976989567 -0.7691689077374431 0.6285501336403949 0.9014747910934218
P 4.191673701975447 6.646368781231116 13.70438353868374 0.0017928302343646542 0.14213238252809715 -1.2367543566345862
P 4.7937674899891425 0.5020584090032643 0.9000237835375986 -0.34428948234925866 -0.05809433303957092 -1.0855776045160337
P 7.086734417629135 0.47595403457148916 11.398039960569688 -0.450837540014843 0.5677957372701576 0.9459777586018031
P 6.941164163324075 3.70679692780427 0.16776521942215344 -0.40148238662048275 -0.5205784561544067 -0.14354263261206246
P 3.301292444345893 2.8614769037016705 8.441732143107899 1.8663131340451535 -1.0356807196855906 2.6215772587760466
P 5.202964141557734 3.9637009684832933 10.857435689442042 -0.3045379134829336 -0.02879121320007945 1.781426877623719
P 5.6979477597477866 7.938702209061492 8.169846850611966 -0.6662211658286076 0.03535189713673267 1.7603728851668972
Ni 5.645185185667705 2.3244622404589568 12.37388745102527 0.7251454509686415 0.8806413992878381 1.387653686722036
Ni 7.305271610395181 7.343675752935534 6.676252033781758 0.678736781797115 0.8083504630329111 0.16886928430230919
Ni 2.2549077604028662 7.300283453983652 5.863217036232807 -0.8043791370899889 0.2431227436002458 -1.4132816717027854
Ni 4.5131533899558764 2.6009925787945587 6.702466427364291 0.7522981001240334 -0.7946950770330056 -0.3829863846988243
Ni 8.884065071099997 5.733284419186471 3.6575680196680556 -0.03884294100912665 0.18760517014891562 0.14139730413428553
Ni 1.538412702913538 4.203374891314643 0.8103563109376746 -1.2150275064804559 -0.823288315289666 -2.9192379855231727
Ni 5.245163012433587 8.547592942914447 12.488350256636073 2.4012018361746454 -1.177580160267275 1.1101303541547332
Ni 7.778046277982873 8.011809002375138 12.65671591955898 0.030958653165043454 0.2052575931233562 0.6672028130155864
Ni 9.00523531544436 0.17898530806819896 10.451531221105059 -1.68191490086931 0.4455706351889487 -0.3878167162079321
Ni 7.381147529791489 1.8104956569345612 1.2178299507214996 -0.14044111086860328 0.050686470611273994 0.5848768611221604
Ni 7.1955228456846925 3.1485989162120336 10.5770891783602 1.452028967674312 -2.239880025202291 0.48155733769620296
Ni 7.367432430573995 5.107461924504848 1.713406553486829 0.6105652670272002 0.454106954794734 0.8459099093439237
Ni 0.46175410519810767 2.3979513037032065 6.788040814609707 -0.8270860917692013 -0.09739030242571614 -0.385131198955969
Ni 3.9103043857378204 4.742422111749344 9.339974175822611 -1.9999192242697947 1.1808603736804437 0.35598285952678693
Ni 1.8131342518214075 0.11336447883458359 9.771150416035203 1.7786210327438077 -0.8338925731680735 -0.28342272877087316
Ni 6.218021338504989 6.339508587182048 0.011799087736056642 1.8052885147326652 0.8480745210954105 -0.5909711469453564
Ni 2.1992362053874617 4.069002348879203 7.236711964524343 -1.0463258581042625 1.0688780323731655 -0.7164898321761725
Ni 9.085866299831098 4.342698295534236 9.432903995952246 -0.38724695974739115 -0.1482032713125254 -0.09805956057859887
Ni 0.45671653340530527 5.558036965147024 6.05640507077144 -0.22815583787776836 0.7424029524975085 -1.240843439102295
Ni 8.889976269539078 8.126900222457227 4.057972462832775 -0.7567512507993807 0.7741529912155958 0.9050370545233832
Ni 4.590120177202931 4.343490806365974 3.4651445249906283 -0.25168426001701166 0.4035891485508404 -1.181312373616198
Ni 3.5860555716747293 4.534122294197988 12.712119885622963 -0.28772392724938833 -0.5688612024201944 -0.7866709211769484
Ni 0.6980537966176202 7.921826390173887 12.042614193895924 0.3419682904152498 0.8103944900461333 0.06132132461730084
Ni 4.786588274219278 2.3839937894077687 2.059799052554373 1.8385243939676594 -0.3677477133721989 0.443403709444617
P 0.9307620154208317 0.2761182327030978 0.20160916140011634 0.5047430317840469 -1.6518098539538133 -0.5159574124426276
P 2.18042106587631 0.4858995793269626 4.293818092163986 1.2583855617511166 -1.6373247729637608 -0.6316799375186283
P 5.838809567346636 3.613262002345463 5.258775551425798 1.0422426891738246 -2.365656592080184 -1.1129043173554445
P 8.559443310763145 5.533748839068456 7.734985901214635 -1.298249230715274 0.6752516514619918 1.0480037600273178
P 7.697396646282446 6.016042960293851 11.434707105840008 0.4824194285861821 0.8994148232405993 1.0845923577846288
P 1.7669448558163308 6.89298882841123 10.32956287173485 1.2481019204369215 1.9554216560780517 0.577270252419496
P 0.047722205190227046 8.201722568630165 6.118590132458049 0.9787811782850693 -2.8053926228652264 -3.3739568628702923
P 2.648468639444104 3.361961479429671 2.3734002505016387 0.7347742323076571 -0.4018364275257918 1.4636909773932727
Ni 8.645332837609889 2.9638226848780387 12.692987741779117 0.2578896174967752 -1.0998636821214025 -0.0752063101295092
Ni 1.8237911915940765 4.828451493448747 10.625109740569435 0.16178332398980527 -0.8302434064512605 0.4427542487860762
Ni 5.388532883723467 5.815388541354558 7.846147199936986 0.799512810136623 -0.7977356636315421 2.338338363881205
Ni 0.5019334720015549 2.0402492088839153 1.2325128455193992 0.23307667221815342 -1.2544872551379749 -0.7389383909876758
Ni 1.2408388710810734 2.4636924081101093 9.089062449397215 0.7791856685434968 0.13942269690641795 1.5524570284850876
Ni 3.128347933546909 8.259016439936422 7.908605444769124 -1.0759699062229404 -0.9552067333992387 0.11307506015082461
Ni 3.0648911250667816 5.55528648637805 1.5089331647042419 0.3585382789587889 1.7024076215060229 3.0680701486689483
Ni 3.777582130563766 0.7846901483775666 12.411809560506791 -1.7932925187130535 0.904296576812933 0.8839146707224713
Ni 6.5115673505808545 8.757804110118819 1.6762480515008313 1.719272772692478 0.921244260410865 -0.5926683321421212
Ni 3.3567215842833544 2.5700007434451693 10.980386752243607 -0.2068452493254502 1.0386714268827981 -1.3290903844658464
Ni 4.582334923738209 9.065587346195441 3.021262937596746 -0.9075752475642047 0.32027229349905484 1.2468878455241623
Ni -0.08428399313821007 -0.1544072162617834 7.719647553340604 1.5193692447921834 1.8938010550527773 4.422697758173951
Ni 4.781031374740266 1.8408348363048719 4.3435169126051365 2.356561057536819 -0.7601268521398329 -0.06364637320605168
Ni 1.5158214823805745 7.297598240812585 2.954452409749839 0.8695869412458894 -0.8863145384132155 0.14410518998375182
Ni 9.14406456585122 5.175934860367036 13.104104134291882 -1.1575137285347032 1.5011961734275823 -0.5468309620930325
Ni 2.788118371653236 2.4538279791691786 4.927734453351868 -0.4482949760986473 0.14180071022029125 0.5208023992397547
Ni 4.978627634234733 6.119824584624192 11.536465496635207 0.6411961045391795 -0.3698161658654534 -0.17909584712632381
Ni 7.041673184102179 0.3176346118979718 8.232905538944857 -0.7217428530449956 0.49495638471092823 0.3552426389266527
Ni 7.181313592654467 2.6780526026100526 7.045638535357924 0.07711098335138977 -0.2939603950774034 -0.08730360761367545
Ni 4.6726345402721545 7.223997293686208 6.317277259803262 0.8360623271258827 1.7289172377607773 -2.4790815793712593
Ni 1.3976348082262844 6.454842222342081 8.198831302642848 0.19353182004599573 -0.38431744480542196 -0.27866155993680397
Ni 2.4226496706829095 5.261852358184313 4.061711249227211 -0.7472973044753324 -0.36314595293412943 -0.5755836087456926
Ni 4.147330390025479 7.6843155557303415 9.938574389616868 0.5003495307020415 0.24228070731492468 -0.8349027596001428
Ni 2.9985999249060837 8.148866757981644 1.1117286005683764 0.0631357521182203 0.04528586842099298 -0.963023144119864
P 8.573400825058583 1.8325181344000419 8.840280246194983 -0.6391325371419315 1.1221631169495514 -0.21217463195816363
P 1.3211621747919606 3.831967020934701 5.139822472678933 -2.9437971629197754 -0.4136933268643779 0.2735538063965934
P 6.832832594453872 6.364495987523914 3.8986945682356966 0.9255981665041865 -0.8080588999344214 0.23106221289128595
P 1.7012317223799598 3.3343541315146465 12.261416178516342 -0.8237449432111102 1.1385256174679748 0.9721353908337774
P 6.045692189057708 0.3095258275407624 6.237829447470025 -0.815324323247583 1.0722217520344182 -0.23150341419376258
P 3.603378926090844 7.015100762096837 3.7729865001053677 -0.18054337820612779 0.6238527281647255 0.6546290901156339
P 0.30624949452578787 5.93076879479881 1.5109246978061162 -0.1042237804077818 0.6970234959214447 0.6107200474375095
P 7.72432336724786 0.7787397905797384 3.288672874807567 0.3168367854549447 -0.15530465824399706 -0.12177490191766768
