# total energy = -381160.5369904607 ev
CRYSTAL
PRIMVEC
9.35754597067603 0.00000000000000 0.00000000000000
0.00000000000000 9.35754597067603 0.00000000000000
0.00000000000000 0.00000000000000 13.69571440333728
PRIMCOORD
 96 1
Ni 2.6548106269713365 3.8232031632913137 10.900637948863285 -0.8543163882400642 -0.9533141443622163 1.2774382075071935
Ni 7.472561839194632 8.35612003642519 11.185577092466575 -0.16921535478781827 -1.4483098669515122 -0.012913879848190661
Ni 7.388325211168647 6.583707270995097 4.137448269086538 -0.6643280625709527 -0.8136070834461601 -2.644062584362756
Ni 3.2354089187398576 4.103555237903454 4.249903512473015 1.1737615578521334 -0.6837743442210225 0.7241668891054561
Ni 4.9064513896347925 8.739283467638252 11.881182430383479 1.5882557833512518 -0.04130117274163209 0.07474659688427128
Ni 9.07421810737765 0.21722045556747224 1.944558858240582 1.7155297607102775 0.3767923400729704 -1.9667221686925356
Ni 0.7733534436286019 7.326761916813731 5.19260701420269 -0.00523682291890711 0.6242980432322603 2.1073663967108804
Ni 1.039398766342395 2.5698441103665886 1.1441499422045673 -0.15345963461545828 -0.21016505772730257 -1.5559408732686302
Ni 1.2993701060244542 5.603887999280723 9.754416246000533 0.7680481638694385 -0.6656647791045052 0.3663873426895625
Ni 0.10556060358092917 7.319060656553191 13.481965639535746 -0.16472158068252274 1.0377635703565482 -1.6473597886022597
Ni 1.2142632262314828 7.390580379726108 1.9030328768818938 -0.3513368761143433 0.006025123148157365 0.3655681892223768
Ni 5.8535379658554 3.152426201862005 10.31629663874213 -0.7624022784375708 0.6038785990356439 0.13247891859873315
Ni 6.255032829450477 2.0585010156676424 5.616872529946003 -1.6701695874079237 -0.7512640024325642 -1.57170456386079
Ni 1.5633464753438298 1.0475679038970145 8.79893501536956 -1.7655138059378883 0.18446868140246295 -0.11705821316828871
Ni 3.8289954841920117 7.011534268700941 11.041745061984571 -0.7838234244258243 -2.067374172588659 0.5295950578307201
Ni 3.004174602460131 7.047663753349722 6.0152532022716905 1.2763508879802858 0.8176673695584628 -0.07193432424645677
Ni 2.6133379836241737 3.551113801692608 8.53353910633995 -0.46974671821452 0.473321580049972 0.14346575662754002
Ni 8.747228024091713 5.820009878961699 11.4301421686092 0.0553836189766272 0.23605272412734185 0.6332668223897739
Ni 8.083618942807696 7.010795022576296 1.8093816219444516 2.6105251147269426 1.4278328300440828 -1.0614894532185783
Ni 8.361818781867074 2.01892795413444 13.452998420504727 -1.192467876012385 0.5911382686508401 0.42634881084485926
Ni 2.692989414168183 3.9469099198458033 13.481253530294158 -0.09502283063480409 -0.43571945342648183 -0.16889679510613492
Ni 6.7728607034453585 7.2753234871026855 8.090565049115591 1.065819705162816 -1.9730681655152211 0.9304884047169523
Ni 2.2665660483445764 2.7352574489152808 6.329460877883389 2.319445897852076 -0.19468598825509698 0.6001859806754051
Ni 1.4560996419950398 5.64011105938832 7.045883012368457 0.018967542241438304 1.360312832815238 2.4868799923697558
P 6.371085113473834 4.937930173980429 8.86630373118941 -1.1106548591996355 -0.7661835998568741 -0.6324083310442206
Ni 0.7103659307905098 0.5560927506138389 12.946024363977891 0.8726974618504131 -0.5258235066034298 1.2130631836652332
P 6.992201578909596 1.0632605083404243 1.9923431662848707 -0.05659743677907027 0.6293852279471805 -0.5745052880798492
Ni 2.8320425459684637 8.496558085015945 3.724617674410514 -0.9749381503898951 -0.385063321832511 1.5749485247193844
P 4.3734923639493966 7.981528117239656 7.3591455758461155 1.0413564299141291 0.6664960167565489 0.8088515710390457
P 4.84123865238606 2.557407931889969 12.258253163473045 0.11308303057062462 1.2908413682869768 -0.9240567901589957
P 8.26740114392193 4.414965007296559 1.177452512242523 0.9776555493210581 -0.4783861390570729 1.7835670638951735
Ni 3.524903315678302 0.7434682493465995 7.893360384188821 0.8347598062643753 -1.2527671871230748 -0.6820830725615286
Ni 2.3035938573979893 1.2712413231044242 11.122385585128264 -0.268484362293486 0.5042660921476283 -0.6885087735822142
Ni 7.911383953311331 0.45853565602542523 3.802135584493524 -1.4938425612759885 1.0285003998870672 2.341341412373587
Ni 6.451185706220159 9.197007824435746 7.039446892311107 -1.341691875279941 1.467736608217556 -0.5827965815543641
Ni 4.49835009864732 7.183572749733792 3.300516851474716 1.5319699642753295 -2.388974440870518 0.6520752133455285
Ni 4.161338083722211 5.05039851793114 9.939952051212977 1.6541433871829962 -0.9276437361793056 -1.367945152549515
Ni 1.980309362281159 4.357266379390737 2.1694422081304805 1.6996490849242794 -0.010687818731149335 2.323882336356875
Ni 6.4363820686355 1.0104558769306675 11.839342035483169 1.0101938882683958 1.811398741395461 -0.13563957571490187
Ni 5.386137906616354 8.199334355179316 9.661833622802767 -0.05208129407627159 -1.172943175715896 -1.0549449672318412
Ni 9.365874097414741 5.439663069058992 3.284753129682606 -0.44548450323304567 -0.6552782936638586 -0.27302981557232336
Ni 0.7531158791505086 4.311199181015717 5.589481121641442 -0.017626969053143836 -1.110413689723107 -4.922532296912786
Ni 7.258882278988749 4.241794263212038 4.1913542836465565 -0.1180516874298096 0.2514937412727604 1.1380761886353818
Ni 6.139064763340055 6.078727307495626 10.730482206061806 1.0974735846226713 0.17768045483603592 0.6559488373683219
Ni 8.460597036193032 5.578136033014615 9.120770026629335 -0.9248036956273491 -0.44690555195028836 -1.005485684159449
Ni 8.1695212140006 1.564871755322527 6.770681331009538 0.1895149855771188 -0.3451091500370766 -0.3299293569728447
Ni 5.161463229999615 9.32749880175438 0.4033616939984524 -0.48540705045959626 -2.0331746438888145 0.3386438540277071
Ni 9.070961681410859 2.696124192038513 3.074564869845141 -0.3138360509554079 0.3510309148381503 0.9038376348986434
Ni 7.675480221636697 8.902198341436563 0.2530682780852176 -1.1751882629963308 0.20312486305106955 -1.4729253515073473
Ni 5.300375998611672 9.075659169443414 4.65930924535638 0.17527184539454332 0.6938114167420503 0.5486603019922873
Ni 7.214770807702981 5.0517740771757325 13.207420857897715 -0.35614972412195434 0.24630679775518227 -1.162321691446308
Ni 3.307929899322103 8.049211246601125 1.5337691443213313 0.009085250130719836 1.3028080537305498 -1.9554049439075034
Ni 0.5847333912935913 8.159686433279061 9.842397763888327 -0.9404863964699288 -0.6950450320388352 0.6494539736725976
Ni 0.8939778245696988 5.373870163965602 0.6842162688244341 -2.9421544851100294 -1.3420392313170306 -0.7212833969100739
Ni 3.755819475398055 2.708597800698659 1.6637276772793042 -0.5748493016828293 0.8231846998322663 0.08470062277318961
Ni 3.346744999638898 1.4181454358993506 13.17960461701013 -0.5485266046279004 0.41005547300147444 1.4165636848881669
P 6.649706042097882 7.16425877503421 12.918331642695941 0.29040018852997085 0.6577393536098414 -0.5751128397568611
Ni 8.107499399897488 3.2442143694144243 11.25019375404265 -1.594142581149332 0.39052948715340485 -1.3085436706627465
P 4.255708933937948 2.0227926205835325 4.280116220860873 0.5796618925801242 0.018708117932464557 0.4648701068485091
Ni 6.062080233372294 6.8464858744416315 5.900319144981183 -1.359819181008271 1.4060535293854621 1.5818028286370565
P 5.21112372599316 5.527923441814056 4.596638017569085 -0.32756805582951976 -1.8502601943473487 -0.7654870880104816
P 0.8284029502953497 2.647240372353138 9.843877191892204 -0.3702869348542849 1.869543210946677 1.2840950507020787
P 0.5705557735284091 2.095818908643384 5.342054507968229 -1.9861034014326244 3.340686273742621 -2.786374944112143
Ni 8.029317104056886 8.144517851405018 5.425050325410317 -0.05984396874082596 2.1346167477864006 2.564313649167887
Ni 5.366655496090904 4.275518858569252 0.7778675237618762 -1.867791775473209 0.044216289505898045 -0.835823214531883
Ni 2.1624165626825897 6.160353180220649 4.070476313212068 1.403735422775247 -1.4647327883942258 -2.0700782017833834
Ni 2.8106886262666984 8.617869309824751 9.891482770810155 0.7422489434181475 1.3098330788981312 -0.3042599772311986
Ni 5.977029498854613 3.162775647607033 2.6635702256710836 0.1097591084037142 -1.6209843839325246 0.6214968263380394
Ni 6.440639752011618 5.778761816715693 2.0540833182569487 -2.238148644333481 -1.701040565955167 0.8960883299705278
Ni 4.49616043291103 5.119522709358372 12.493381154594097 0.16521240427601225 -1.7897569947559693 -2.4258468884168347
Ni 4.605157127339676 6.884533655996136 0.09202678497239981 2.527337329053854 0.8269837618633822 0.3853656835642782
Ni 4.837869935868691 0.9146608082317553 9.792477128119273 -0.11701399019391459 2.0537696944313466 0.5308937220374856
Ni 6.235260335002698 8.466117988263166 2.4831558053196305 0.14034520872068734 -0.11882738925356955 -0.281698804101231
Ni 8.920791785103262 0.7666019742750418 10.952927915249553 0.10887362047496735 1.375746907982121 -0.652279873157167
Ni 0.15949094776023995 3.506319229557484 7.542448670611213 -0.12912928540020988 -0.7300035503918911 2.176931706504528
Ni 1.6265754128656666 8.372140154974456 7.741118727223041 0.6744692647700126 -2.5175637946068576 -0.48310077092392284
Ni 7.240578919244379 1.8047992317262418 8.966775701319936 -0.39925915371691884 0.1397055182541594 0.2945790024980088
Ni 4.681926433752159 2.6312951141709253 7.673147385448418 1.1437812094399593 0.8326301615158822 0.1125929783080835
Ni 0.7800001084682884 0.48257051262226375 6.359125234082586 -0.07228168028354648 -2.6470013552761062 1.332738522741395
Ni 0.6787926352314702 3.043307859336899 12.103984662069315 2.2926573169043225 -0.35477778347509226 1.0473314165506415
Ni 3.0605912465801772 0.5426646722737715 5.6118737289360645 0.7553080905949507 -0.13958441929526283 -0.6095771920823179
Ni 4.066798797680607 0.6485424966600862 2.5594824998119154 0.38720505076586215 0.20527893327959482 0.14056323826876438
Ni 2.429452849505242 6.505506260062733 13.280501419723679 0.14189969769200078 -0.06395362003382535 -0.8189752897366088
Ni 2.795445184025604 8.652894604059505 12.376584009918565 -1.98091954323884 -0.3542620201809383 0.8217207136922299
Ni 4.436927167480628 5.27206006477401 7.068851108734796 0.4184632374491954 -0.6901936174838049 0.2737913763286962
Ni 1.0417100801751453 0.39731204058601083 3.9572808879463577 -0.37920352061762436 1.038374978688302 -0.23094548480776356
Ni 8.387645608500234 5.641458545995268 6.049164012791949 -0.6674326696382054 0.6505880872770408 1.6220526772960386
Ni 8.51867932348 9.276734115346807 8.531307331647193 -0.483481037081477 -0.05783979382660361 -1.0505275548904358
P 3.570296770749847 5.830396754890252 1.768965445527319 -0.11002033248490085 -0.5651297604022203 -0.31445054461095523
Ni 5.8632417409345985 1.9836219335232383 0.43010836739177294 0.5298344275350358 2.0564606109999484 -0.027728062042887726
P 9.01553693715426 7.217690362018033 7.769414074459762 0.4618565168331659 -0.041184958878741976 -0.5043098009013702
Ni 3.0803543834820744 6.573769557268859 8.681713038111006 0.6297791209514896 0.9084939027237321 -1.246661588445969
P 1.2821335065105834 7.009737619891678 11.416377218617395 0.6177317028686523 -0.3896326863707483 1.6026938131534527
P 1.8519238327858794 0.7059164177238184 1.6631531239621753 1.3634698903869809 -0.9863916436424753 0.1667023585579774
P 9.203801402745773 7.911870545697174 3.4320502594045585 -1.3099289810460473 -0.10927985477445051 0.27705899133637446
Ni 7.1077953431847565 3.5380132374583955 7.082615122972012 -0.5879809539687809 2.1094546466984765 1.1659842278995598
