# total energy = -340887.9223450033 ev
CRYSTAL
PRIMVEC
9.11258718278005 0.00000000000000 0.00000000000000
0.00000000000000 9.11258718278005 0.00000000000000
0.00000000000000 0.00000000000000 13.33719245643121
PRIMCOORD
 96 1
Ni 6.307149589161896 1.9268109806170133 11.287012593476733 0.29706860168908195 0.19903398081114757 0.6554819250342324
Ni 4.805577485843911 0.47760800413819593 5.9654057024798215 0.2868898613838672 0.23843999341259584 -0.43626221330382936
Ni 3.0864241401972228 2.0334009119952783 4.611027396166779 0.4597417844830082 -1.781831055040673 1.1436282288018629
Ni 3.550482638567586 4.453057053650342 4.67329917141398 -1.3642170529656505 0.9804056012623695 0.8515349688401851
Ni 3.9552273074653383 2.831517741082561 2.4798238205395013 -0.33188236693415746 -0.7869935946236898 -0.5885612519522831
Ni 5.013408259969249 4.8064705193802935 2.865108559672503 1.7030928204985056 0.41483361111640815 -2.231578447315131
Ni 5.267904592664144 4.759595371307301 11.474173286269652 -0.712885916874998 0.4861894371515756 0.6491775800827594
Ni 5.71920546908618 8.179157470923743 12.683736180812401 -0.638999353998177 0.03760186951317395 -0.40604120963575874
Ni 2.0606657726162725 6.4508368626484724 0.2941433766754497 -0.022054922917510406 0.6151294893591149 0.9140873376511096
Ni 2.3997086884801453 1.2315023592590275 0.428102963426427 1.757414830979838 0.3985081344835072 -1.2544306908684266
Ni 8.83864451236825 0.1989004387615103 6.035893386261743 0.5543923193800582 -0.5110044393127264 0.5296148553250621
Ni 8.895543506257784 2.403508637303325 1.024055225050849 -0.37272665464402904 -1.1988544962650192 0.6999689517030139
Ni 7.043182362296361 0.8410152441472399 4.623404111974078 0.40934224898453364 0.47777678760784814 -0.12235417145990542
Ni 0.24379633291509117 7.359507598505107 2.1708415070207274 0.7746715827232271 -0.8833536560126786 -1.4682505717394974
Ni 7.941091132780872 3.810346285067883 3.68054477181335 0.8582527471799929 1.410209717645681 0.7805660938307912
Ni 7.93895878739808 4.097392778905221 12.416099497510729 -0.5775322478316312 -1.2545934416985363 0.07583340219054682
Ni 7.922291865581302 7.666173492381549 8.834449077264672 0.1288346369779265 -0.6290347865862973 0.08212206341273598
Ni 6.923461192898426 1.0268427654465584 0.24787148186887076 -0.04912966764711539 -0.050608309075170894 -0.7075897014730653
Ni 2.0369821587279158 6.621151115658626 9.340782689736946 -1.1893018195795775 -0.29458208782180234 -0.9029120377605804
Ni 0.1536591775566141 4.595751055142369 0.9868813372108479 0.7218528962602988 2.803293317134037 1.2959095268385037
Ni 6.727166954049216 2.1561201225510698 6.63298563253312 -0.6601975853423468 -0.38259429146672813 0.9922897542944652
Ni 3.564652711517334 4.379135747046898 0.14946738748787836 0.03128672592842354 -0.46269752467722247 0.4219622517413894
Ni 6.015291649332618 5.858937879768776 4.673138789880916 0.7358330125894748 0.5286864299735217 0.989167920836032
Ni 5.4870714251492805 2.9618095115233944 9.138084124669678 -1.2213912439149546 -0.42073892085724957 -0.6531900436762621
P 0.43582223596387487 5.761943502613073 12.398894021795991 -0.43256625250948083 -2.044840510262517 0.2785013802098558
P 4.159030318089848 6.3459509850590194 12.806318702561603 0.3439210432662464 0.588465092694051 -0.7349889194216245
P 2.2022115881329505 8.469530059054753 1.5150250156624954 -0.8539116966024778 -0.589948619218113 -0.42893816883859026
P 6.848920230371777 8.088724156484322 6.257303737692365 0.009724940597247768 0.4583495321211719 -1.3160273806343012
P 4.649323954738234 1.1252040306681528 12.849957970953273 0.07465120895698757 0.11958329358298761 -0.8007831922086145
P 4.0683418512114615 6.204377831781023 7.985083969552253 1.0570373309844956 1.413370888982482 0.5806705363502968
P 4.981368403704739 1.1944779178475637 3.6985767591785983 0.14751010190024275 0.9831489683354617 1.0151126657262517
P 0.25913737330795333 5.820993067059611 3.6484420386978083 -0.06547776998783561 -0.7540477358252885 0.016052425477172356
Ni 0.9299030638134916 8.89856888517696 3.7272914324081485 -1.3898182984735226 -0.7198065552542313 2.3240944523676816
Ni 1.936561448820377 6.803348182254935 4.834252063690195 0.4305147692970908 -0.47151023787284607 -1.1574504793969356
Ni 6.202227261224019 5.677424257205413 8.96109945789797 -0.8870303335333175 -0.30501511022966826 1.3144703205598265
Ni 8.623988410500557 2.2829673350658553 10.090586404505917 1.0532346694089538 1.0199098300045788 0.019452709407972953
Ni 2.4376352760150977 5.328393945873422 7.0702057393590465 -0.3648094566794814 -0.21454647462444984 -0.8448817251897256
Ni 0.631116824007562 0.03735887335825189 8.889839026729462 -0.04705992960228024 0.6663592340683685 0.2819780259045466
Ni 1.4058717135313277 0.9411844466506544 11.403992696673198 0.5629111554843467 0.8262777369352932 -0.9680820467000103
Ni 4.204930419342505 7.283444833931766 1.566266915476658 0.16341905982101532 -0.7466337027494044 -0.14271319473223162
Ni 5.6103556161056405 7.836578871262763 8.117108954060638 -0.9047676029120806 1.2002647463489846 -0.6431635126781955
Ni 5.514764577364254 3.287994566980776 4.691651010586647 0.8523325250408159 -1.167092373362074 -0.16258525106581032
Ni 1.006011391322363 7.300895438239654 6.915640770644102 -0.9563513885266433 0.173217791078992 0.9196427202517001
Ni 5.158289282366704 4.845335703387159 6.653845255677344 -1.0586131601120479 0.05698953001116636 1.021431408855428
Ni 1.0112329037340708 7.545759766363562 11.52804234494646 -0.11238600450359999 0.6441107070828133 -0.585573630078869
Ni 4.589080641380816 0.10230337040362725 10.154205020127376 -0.20139733883700156 0.7873949438271665 0.28626354065377796
Ni 8.062261203528653 7.5712932354344264 4.401513527202972 0.11006249857674592 -0.26953825747929705 0.6939052620074372
Ni 7.314664557356741 6.068764310470317 6.947170322030679 1.2062947545931482 0.621322505543704 -0.33800210667865016
Ni 2.6993396651107964 5.067263649765398 2.3228321698782426 -1.0156595393686574 1.09591960987199 0.7165733930289142
Ni 2.671555387024763 5.20032564668644 11.45524826536802 -1.0108209803294332 0.6449087775040765 0.16326247963849302
Ni 1.400258359874064 3.386847911906092 3.741269229769961 -1.2128716364797176 1.6058570413727826 0.21723327742799362
Ni 1.7962002696274717 1.416533440445286 2.5699837573657436 0.028335099499267328 1.0954416417943071 -0.4305682482428456
Ni 0.9191137606800501 3.7996025448699715 8.388360600667237 1.4130459015428953 -0.7285526768779775 -0.7342666965436192
Ni 4.1905963198248495 2.699312327349478 6.806543055294281 -0.790465098112058 -0.14269056902441232 0.6716749898543272
Ni 4.233926671513628 7.377003765748526 5.77281664154789 -0.268128521615964 -1.2777845351030188 0.8604284146750731
Ni 0.3196558867959701 0.11819572231639923 0.02647753309504029 0.5029373460338757 -0.18619543428558255 0.5290870078460501
P 0.017805083946310307 5.875449887604751 8.405458547854126 0.3200604345985649 -0.3475740666378014 -0.5811297353749024
P 8.624863218862728 1.6338413051608098 7.660376064464745 0.3635005080600707 0.3194053175130693 1.5333892132203593
P 1.9132696761775758 3.309518497725023 10.528086267755997 0.6123719812186357 -0.7471875183703454 -1.6459389969953333
P 3.9968900557137292 6.484015792301226 3.7807203531277382 -0.10330435391730594 0.5860027471964876 -0.543832798696657
P 6.8751735938240115 4.033012351001704 10.380056846513437 1.4596291486190733 -0.2615454690818076 0.0008358656377340444
P 6.385782103299115 7.930948823331953 10.447609365988535 0.046100136792172224 -0.40123427516541865 -0.5210258281044704
P 2.3654453609617834 8.854463963584175 5.7223356427570735 -0.4849725340253389 0.36402038511928275 -0.01384024831720197
P 7.010723327024976 4.199672456582373 1.5612650164142035 -0.01863201327889049 -0.8038834284004931 -0.7693532558341073
Ni 5.418280505086486 3.036368699224255 0.36252240780105655 0.8959199227134634 -0.14754866844766204 0.032024118315080334
Ni 1.7422173036118402 1.5860093354416926 7.107990170535146 -0.742131958224309 -0.7768421080119847 -1.4006236166191426
Ni 7.040457698751682 0.9159790307156043 9.146459503478754 -0.9774496039578392 -0.8163987872586843 -1.0426126709187336
Ni 2.8858014224726887 1.929480968639056 9.019316131883024 0.8453900322847117 0.10778810072027244 1.6500247370289325
Ni 6.691427387419691 2.237213035206894 2.6130762705310575 -0.7691753354953463 -0.3945180394875077 -1.2726806382175502
Ni 4.258202603563872 6.707374414855099 10.192615486037656 0.8102170839280046 1.1202057361128643 0.8175897222429921
Ni 8.258892608100782 7.243358563252703 13.212143213031409 -0.3068387937019683 0.817679967963953 0.6876315131835835
Ni 7.654272453621182 3.8519452452065326 8.338079167534042 0.32867414440950493 -0.14843724170020242 -0.9547357073000912
Ni 3.0863330143261636 8.45417534978123 12.505338151780562 1.1898736329226478 -0.28301675158170614 -0.46182206405080456
Ni 9.36573477575045 4.849673294849589 10.414773069610964 0.10829255116051673 -0.09039304517227657 0.0464588056831716
Ni 8.928521958994208 2.6677098752660537 5.686299005787895 0.02000961035270747 -0.3929954321953941 -0.233151748430463
Ni 3.992643590122358 2.7639114573435384 11.407873747521622 -1.1189865189937827 -0.7408276375905886 0.1219098848336352
Ni 1.4478625149155326 3.0335437972214114 12.599618800496112 -0.8282310040069221 1.1788423148091505 -0.4330038542675317
Ni 2.8664098371112328 8.633866454923405 8.012411707024278 1.5873677243193436 -0.20993725798721263 -0.6531771881604558
Ni 5.712762870002276 8.240649208714675 3.698777236094929 -0.28035180315503333 -1.4640596735866012 -0.7386776811271214
Ni 3.1952010924809153 8.744866878460948 3.40425204201974 1.783276015017316 -0.5088202871772141 1.1554663590873713
Ni 3.436064994865313 4.602658396168677 9.295983389006688 0.5383848882082084 -1.9191647306285464 -0.2916775125804977
Ni 7.47021641925526 6.0999658087210795 11.23072961047556 -0.6686138344305002 1.3154658517038762 -0.8919426832332704
Ni 8.133084230516074 0.2502216180834946 2.0646908023409694 -0.28250253094944894 -0.44730407294028773 1.0761653100631983
Ni 4.969348901311995 0.5430345570414759 1.687941823550108 -0.05114592674619579 -0.3641242576869987 -1.1465598006263609
Ni 6.332956435845939 5.920511630843661 0.14188662627444085 -0.9778100726210514 -1.2181768507427149 1.118165308644068
Ni 8.191049397097004 9.04903592347036 11.09990475368903 -0.4913403852248958 -0.746726776683843 0.1480009254937322
Ni 0.4233680631661768 4.954322245174287 5.649861414986054 -0.4230068909558199 0.7399722315688289 0.37936884255089504
Ni 7.308850726783146 6.0171506171022315 2.670879233061502 -0.03090208889549517 0.5762001592837689 -0.8578655390439032
P 8.896974182433418 1.7583374702022607 3.445183049523523 -0.5586868329903539 0.18298258377523968 1.030903095791289
P 2.0234590794626897 3.277578879918678 1.371370547489501 -0.2394265256955812 -0.1406822803451319 0.2991910473487234
P 5.090774124498741 0.9838131291322756 8.051542978574636 -0.7648445693304763 1.0356948607529775 0.6829017118080819
P 8.484019072553208 1.7955532759429493 12.202530527284775 -0.02316538237286978 0.1741503301955904 0.9970432098190505
P 6.678669765471365 7.78797233163964 1.4116755202591054 -0.5327004362289214 0.5144607732924431 0.37453953948305174
P 2.062634091431157 3.4245831351118188 6.091949465843978 -0.05433100934239675 0.24262214981474348 -0.5593064688522238
P 7.089765907581963 4.18848219961627 5.985744996900295 1.2541234440406528 -0.45428873178823703 -1.0230879706222444
P 2.425005230286255 8.571618372402678 10.187974445424597 0.6032065126692837 0.2342848335936417 -0.047548182092608436
