# total energy = -340872.6585727016 ev
CRYSTAL
PRIMVEC
9.17495534040820 0.00000000000000 0.00000000000000

0.00000000000000 9.17495534040820 0.00000000000000

0.00000000000000 0.00000000000000 13.42847455938209

PRIMCOORD
 96 1
Ni 7.465514411765708 5.654011217086913 4.9760820198526075 0.22272772488366158 0.5017458968289359 0.5459125640438212
Ni 8.091686768078707 7.792473122490858 6.450206506955582 -0.6465244587306285 -0.19833412653064553 -1.095261407462701
Ni 7.061394326105142 7.9702470583706 12.494980909628035 -0.2927308935456765 -1.1359637702780694 -0.9222513615191407
Ni 1.480966251346653 3.1488997438864 7.258882488658336 1.6738521784658333 0.7314752498414112 0.5784601589625392
Ni 0.16496111066008615 2.339852176489843 5.600855195466718 -1.744248211690893 -0.5447375698991135 -0.8974792967807834
Ni 1.6082962824231946 8.323418616680826 0.899287841258304 1.496436804365726 0.38526515343067197 -1.8766039744482004
Ni 1.7999335759161847 0.5838225971659242 5.2189229044561305 1.3945288165753145 -0.41742014089666174 -0.366768123067749
Ni 5.082622519482519 4.79374904863334 5.149216180785283 -0.13142785162639944 -0.16041266889452374 -1.1518156497086616
Ni 2.6205691119861583 3.517136578967607 1.2666438806208662 0.012628744507604057 -0.3158080870801142 2.0244953709472617
Ni 2.5254615242833602 5.964950455679216 3.5022667287467 0.8418501374522535 -1.655090067366982 0.3887024612469951
Ni 9.13558566891425 5.418370837483309 6.770099584525231 0.5087747786512592 0.6650055482539515 0.9350544268210799
Ni 2.5695196601263888 3.5936190072032352 10.473525375481683 -0.19310835935533194 0.5800781541819364 1.05126777549057
Ni 5.981960822995537 0.7123985871861315 11.371715892073844 -0.5488986432553385 -0.9455794947221199 0.5343755099384991
Ni 0.860384195360426 8.135139356865167 10.774578599627745 -1.232981005635083 -0.19961145058117238 1.8350809155037493
Ni 2.3732673640659177 0.5004139950969135 11.931938668953338 -2.115626579837144 0.4137398638315971 -0.04755101030608584
Ni 0.04855478148581674 3.454508333389824 9.968829428698402 0.9661627181901102 0.4469045235090239 1.434115320618685
Ni 6.137540541756519 5.493366922943724 11.542216840805988 -0.6958238191863887 0.6156408817778946 1.8226630014553706
Ni 7.559979752590328 5.571730217036875 0.6572121479353541 -0.7236706661953278 0.06323602514151044 -0.15785442124904425
Ni 8.570546040448418 0.13766837082413086 4.340055761437275 0.2258726982705465 1.4583176288965014 0.4613893473887602
Ni 8.218906699690418 6.23507031768559 10.727296384456261 0.17088014408475086 1.945994963447513 -0.8400711911749595
Ni 7.002977385057128 4.547392321119562 3.0110130091236886 -1.9545942750807497 0.8486401637908932 -0.5024709479204185
Ni 3.2596414555951374 8.367788701007541 6.9218817892450994 -1.6345608370653784 1.2268448108303582 -0.5243062986279551
Ni 7.326568887149543 2.450658112886398 3.8432291739027566 2.1636774125977833 -0.5887628264401279 0.24931601689515126
Ni 8.514643037180702 8.216695535438404 1.5384060596442959 -0.9289030625077035 0.4916242350139016 0.5985340468942789
P 8.104045433005938 4.813603652124451 12.171649976269052 1.8252022229374565 -2.260850971027003 0.9077613954330818
P 0.13379011717547443 -0.04447834880046529 12.9217246003202 0.6134611005177564 0.18582211010656383 -1.086693977508664
P 6.3845119912822685 7.640994608794815 10.272675509268996 -0.6479969295110969 0.09476289210519809 1.4278384864710378
P 6.955964913574479 1.5734131019827124 9.786175334040045 0.8243175278851288 0.9699818348258844 -1.282502252293662
P 3.005522715810805 7.919757278790387 3.8518508794945294 -0.4725281376143991 1.3977102996270896 -0.1603879863041754
P 1.7961076195133228 2.0961194862211934 9.19842493846629 0.6341443398987207 -0.1129966415044054 -0.9920339295299172
P 4.793996772429209 3.827828093764042 10.584122122895062 -0.4076008408133948 0.4660065344457974 0.7558117697042467
P 7.392674440824892 3.6492192369426677 5.86491316443863 -0.46280525389968036 0.11268913756631561 -0.6348634774529324
Ni -0.06746803455262625 6.949212146398204 12.850311334944477 2.127380377938962 -0.8952221253154904 -0.10147964200374138
Ni 4.899343610361249 9.039652335225222 9.120768115939136 1.8894528053864106 -1.007918719080974 -0.7256866681840921
Ni 3.619886904520726 1.4570746674784218 0.16094431518485128 1.565512061896833 -0.2733033809486841 1.3224541100962515
Ni 4.590743985396595 7.1358123893751975 5.093380154692005 -0.15059182614935998 1.3151454922499801 -0.6100703296686525
Ni 5.687995251897945 9.15324745806415 0.4373664540572343 -0.9387102784061123 -0.35336676206017853 1.5398187708957867
Ni 6.641731865992662 3.088932235375356 11.93270386023391 -0.38880479115281424 -0.5579867215995358 1.4901550851220724
Ni 1.4403211989133717 5.801379350762616 10.477675207810256 0.39887477379430664 0.44790056887370605 1.3259415544242197
Ni 2.3785888381993945 9.037239321954353 9.420235907791636 -0.5794626320851246 1.0538023689869658 -0.5687768702365043
Ni 4.144942077342259 3.566314339925257 8.456770170988058 -0.4801614857899408 -0.23964018436828405 -0.4256610407492153
Ni 0.2520314374302532 7.038649611662229 4.050819879849695 0.870897946747829 0.1008702905545166 1.1128330977978769
Ni 5.933526233425494 8.986969741303799 6.334520411780413 -0.6568451239303462 -0.7477691019054283 -0.76805536295829
Ni 2.335163774279142 6.000356608577643 5.823029493026005 -1.3761438863102236 -0.18886963868363602 -0.1895106147017446
Ni 3.9339639778607003 4.177568218753715 12.645339161269426 -0.3748105337562513 -1.264148689487139 -0.5029535439837919
Ni 9.18743334189404 1.1794129921311547 9.850175235450509 -0.6047736000460875 -1.87547628860166 0.08107588153640875
Ni 0.6647567137628682 1.9184556498062815 0.9866783739720197 0.6273550848910292 -1.0361247492015446 0.6231292197351397
Ni 9.100693313518365 2.7184567111759277 12.347966011735329 0.2879270443991299 0.46504185653968294 -1.0543880662871066
Ni 3.4246255036437296 1.8509463279543437 2.9780464768667985 -1.444899812828699 -0.45174719631330584 -0.4092903127006758
Ni 5.4330507661273835 2.421279905687444 5.116691881378795 -0.41715917392579116 0.1886413247229138 -0.03369636381118068
Ni 5.546627539055507 2.255048063704105 2.4027437432876795 0.10487195551474196 1.032564285543796 -0.5902833768497124
Ni 5.126992603809235 0.14702407284810762 3.5760297002010133 -0.9226344558901725 -0.07110411503567755 0.23988983848524492
Ni 4.048182997667003 1.6640066116274572 10.449501672255655 -0.842003375200666 0.7356293812191008 -0.3148678346540319
Ni 8.24021094613513 3.382906981428351 7.846096149341042 -0.21336530983215513 -0.39700223936194207 -0.5258404758842943
Ni 0.2782286875911444 7.8859292182211975 8.436412779940888 0.6719896928812685 -0.9838395666445829 0.23154738005782058
Ni 5.162995128808827 5.737833609644579 9.413588652602492 -0.3274158465223716 0.8753053317869054 -0.37198257738915286
P 2.180418976459791 2.6760500673053573 12.721814249540733 -1.3527345062473477 0.48798483848910157 -1.4127581950991475
P 7.0763128035896825 0.5517386956187591 2.4217579208639166 0.2941902517000224 -0.10188099120721808 1.1756310069607043
P 2.2308995810846026 6.44645211520486 12.987322778961786 -0.4001834653034011 0.4598271451079629 -1.376232846479604
P 8.412011986047816 6.157817193196147 2.471322864939554 -0.38970801969337404 0.37973239653790086 1.0579647278947717
P 1.0099515658461193 7.8333842486308125 6.126929705833475 1.1357483118331535 -0.14359456889592045 0.6176044332621685
P 4.161897394926165 0.9086738206351092 5.786772821761761 -1.7112732994267688 -0.24666520953586552 0.0809792080575444
P 5.704785420284606 2.101514359997891 0.21741616568752548 -0.4588953773223129 1.9471319052654337 -0.2333152705915208
P 1.0947740285426626 2.1134418020212014 3.2143878230631566 -0.4021562727590558 0.8773768696039534 0.5630911327056366
Ni 0.03597500013338512 4.144887027609844 2.5376054952541707 1.8342733320007893 -1.3384754252251723 -1.039484666812713
Ni 1.229168775279165 4.609736143079867 13.230189353440437 -1.4072953722123636 -0.0910342783007013 -1.2279974363775625
Ni 0.639532926370187 4.435595489539532 4.695037538448423 -0.16623416067230726 1.0552869239522922 0.5291628553893081
Ni 7.630296610795446 2.9425182970615174 1.3135976323889387 -0.6226054860211859 -0.17794527846164837 -0.9506134576016015
Ni 7.298741247413619 9.112666630318687 8.309915834814898 0.45601265645787914 0.40988783707535864 1.579852389778905
Ni 7.241195927128848 6.70323159205593 8.587388506080872 0.6132207023721762 -0.6895415857221028 -1.4627178148467261
Ni 6.8429019381488985 3.7915686700131777 9.840399320469096 -0.012619745646539556 0.5957968504687738 -2.7832453973442264
Ni 7.540400397761293 1.1384651661695893 13.10392178219951 1.7852897030132349 -0.7791738414689547 0.5168652689688775
Ni 3.484886610727656 5.7957000533684395 1.2634464086630788 1.3190836509621218 0.49213279921920405 -0.36995654809805967
Ni 6.1220715669478265 1.9615228904658353 7.571698923126 -0.32560604700714246 0.6160232048179778 0.5542056572905487
Ni 3.9965463486614707 8.35776964970796 11.107335882167304 1.2366255443662058 0.04482486962417441 -0.6136531619239044
Ni 6.846856343927396 7.862468857256886 3.923088903222062 1.697269014727877 -0.15619863081317614 0.10420449713407215
Ni 3.580535520799204 1.2112684372887965 7.93468401373479 -0.5227312408313514 2.602364433293021 -1.0486467929279555
Ni 1.3866018350314617 0.035802510971817254 2.925741891107961 0.5584443779622447 -0.38489877123018873 0.4336710555378854
Ni 4.069578993665742 6.424881795053473 7.251281955602867 1.9350502915105514 -2.278138554462857 2.021941494177156
Ni 1.3141839120391614 6.084628573950034 1.6384350934250198 -2.568302972832938 0.32405078670488063 -0.08033283272279713
Ni 5.280278583719579 6.71882901624026 2.874808043686264 -1.1618236687639667 -1.741977156268529 -1.6349848119766743
Ni 3.851958226472739 7.825805735468309 13.28644192250899 -0.498651059953696 0.09916796315142921 0.6937592233478761
Ni 5.412572265668899 4.539070636569452 0.9807284153934683 1.0088299180413336 -1.043147717486597 0.8066273096942174
Ni 6.0266887305829515 4.778280073824647 7.5236928039732565 0.9346736464428935 -1.447905432424242 -1.2074952026591528
Ni 2.452988551558645 2.946436003018405 4.822366652029424 0.6714554176443532 0.3176317705524142 0.1369922330880544
Ni 2.2158801790906337 5.314354368084638 8.300690417157638 -0.36996117608374995 0.12316766850013626 -0.35509582893614333
Ni 0.9183579860624971 0.7616277278940354 7.3590188694172705 -0.5243852314950066 -0.0528593098928767 1.0512006696980605
Ni 3.8163318746446513 6.037065605143232 11.254002131754712 -1.8504579121804519 0.0790177134557994 0.697915668718411
P 3.4508750510504154 4.102627183025715 6.359161589505033 -0.3805651768518414 0.500814386153602 1.7889522394664867
P 4.042457825495814 4.327165866592237 2.893124924651908 0.9564334067174883 -0.6512383192665301 0.30154309252066774
P 3.7786411578509895 9.082104853872805 1.745527007874624 -0.8325473719940887 0.16114903283991602 0.7394441269795007
P 3.2512922461788203 7.15751115890222 9.333420644781661 -0.036868590891575216 -1.8245118817386514 -0.46329042106621504
P 9.110703189862543 5.323088925627863 9.030353517924741 0.2729801932813105 0.5937314832993129 -2.660036334083193
P 6.1617991238408525 6.653310659710676 6.481226113676052 0.6100775287575042 0.636264214455201 0.1689862694961477
P 5.628431441424612 6.73507786225817 0.4753489344326966 0.013373078872796325 -0.3942822693276178 0.30226300140582785
P 7.805088686169359 0.9664531022826461 6.481992222452164 1.095609277720423 -0.19719512783019585 -0.789165405464028
