# total energy = -340867.98546270095 ev
CRYSTAL
PRIMVEC
9.29310097963245 0.00000000000000 0.00000000000000

0.00000000000000 9.29310097963245 0.00000000000000

0.00000000000000 0.00000000000000 13.60139264473503

PRIMCOORD
 96 1
Ni 1.8122104718615288 1.7360999739048202 2.0062736554489486 0.19684905734468677 -0.39290570069506525 0.3942709564737081
Ni 2.737738289077949 7.137733570770851 7.18033872204464 -0.5388559143073558 -0.18023098917203154 0.7501170333123145
Ni 8.695731262216535 8.081132021390294 10.676018619077407 -1.2526093213889717 -1.0120548527365345 -1.7817588070418413
Ni 7.284806188678405 3.6316416832727962 9.854739880619054 -0.2739325298922508 0.8430552135039481 0.17431436657728044
Ni 7.782423872938219 4.9077703254480385 7.781832831708666 -2.1216208497473654 -1.274915183975024 0.4199570483859026
Ni 2.944844340050257 3.7637431153185363 2.939832570630471 -0.9968784021064122 0.9282656860340206 -0.2505429473237169
Ni 0.8158069605344334 6.093820938722867 8.788172526725054 0.36729314233328353 0.10061703689312994 0.3241824271867385
Ni 5.922827878600347 5.780346052633038 1.4018271275674807 -0.06056953405294085 -1.8028647357825207 1.3453438702102314
Ni 3.5586815465868233 5.488328936968368 5.795608112559083 -0.45272910061060095 -1.7733885807002747 0.6064489308659814
Ni 3.066890636712706 4.8713599553632525 10.128413344035039 -0.602247234079808 0.10755798698733733 -1.7385830429853157
Ni 4.148356690279989 0.8562068589187067 6.04381940828867 0.17529627087457553 -0.7848009578477452 0.06748117357110958
Ni 8.907474570634559 6.301465989558605 6.261877378899804 1.0173636665439574 0.19881620837338662 -0.9709241441344957
Ni 1.5167920811965945 4.047805336447073 12.295781977631696 -0.4375400515749884 0.2556393880100178 1.9256976466510576
Ni 6.289719509776275 2.3532548175318064 7.894724494483794 0.8046010232928079 0.562641703873044 -0.4913331861360441
Ni 6.374751384782854 2.9892281908733636 11.921416834556283 -2.2785373325631726 -0.35289573596103097 -2.028390849346926
Ni 3.8337852182611143 7.701611065828141 5.106480059582265 -0.9237816821207381 0.7054461727675012 -1.6547432255505243
Ni 5.687489386505635 6.049325570686637 5.0485924035600265 1.4165855392650377 0.011608787883521944 0.4991483113050887
Ni 3.6872887726213643 7.433235599345627 9.692026044260835 -0.9854025402563288 0.2366150243887151 -1.578817006535855
Ni 1.5822248059967392 7.918744372880461 4.004045982017457 0.4948723096375541 2.4202051167500254 0.8216376670601204
Ni 8.799405098016907 2.2506775676604818 11.782111390542772 0.8069276145434554 -2.277748003892658 -0.757819801273211
Ni 7.556573637060089 7.159219220499289 8.132096317097789 2.1182372779871135 -0.37405437231651706 -0.7528403457807487
Ni 7.649049286042653 3.770350510196097 4.988106396472013 0.3158548811576496 -0.3755306997517274 -0.23047317315703533
Ni 5.317215066531631 5.5339115978325495 8.521585052892952 -0.8577693797856712 -0.4076239807418464 -0.6432866685196212
Ni 8.86441963326784 8.756879867412524 5.132240535813766 -0.22016844879691758 1.3726728970424875 1.1399170984988627
P 8.47387705980866 4.26837709090403 12.052588956492661 0.6821671476349026 1.7469697243871138 -0.5520410455390622
P 1.5034100156217887 5.99877110073737 4.780114712965482 -0.5801935967138782 -1.0573384071646823 1.165215210944019
P 4.342136434284054 5.783347724286275 3.115915462221964 -0.8623014633280698 1.1585195440913985 -0.6098605276506915
P 5.547814077068598 3.7537994971483686 0.36558502116216635 -0.5404217161325789 -0.01203404834639863 -0.12104856527460443
P 2.6809202689915854 5.871883098405148 12.04941907970963 -0.5247966080008124 -0.23961961554299377 -0.24768285216710245
P 1.348689175514189 3.8602333839735437 1.1982877687949016 -0.16290123964433234 0.13065240691295563 0.4438202281567453
P 7.2007407961855625 7.734880367743284 6.1202598113342015 -0.34840813250332253 -0.4964167713065386 -0.32744772820157153
P 7.742825969178325 1.2456658567903707 4.027875351841706 0.7441325335941056 0.5254902916337272 1.061226943585811
Ni 3.975161165198283 2.615329561472849 8.456012931576403 1.5108059286032045 0.5864791726122738 2.84620888555064
Ni 6.529165552554366 2.7199977590902376 2.248922100863898 0.2036185148580364 -0.007270308409168124 -1.0713316361199807
Ni 1.5677461544928868 6.363320870437708 0.25899129299818113 -0.20192595764696192 -1.5924736780873412 1.1875964068526965
Ni 5.712106811302622 9.004996373510956 12.111360386428903 -1.0168041944960617 -1.3395303488522479 -0.2447371392752172
Ni 8.339628921410293 5.499266916955553 1.1349775882845385 0.6686356888073711 -0.37600121163024275 -0.01105882891732289
Ni 8.396419062193376 0.49726640503847525 0.7452286456587539 -0.09536581579651962 -0.06928377399748713 -1.7770552309185845
Ni 7.595437385833588 3.0180460973646643 0.030308519906716663 2.9147131010696254 1.712043344823574 3.3934895335865813
Ni 6.111152572262459 8.37663404996507 4.2924638796285715 0.4159540978740966 0.6638251547926051 -0.2978283626732419
Ni 1.4483205123388376 1.5255833548311546 4.570979048714329 0.28561253733334035 -0.6273432578164874 -0.34199245878496587
Ni 0.505072609957112 4.167240271702216 7.329763423838988 1.2589738301544189 -1.3171316694420734 -0.6559195267922833
Ni -0.0007081343033334793 0.13471558138337425 2.843004033095656 0.44058526615921545 0.009479657355661093 -0.10327710022379633
Ni 6.66922187913624 0.5787761947305743 6.220243356690299 0.48886646976310644 -0.08789470423045508 -0.1077456775181112
Ni 8.71191055122052 7.0074350003372725 3.5843202831939984 -0.012210426023262841 -0.7499709946527535 0.01333348388411252
Ni 7.226677841337842 7.682049088026082 1.9192521274982262 -0.9302204957675464 1.2242014596702402 -0.2909740587555698
Ni 0.58959708164398 3.798332037588972 10.186735917188457 -0.7452977575468003 0.9023530799333169 -0.8771125601989732
Ni 1.3936027330996315 2.075660594764426 8.829343752500098 -0.9923609738520328 -0.0398029909295508 -0.03378763797340632
Ni 1.31828214873588 8.5438262317403 13.273802805685511 -0.18474970297799148 1.3518654733788331 -0.04672902862542275
Ni 6.467375723382918 1.1071707711922232 10.245603066065962 -0.34681173455048014 0.9507726088872851 0.9330744202765737
Ni 3.695383063673903 5.005450111043027 0.8166535620440617 -1.0150260195497165 -0.21664372347311078 0.5818465589362689
Ni 3.5942183651688078 7.594192110287043 12.790899817697328 0.16579347359046284 0.740060677517577 0.2533901869645249
Ni 4.778010754877888 6.207094547952942 11.168539037387374 1.092858454448163 0.9097349742196849 0.27637507789547244
Ni 5.023878330511666 7.684613983927919 6.99643382726265 1.7682391752888513 0.49043330002959407 1.3446270466488648
Ni 0.1532283680719651 4.687328674406391 3.2769834903765025 0.3271209409897721 -0.4453862870922846 -0.22822885720754887
Ni 4.717949442509854 7.853042148148601 2.2992749105194332 -0.38900353742718163 -0.8409975596439709 -0.84589422561464
P 2.141000388553635 8.569893380307892 1.9720248606785389 0.8460400071638848 0.6647327542085391 -0.1790649938883884
P 4.8582938552256305 3.178519367049212 10.34681051283609 0.0725668156241331 -0.5365645471700178 0.03584889137780923
P 6.700400233305319 5.892922679281092 10.08920017466042 0.8591652316919333 -0.19649295955684867 0.32008794540239066
P 2.771862556293704 0.3852984765120524 11.913065124603449 0.14878562617855665 0.2992784648562072 0.07537368894530891
P 7.766086601215643 0.2655986878757416 12.005853951092869 0.3920940034270473 0.5969960129831977 0.29034722380484834
P 5.892160644991417 3.846953542510767 6.189490626551307 -0.10001385609149227 0.8585139712611795 0.9145077130179798
P 5.638170899001819 7.197571848712639 -0.08164825689839392 -0.49162037835915984 1.1251162860406043 -0.6567391944801012
P 2.548382061194445 4.486318897751494 7.973625710698915 0.18524566877780355 0.5343981356463183 -0.4304260662380265
Ni 3.8384224757068286 0.33723176972554636 3.4483742952258294 -2.5208103265686135 -0.34074058865573575 -0.7563136490413298
Ni 0.3468426948765632 6.228896163118564 11.75384735287665 0.7607606290690898 -1.2326524186510708 -0.49569840508327534
Ni 7.723394094791575 0.27019784360697174 8.68930415350019 1.310566100409414 0.04533626204295418 -1.5646440574695828
Ni 2.209155991974209 6.110483468983719 2.7222912964401416 0.46814877759978085 0.009455488985945006 -1.2903572295617067
Ni 4.061707815683121 2.0304682441461757 12.816946521442512 0.41276875816757946 2.2009974892044806 -2.3899828275303743
Ni 4.162370686729161 4.225740343086524 12.17400796883129 0.40351664344169214 -0.42826119737622376 0.3570416398086044
Ni 1.5843343399449898 1.7522978491109915 13.294259709122887 -0.22420559498076872 0.3117603993733018 -0.7185541709043689
Ni 0.8831958831147841 0.3413653410919864 10.612922179892198 1.1698023160940692 2.8018936085730326 0.8626120525899531
Ni 6.067725910851995 7.841909013038451 9.48283648002334 -1.6986620384206617 2.0285224898287835 1.6811947348738339
Ni 2.7513712683822824 0.23609773845406007 8.219988608620982 0.6546296043362662 -0.8421275594833562 0.38738785620062965
Ni 4.2374589435655725 2.4448104495061034 1.589663004112069 0.27939792388219625 -0.8560081741201903 0.13396373067437575
Ni 0.6824602529421486 8.274261248317805 7.502555628333232 -1.066527786973434 0.20728696484855916 0.3912727930773326
Ni 8.946933077878048 1.9812984462598575 6.278144952364177 -0.1449456836071762 -0.21940843070244148 0.23926686018926535
Ni 5.428434900420017 1.6817725049115455 4.0661090283610575 3.317029553555629 -0.5282642548344386 0.6284128367315823
Ni 8.747586766318909 2.565063177657484 2.137186499864815 1.9119399307453329 -0.09086458549205641 0.4747223170522405
Ni 4.130197970743065 0.4927843423810247 10.091553187857322 0.15570112235146732 0.3160160893258622 1.610478085084562
Ni 2.639119900272504 2.433500745475174 6.88949997159864 -2.7882245957263723 0.5447594242759844 -3.4364138437539333
Ni 3.807662311086962 0.3265121776140612 0.34058564991023216 -0.9110418659565666 -2.9727701531133577 3.481092931828863
Ni 6.167394420081019 1.3286439564552608 0.09479892425596881 -0.5839324949310201 -0.870121730703437 0.8240784152911291
Ni 7.7023173415112565 7.23276482255416 12.59517502763437 0.5388654273890525 2.4463884600136123 1.6001018840565604
Ni 1.6872089690513103 3.8349654421000032 5.08954617076948 -0.23138514344834346 0.35329142873755287 0.38140721313716247
Ni 6.555046839100084 5.404402940991928 12.48122302202446 -0.24707144383534865 -2.103365245971287 0.3586241538043759
Ni 5.331312700890645 4.042359579206215 3.7092084101708744 0.23090511848813136 0.2905089461936932 1.1938308177981827
Ni 2.644565657513363 2.628888195968434 10.880569996559082 0.31095281587034185 -2.201306792914783 -0.44519756812024613
P 8.562551830443935 2.5286528075727 8.513587410091786 0.3412416966618704 -0.10152643608127676 -0.551375129820289
P 7.252726403703245 5.315300687706346 3.4775221068059534 0.8203719129738194 0.2968397735077275 -1.089827895151955
P -0.19156148077301852 7.573031719096881 0.9902096594482007 -0.16283619073435182 0.25298935198168043 -0.3437791183717434
P 5.8523489999063685 0.5458395858345833 2.0898678877163452 -0.7823684371468526 -0.8613866648232843 0.014911369894193675
P 5.161369761191703 0.44187208803965367 8.138733449898849 0.29562878391876185 -0.37631231511275837 -0.31208461548194
P 3.7077243019262243 2.692285731629077 4.604574538477857 -2.2421767916562674 -0.5990148431854394 1.3133506051330865
P 1.9397768705735847 9.58016498639699 6.31719363384944 -0.8689269390643873 -0.1525947155120017 -1.7099743781096872
P 1.6441633247856846 8.005532643993734 9.610811775183514 -0.5518911502247591 -0.9971671369914247 -1.496936883930596
