# total energy = -340886.91350730066 ev
CRYSTAL
PRIMVEC
9.12438108006220 0.00000000000000 0.00000000000000

0.00000000000000 9.12438108006220 0.00000000000000

0.00000000000000 0.00000000000000 13.35445401724933

PRIMCOORD
 96 1
Ni 6.699065694628531 2.0111230381676553 11.283191145455087 -0.8589526014604948 0.6851493701916781 0.8933465055593325
Ni 5.067234045194661 0.5437045202195799 5.984918652038717 -0.6407142798067545 0.02264627664460616 -0.6974153320432247
Ni 3.0918420825467803 1.8375316919562894 4.6798675793835 0.517769783061018 -0.06521551746538445 0.09873164694495899
Ni 3.7734424585433772 4.566898619728155 4.821118470009501 0.03652174907511775 0.19318600667080277 -0.014552958113510421
Ni 3.768223312680939 3.2659991403726063 2.60841869703837 -0.8596794523241904 -0.9324565841869167 -0.17866698711902132
Ni 5.341549431922572 4.805957398741969 2.479360716580161 1.4422806300382967 0.47970897163355447 -0.33651960859585267
Ni 5.037470314769354 3.3147689561676 0.36219138652959576 0.7924710727984933 -1.142225177806749 0.7522160819331883
Ni 5.880845963739802 8.145864024229533 12.4335310408125 -0.3698447051105437 -0.2005041375987708 0.15195476793515764
Ni 1.806627413921183 6.644821250306503 0.5694343618585515 0.4768612177721142 1.0849219732099058 -1.2987053444160859
Ni 0.912803063074117 0.21749239236965093 13.236640796966615 0.06121976604243004 -0.1566226057244722 1.0469393233185451
Ni 8.401574798346408 0.17958332713420477 6.609359344022641 -0.44586219828743856 -1.2517166343713735 1.4110229575755957
Ni 8.88315962110782 2.717386615678541 1.386098385807514 0.0012678109688300746 -0.257051437866196 -0.11247650733487725
Ni 7.176124824474264 0.9417455992203694 4.59514770292765 -0.2724531171332469 -0.4023830440578812 -0.16577753275086288
Ni 1.0078517386843036 7.662837549289333 2.6101413801482103 -0.3670239478322969 0.09241470358799568 0.10619195987774614
Ni 7.998268039140699 3.757438294482682 3.8403004469916913 -0.20228951163396772 0.4332290829044603 -0.4739373592570999
Ni 7.904952995897406 3.7953044751279994 12.518063867460343 -0.00915749812955197 0.8567008293118408 0.02532716591087896
Ni 8.364374697505212 7.492950701714593 8.676295307585319 -0.5596322276227588 0.6775219355534072 0.1201445654030963
Ni 7.384753793258646 0.6215947975879546 0.2980752745352384 -0.5548502328530832 0.7888630437322608 -0.6503281487474347
Ni 1.9859397469432996 6.988399812282271 8.89430687722695 1.6456857433339465 -0.4115215160240397 0.7040343800216391
Ni 8.994340202111001 5.28399283734169 1.005361695142591 0.37659410801923526 -1.4488863082802725 0.32616191951061246
Ni 6.79540090794257 2.109164510705954 7.083950328840769 -0.12931131950402888 0.6080147326912044 -0.7361070921864677
Ni 3.396486911314459 5.052151443602683 0.5185933116041633 1.2789034791988103 -1.3616978860882225 -0.5176743951337343
Ni 6.541232154194143 5.853481945485512 4.542917921903571 -0.6231155928883849 -0.1286446324543075 0.42718544781354173
Ni 5.207293291677945 3.1945096161904223 9.321301441631046 0.708905077850379 -0.590390591851538 -0.05432021070911935
P 0.32149482293580156 6.077804849380724 12.166588153834327 0.600393982921153 -0.9113920502071337 1.1711470030474218
P 4.288805739316591 6.380414941212522 12.38771113735549 0.3898453166021867 1.373573554479886 0.8720695984584272
P 2.5294243695837104 8.814991371565371 1.3456883277733012 -0.44272031022434727 -0.5520456735247525 -0.7794309517850835
P 6.724586587945386 8.012200968742 5.817533709700831 0.27162085103993866 -0.13352381492347973 -1.0687196524184304
P 5.041676654354291 1.2627504429030012 12.841469335752079 0.6004531182938626 -0.6241039249435831 -0.5360996917184574
P 4.399739962036055 6.76406778400618 7.937780693421677 -1.3301399087762835 -1.1973213474499445 1.0766738742685007
P 5.140238216602658 1.2698765843690238 3.744134947161989 -0.7205148941751656 -0.01695565401773209 0.266334920050651
P 0.49715101653994737 5.689343457864156 3.450003230042391 -1.4950507226514769 1.1281167634298248 0.2663071521365091
Ni 1.002687339107135 0.13659471906375903 4.744075847624729 0.07723208231028636 1.1010710721659422 -0.8290514430256883
Ni 2.318952275861893 6.785163352597016 4.692835149487867 -0.9273979387170866 0.01403359527493067 0.8677830552679313
Ni 6.058369918109754 5.851593198643685 9.200657965218888 1.5968725784859852 0.35668682757234704 -1.1616508906315284
Ni -0.183956642889217 2.68582538222019 10.55931295065847 0.510875627044346 0.6508531680129693 -1.9255009572592194
Ni 2.6891557812408022 5.61973355614292 6.934340592892076 -0.4769290948955722 -0.35469833638740844 -0.16830004206240046
Ni 0.8416310673465006 0.05859768643910722 9.00526847308905 -0.10335294776705425 0.82484408981256 -0.8316176610909677
Ni 1.5221200937521102 1.0079612312548443 11.177744325395887 0.1536871772452321 1.0525175887372713 0.5770321682667611
Ni 4.240747625230112 7.325144212980126 1.3037782215226812 0.44008158704991945 -0.6910269120183776 -0.34850557731313525
Ni 5.9010929649089485 8.335806260974973 7.846035043689468 0.21187869798429962 -0.9299626141204693 0.3948463693612039
Ni 5.671605661436567 3.136807031515485 4.596188794785874 0.4018492830415982 0.40861771211368336 0.6792389182445141
Ni 1.133302851381285 7.827258892717918 6.764631670744464 0.6556526462841418 0.1763943890347607 -0.38952315737607757
Ni 5.4729040190478715 4.862555933330621 7.053194778213981 -0.31286083152633215 0.2032174227648758 -0.5187270047679646
Ni 0.9074954107171576 7.648019554742828 10.913860843326239 0.23274679968256046 0.2452773280494034 0.2935970982007137
Ni 5.011438456123307 0.5287250241315274 10.427478421098966 -1.1957756002293793 0.6554798681517033 0.03914813095437128
Ni 8.611791409403631 7.434308305809181 4.752529586508556 -0.3584230935371634 -0.5956567253464838 -0.3000202281182381
Ni 7.338502306586089 6.1050867482071105 6.870505511828772 1.9675698614048112 1.2587200622724 0.11736263178258496
Ni 2.5707851881054515 5.6664321374785205 2.6740558433251556 0.5630042294187853 -0.5923024641622702 -0.7036284028324721
Ni 2.571040670770046 5.719161934574735 11.277715604489964 -1.3097292063304153 0.12989110326689887 0.14980044059631623
Ni 1.3915319546205953 3.7576664040046412 3.735841797381621 0.20430242829893847 -1.3129711103064807 -0.453839045845328
Ni 1.995502098103852 1.700547361829023 2.3312336925242056 -1.4209831541121012 -0.5064127061769859 1.3288710693661887
Ni 1.509802179566284 3.5917395377311228 8.267715568669988 -0.9472309142826139 1.1432356213491341 -0.11152802737867888
Ni 4.069847971377871 3.2506063098307627 7.092724333493429 -2.035321000807856 -2.133300857188455 -0.1804911848119537
Ni 4.510172343807206 6.90635337942379 5.755382076909592 1.0669139666682592 1.1217437700239454 0.24119287356738459
Ni 8.80888716075773 7.503872585626025 0.3623528880711433 -2.5503083360277303 0.6270833192868813 -0.18445145501128232
P 0.43539629431691723 6.016844860732203 7.742738840203304 0.0779861868674915 -1.9890917946369873 -0.21533143241959044
P 8.888771115348032 1.8086712752379424 8.333700353868242 -0.00415053183326382 0.7624552431626933 -1.0812792342509958
P 2.3645011852068145 3.635253710140164 10.580105589804145 -1.279380418835229 -0.2144423449464178 -0.799036641831153
P 4.428198905995752 6.398125364497477 3.63433488498571 0.0036216559129873113 0.17753184507331363 -0.693828900243547
P 7.01526198958825 4.148016542363036 10.182663982627064 0.33583312405178933 -0.6715731741691402 2.6009729522621337
P 6.910641838436633 7.827833728713255 10.187284569103882 -1.6046162269871462 0.20679151326937936 0.47699774334997846
P 2.977915062899205 8.730572599678508 5.5671114267410715 -0.9309612305883128 0.7944101988027351 1.2235926224416476
P 7.116533492957499 4.053341966368864 1.2492344975078424 -0.4043872189721036 -0.48044430713768227 1.367001043468691
Ni 2.9656883925221624 1.532667878047529 0.28300453463840197 1.4889525801735388 0.6188259643740955 -1.2194999404295128
Ni 1.733294764801564 1.5482523205878187 6.873978251191088 0.26382475203428757 -0.20278907697820558 0.3142847084570523
Ni 7.025307932935358 0.8092942615134872 9.156588118014353 1.2140579434783347 0.2348324785669956 0.009960710757137684
Ni 2.713609121994887 1.8531708807818494 9.212797041539499 1.4830457277708005 0.10238621297841077 0.3866653762123083
Ni 6.5820363854823025 1.9721528074360526 2.218615109094591 0.7013254657309084 1.4589856014978033 0.3623759075373243
Ni 4.706063676885357 7.312789801270785 10.303455274009453 -1.6786845668574704 0.28245933641633936 0.3854955242739232
Ni 7.38468079821162 5.962609540791053 11.468430676295803 -0.7220812102210209 0.9113619683001466 -0.44593804583069646
Ni 7.811491962560059 3.9801553073432987 8.268904475498443 1.2767730631193688 -0.05372782854075908 -0.7274892686104697
Ni 3.0801628750224412 8.448902961962615 12.366785282248992 0.8711496577473191 -0.6055127922049571 -0.41091807811208586
Ni 0.03214610627265515 5.369816763883824 9.992109499924684 0.888152877173535 -0.39719018700303205 -0.5212500283001346
Ni 8.856917901701571 2.190809470805786 5.756810954955147 0.6782017352292514 2.449568400403491 -0.8522916445005514
Ni 4.006862370174345 2.8053091498227047 11.624998665102359 -0.43535229989505025 -1.419399354564749 -0.2520329016056821
Ni 1.3146772944819176 3.016045850589996 12.804958125667202 1.203590725398424 1.3685838145747784 -0.930773797167855
Ni 3.3467772842889913 8.95388269729622 7.890465303938699 0.8254966357948944 -0.29470087278785373 -0.4160062912682707
Ni 5.7405768564963155 8.186969360086678 3.358872563581385 0.3229614102954438 -0.3051938018993776 0.9590261071453291
Ni 3.1941902628596783 8.585677431329678 3.356575044476206 0.7946516253895798 0.1595832310146929 0.5848292957136767
Ni 3.619623645695482 4.900367367690667 9.120491154821355 -0.8499180020620523 0.5585186828436058 -0.9262738524149725
Ni 4.864389933887177 4.798119555567432 11.042958058622224 1.3865601965475411 0.6595283271894642 1.2888932434216707
Ni 8.060824794442938 8.90691038453427 2.566606221663149 0.6984044354293715 0.9864692909579463 0.5101716589987858
Ni 4.7281081810875465 0.5608337204425813 1.7609316020441188 -0.3866196105760374 0.42916802546120925 -1.7567959664489166
Ni 6.098462447689399 5.422437068409498 -0.0009972948300080065 -0.5232907128792472 1.601206429974649 0.203765581958862
Ni 8.272483057678947 0.07834923372655765 11.169157370551233 0.19268232756150686 -0.12892565402983605 0.5649312712381691
Ni 0.5123859952925949 4.964128541268856 5.667710463239582 -1.5851012968826699 1.1769890636504956 0.6849187422381107
Ni 7.383494628697428 6.524023571857501 2.395762226534266 1.0308053938711603 -1.659481768676774 0.43623958759601
P 9.055190698188984 1.7855135965685889 3.436715394169192 -0.21482698197934616 -0.6522356501827928 0.42062527809752076
P 1.7988260682701596 3.8453973261503593 1.4294474069226564 0.4276922122466312 -0.5469849711723935 0.4416653865972716
P 5.064943825594185 1.4245348402577314 8.169052725793872 -1.108422627435007 -1.1413767137635245 -0.18489291342407513
P 8.767225237667 1.7926123648919763 12.51528640592096 -0.8137405237002308 -0.2004303469380419 -0.29841688818686024
P 6.628880956911956 8.004299254901314 1.2055323628527066 -1.1971192587414674 -0.34580283366999154 -0.40289597913855774
P 2.0862075684159254 3.619413784935279 5.87148617383475 1.2833723136034414 -1.8905902614249634 0.9925098407250714
P 7.33600222622541 4.075048868478553 6.020081278629767 -0.4323988736936811 -0.26834809382593783 -1.2777968763981928
P 2.771704055047595 8.884272795574985 10.042669519248019 0.9580750560859694 -0.9641395171124943 0.5207296370202903
