# total energy = -381166.84773365216 ev
CRYSTAL
PRIMVEC
9.26583735339398 0.00000000000000 0.00000000000000
0.00000000000000 9.26583735339398 0.00000000000000
0.00000000000000 0.00000000000000 13.56148957189061
PRIMCOORD
 96 1
Ni 3.0904532645756704 3.423115357282804 2.0243371375528985 0.1744002414228674 1.8579951010977616 2.499679715237585
Ni 6.633700203161688 7.185712463565774 7.734659584972937 0.7959688015391067 1.37951588810625 -0.46361000918916284
Ni 1.250369155987729 5.201943015119064 1.7035399495784116 0.5232840280110279 0.6215045396475232 -0.48272616119332346
Ni 6.7379964684257825 7.960382795602427 13.523462748203242 0.27590867978201516 -1.059761157673562 -0.047270760061505684
Ni 3.6923991224840385 0.5086944707710334 1.963445760792991 -2.024086051323985 2.7178154498751903 0.9158688550315647
Ni 3.829366730260676 5.645785890244806 0.8069914258971905 -0.34372486809504027 0.8923481462018051 -1.5041002344482546
Ni 0.7570680208139984 0.9814189609312625 0.9240245111890051 -0.21159741929845494 0.02519269721554371 -0.5194240308349893
Ni 7.696408355205414 8.9383455992004 2.0023947081133193 -1.3895974407119682 0.23923086474500735 -0.12971549692098305
Ni 2.379124196695498 8.29030220045258 0.9560157412397167 -0.21212963765284115 0.20473745895382803 -2.0625065600837122
Ni 6.154174588383135 5.777666553313734 9.588542378549443 0.099431501225461 -0.651148330655885 0.7789424421844391
Ni 0.06554097394447772 3.139302759109457 9.803302250420895 0.5651708980528007 -1.565390191606988 -1.7487466137818783
Ni 8.511273889686597 7.926738540167643 4.209879460234764 -0.7420034030662447 0.15949247107309952 -0.15601942492283455
Ni 4.988319134907293 3.945124836332489 8.625066711655487 -1.1146189860537061 0.3495113928698303 -0.39874390464339715
Ni 6.139117602681807 0.9303734629444206 11.841784615279423 -0.69607013086924 -0.1981960582908845 -0.2876411377275949
Ni 3.8907158393859045 3.703027037929838 4.544495718039996 -0.8294769605988812 -0.6135048092714983 0.48105134459406185
Ni 2.6500294834337983 0.45620072240565746 6.051964063107577 -0.9121261001596807 -2.4636032812300024 -0.374921862523135
Ni 5.166566048098958 5.826775491293451 6.526791898347315 1.413291184784482 -1.2339210009508492 0.7390373784593853
Ni 8.521216133168153 3.6599408942306515 5.421978854780261 0.9834022219968483 0.7919424539885329 1.011936067770483
Ni 1.1510486453830897 5.760774931816182 8.920910999633865 -0.33062226927481125 -1.0636993163857036 -1.010642288659724
Ni 1.4212589943197904 2.8975663283636375 5.047653850991618 0.06335815254167153 -1.0862201231960391 1.56690225737614
Ni 1.0851222126046578 3.5928654976202417 7.45479145376147 -0.5443367349162689 0.09212545448235102 0.4636110376304273
Ni 8.291682810218425 5.847141801799002 13.163053178953831 0.0197805250610369 0.66581853107355 -0.20252939555891572
Ni 4.421027508705368 2.5871700428197606 0.5512811858368029 3.2745536437796052 -0.2875087259147887 -1.561931029413794
Ni 6.932940420530549 3.8457024015169483 12.323597038717105 -0.3764017895027711 0.8253544537900753 0.10640613277108125
P 8.337298527515433 2.7860519758002606 7.544148409458639 0.18079894586035958 1.0049454953852628 0.8026027619158563
Ni 0.9624425260289114 2.859224293390039 2.217710530226051 -1.8010215119261948 0.9122317724996095 0.7581645862071394
P 2.459866703404037 2.4856720604367752 13.79501849672384 -3.555399355851922 -0.35045215951654485 -1.2180428962680119
Ni 2.8159250354316963 5.346147241869694 7.260549852128185 1.1784800463737253 -0.7475058209417126 -1.3959629779186797
P 8.35671972261081 5.655237044346563 10.366497449928323 -2.623079040132553 -0.1648467934064774 -0.791818783926475
P 7.87557258629519 2.273938411045356 11.303867546659252 1.5204460227961296 -0.6272751235827132 0.05922253310674317
P 2.7658895137165125 4.543364359298992 9.201755750102514 1.4674802692323758 -0.5511689273467539 -1.8875309057733494
Ni 3.703323544725187 0.26069711372466764 8.27930272492886 -0.2850486944100704 -0.012111695661869464 -0.26942178650609083
Ni 2.2168052579165005 8.139389507457174 9.47965767062732 -0.3455848041219145 0.15785210725619914 1.2379933712480098
Ni 4.594660034894409 7.698502434447569 2.0771727953166614 1.7339887387464137 -1.7229252818434004 -1.248348489230089
Ni 5.516295813213382 0.5215100504162686 0.8564728505385653 2.7275727863722707 0.9400109994954069 -2.16177556758938
Ni 3.8634094167017103 6.126210291246761 4.815481617563282 -2.6314286976488295 0.21736568924079985 -0.8600584329301639
Ni 6.974683017813311 2.754529597119695 9.468998251334515 -0.6763001473311643 -0.10528718867528966 -1.4160114119291225
Ni 4.279362121389916 1.4036075741591563 4.962976143158553 1.9728447366505055 1.429534386116222 -0.11191703528698145
Ni 4.214686576654364 6.828903598712388 8.431991678945154 -0.2463016555488597 0.9928119453465225 0.6267912419677593
Ni 9.37026334165069 5.886271432947746 3.5707674021131046 -0.9167497149746212 -1.2575414685832664 2.1612286939469745
Ni 4.377524402325222 8.107005405902624 13.054425134726433 -0.0012107324786495277 -1.354832526426957 -0.3626625855398076
Ni 0.7193560627805174 5.598530119736021 6.288204925718346 -0.5896323735292749 0.8340378404966863 -0.6735220703653949
Ni 6.849501555151805 6.552726050519283 2.1129074236586574 -1.0505008154175586 1.5461102603314534 0.3826637112520829
Ni 0.043687496543503554 3.588918250907155 13.694256221826814 -0.6853581437683746 -0.8725642787066585 -0.21011980631166394
Ni 2.5429905303127245 3.5534300938387933 10.86573706026266 -0.4202617241105149 -0.6513684170864911 2.4079586952825047
Ni 2.128196055293852 1.4563487203819017 10.02142562125209 0.32344554902071393 -1.0744113034865688 0.5970703178645589
Ni 5.341458728168234 2.629663172928248 2.878235938474338 0.365684403085267 -1.2078183903265265 -0.10549364825914088
Ni 1.8229608411565228 7.569985270338384 7.387689186222732 -0.626076989509554 0.5933810419384298 -1.535906323215258
Ni 9.237595082406616 7.29271435333743 1.9126309821562801 0.48479101414215214 0.3596394824427677 -0.9100759024988714
Ni 0.7958538893968848 6.79481458308458 10.834247112012834 -0.12997543545058907 1.4114677584224982 2.385117786128589
Ni 2.598919124585474 6.516237183016618 12.135024276377404 1.2197256832870735 0.39875367483541 0.25833236146114863
Ni 5.7733023439196876 7.148408202375899 4.505547697303403 1.6434745946152405 -0.18042870700513441 -0.720170109241237
Ni 6.667362990271181 2.2890324600961036 5.568212299911563 0.5104969035486885 -0.21228698916631183 -0.8871863994952075
Ni 3.6378604038144884 0.9615344739681544 12.663000028099757 -0.708325036977193 0.8174506255619663 -0.21642363704250467
Ni 4.89175057799699 8.463527029798017 6.426721781500683 -0.03305127402801405 -0.21811850824642434 -0.18514128198945534
Ni 6.758270120557786 0.07597523338956444 4.834847217634529 -0.6151168909536245 0.2188790405615327 -0.17552072818055578
P 7.863184161752005 3.485224265071114 3.4522805069403435 -0.31877102636318005 -0.9204310204809504 -0.9992939535264405
Ni 0.010107175386467089 -0.005111035884832459 10.198660705004626 1.3310073989829012 0.7445706495727886 0.03141785218964912
P 5.650159365476208 0.13066313204052465 2.9068377252207136 0.8892237416402105 0.34993433933986184 1.9225470168372178
Ni 8.789582580471276 7.308021516647334 9.045202015325588 -2.0167887463316236 1.3730639618333191 -2.1830041379508534
P 7.676653589965271 0.6978222567682791 -0.27111006174383867 0.8158136041791756 -0.030885633835262934 1.544402019391095
P 0.9432159135179843 7.104552994176275 13.594443695258642 0.43833143712803213 -2.2378182575772554 -1.4899116016526985
P 4.293890954362028 6.756379889737435 10.619215751106891 0.8928047741232494 0.2931404702792693 0.2554247008960504
Ni 8.986907852776191 8.342348408873725 12.446423125523056 -2.109515324733083 -0.6458384884071975 0.15318426946688457
Ni 4.713892829974221 5.236606512662861 2.7328160338627763 0.6068014291093936 -0.09444278976161799 1.919476091221378
Ni 7.6396551014081 4.959428254035452 7.931233397868391 0.903810895425766 -0.751873610992105 -0.03854366460115297
Ni 5.57629211008483 1.627785243117888 7.377667256539928 -1.0316394597366816 -0.7807134180419328 1.6279734136558477
Ni 0.30358774825567014 0.2257278435481671 5.671984118781382 0.6899146527908053 1.010088473038783 -0.6994459893200082
Ni 7.730098939826973 5.923149465619307 5.550486753052091 -0.5745878204913266 1.1861126232183183 0.3285517598990277
Ni 8.047722578507486 4.839852622973519 1.8174022653274602 1.8124611212217046 -1.831851609933174 -0.039061741888152084
Ni 7.792800861205981 1.9909597382339292 1.5822464322709229 -1.604370429524927 2.0752926561047875 -2.141735875329686
Ni 4.178466418434984 8.94025436169546 10.670735659966292 0.07221817403546271 -0.15173339595297092 0.17063434662253193
Ni 1.465753545296885 7.604713628743663 4.900308505377757 1.3160170962216562 -0.4393025427920499 -0.04229001901746265
Ni 4.419924874060163 4.93277970580344 11.86264201516477 0.42450635831948186 1.0732522501814614 1.0172952751998674
Ni 8.747080184525434 1.2427526376821956 3.344914469760649 1.2787844371224426 -0.27432642289655984 3.3642175240953414
Ni 7.870708021683992 0.8481428627567227 7.04694357700739 -0.6518103897199161 -1.519112905807003 1.1286106723471079
Ni 7.057186033619234 0.19503661047831475 9.598157537972378 -0.8064925838885658 -0.23228271556194835 -0.4670550303149698
Ni 6.029132113281951 4.053257158261414 1.0497220809911654 0.19848839272032268 -0.3431486838765961 0.5691972456033746
Ni 3.9379067490332056 8.637131758474995 4.1105821142235115 -0.9295651215717345 -0.6880467463441312 1.05931764237824
Ni 1.9524323865132378 4.692099580516053 4.016506067561611 0.2890495880393474 1.6752822260441407 -0.8815695675290623
Ni 1.3724650948101318 1.2075795190838923 7.839801821187511 -1.7961649551648422 -0.9016537398734472 0.4664384797768934
Ni 3.0659265930978754 2.420218185363431 6.981075519004292 1.3024231595873053 1.4875479865165284 -0.09240750449914407
Ni 6.569534279480643 7.478688974882883 11.152073672531417 0.021779814879252814 0.39804276481131445 0.025652153350465497
Ni 2.5543411810721874 7.129348374937355 2.791578121198582 -1.2946998228011186 -1.8924872213373602 1.6890425130530264
Ni 0.4965821681810171 1.2053001230946452 12.273826519950266 -0.8189287527693896 3.052601106499072 -1.7931811899461698
Ni 6.081354372612835 4.199314552482976 4.535884048802572 0.8958834130485731 2.1838896258796003 0.15949375662468016
Ni 0.37029158478815816 4.461936180626208 11.48458843842461 0.1591541138970743 0.40170632970583076 1.7751058205016979
Ni 1.912209386556643 8.744735927674704 11.93053095229492 1.2569917667273836 -0.09742372676681287 -0.3836726121325715
P 1.12307508240936 9.150533274622196 2.6431746169588184 -0.1465773056733282 -2.0194503523241867 1.4697808923410944
Ni 2.0530315826728205 4.627905859322943 13.180248719916616 0.5806684794677677 -1.662890794358323 -0.451695517139764
P 5.913624184818713 5.81069926348311 13.54437481652898 0.11908861333475619 1.3798611872608106 -0.9007548822082616
Ni 2.1925936249087643 1.414300350466438 3.5449323944008313 0.9444466666692574 -0.3471760598684343 1.02545055731715
P 8.683989097977529 7.851082978166815 6.676090482475539 -0.2841408378838203 -1.3875451861686297 0.1675744767502856
P 5.082098674773844 1.3285635574237356 9.572431867140889 0.4073691844185629 0.11247265068013533 -0.4642358156986199
P 4.885996492999744 3.523464375833811 6.517570537011953 0.4525288116743368 0.4794999409465419 -1.1952436389853092
Ni 4.88430084476384 3.0166230725337106 10.858182623067403 0.43392173809611073 -1.1490833383791628 0.44537214602489744
