# total energy = -340892.8098205717 ev
CRYSTAL
PRIMVEC
9.09651106994309 0.00000000000000 0.00000000000000
0.00000000000000 9.09651106994309 0.00000000000000
0.00000000000000 0.00000000000000 13.31366344029414
PRIMCOORD
 96 1
Ni 6.270834658149357 2.2886640328316585 11.539205579398777 1.3121588988178305 -0.9726922917785118 -0.6765785978035315
Ni 4.760422643731647 0.3130746270557286 6.186193440442173 -1.1016446852812254 -0.46292378175541565 -0.5366663628552047
Ni 2.9187793658400647 1.6196065352410525 4.829850856055212 0.060259459011689775 0.09618522637402144 0.40971325917070733
Ni 3.5043399868364147 4.30942671338339 5.006057555819024 -1.0237993948669724 0.3749974529560768 -0.1522455597026991
Ni 4.818267358652976 4.28702200622012 2.723189819944099 1.2396183084459427 0.564137314581964 -0.3392897151418221
Ni 7.361333521096964 6.34494393515267 2.677031393001923 0.1336325725872021 -0.4087082149449606 -0.2254896038995149
Ni 5.175814829119677 4.507239446624343 11.709233928734129 -0.8131270584859479 0.3441087337970203 0.1265584393492401
Ni 5.4632009084575515 7.779754844725096 12.47614077834011 0.14258001158847702 2.0647063959485084 0.1931016744871126
Ni 2.0038613626835398 6.0547379373330195 0.3085245521377149 -0.7861947528714782 0.41299192992197903 0.5694852091574386
Ni 2.8729875283005195 1.5330077483168425 0.2401078718630964 -0.5205717712861874 -0.2854832108443277 -0.018766481974225747
Ni 0.8684293728566439 0.32172631888804115 4.782400724518158 -0.7938550976302133 -0.4634061207084728 0.3805878025596606
Ni 8.495386479821159 2.5249186225370766 1.4168534867502531 0.2363859390970445 -0.2582845389423487 0.3134190180226473
Ni 6.752058295320004 0.6343688616602718 4.761378687062081 0.23949517414998753 -0.0496999383282886 -0.10317194210449973
Ni 0.8224419603256206 7.199542972332889 2.241661449647196 0.060800162006508195 0.10505039007413519 0.2995376320548648
Ni 7.540361958644798 3.9272367939904607 3.9097041782428006 1.5986278706141952 -0.901045673975803 -0.9848798349836394
Ni 7.585016732280401 4.079685225719751 12.646250086625423 -0.7998043732351129 -0.30094942480072684 0.4894398257680732
Ni 8.249398623098 -0.19224293941388412 6.904080100672534 -1.884365363561174 1.6933136296245548 0.6093326801716797
Ni 6.944622341580361 0.7487483938855887 0.439051301450129 0.04319350466833852 -0.37301204709493174 -0.5405140187360691
Ni 1.912232205048291 6.389189365782855 9.243317097347033 -0.15133590340423617 0.7195854403823607 -0.20313489035339855
Ni 9.21740386580176 4.957844226989644 1.4085993124587586 -1.1390074422003997 -0.3653439890267127 0.5069097004180625
Ni 6.30605634963786 1.9441609594709777 7.169900171182688 0.7992721548807267 1.019066508167677 -0.6140678808638199
Ni 3.4825629389481203 3.956209182262899 0.5331292399089068 -0.49471547234471575 0.9238680711869572 -0.7057037973042621
Ni 6.038946393835076 5.467831032674404 4.612465159597366 -1.441539380996898 1.7326232258574548 0.487052042262187
Ni 5.447318399847293 3.1000364486396244 9.285242007962053 -0.46077099707847097 -0.032879267226524025 -0.1614087142592059
P 0.015055635739313023 5.785763196727771 12.628515528328423 0.4209965453940104 -0.31506503826650256 -0.3639494226720313
P 4.0084868323105285 6.054155760614202 12.734945619388501 -0.17182682426873633 0.15041519136217965 -0.2587013147647932
P 2.2888641560787524 8.577591651820537 1.2900672228562462 -0.0755868333973795 -0.1821598307636282 -0.2212475407937093
P 6.358652377578593 7.777007698333173 5.820200768948115 -0.5814045863028439 1.2207708367221362 -1.6209630437762859
P 4.960172933864916 0.9424531426543805 12.729460423115885 -1.0816363604800985 -0.5690108406241813 -0.9542896209016082
P 4.0692515273371805 6.268214862914675 8.479698636551255 0.2889775971508313 -0.9401112725186971 -1.8639603175422608
P 4.6653459083396465 0.7885110637808731 3.749713829051446 0.21981929298761496 1.7810877491167456 0.2301512710412423
P 0.08526069012205126 5.771154199689927 3.8207948774657807 -0.025564992953297904 -1.0621417420905965 -0.42947270118582165
Ni 1.4735165648626056 1.0649649559206893 2.5706686161249572 -0.4198477765015479 0.16739321397741494 -0.2824598506369716
Ni 1.9974028397091501 6.2567532587629415 4.706939705945839 -0.1432724096698113 0.8641547144867245 0.5001456422213515
Ni 6.26284792128807 5.831982570295199 9.014335168371227 -0.2636920831111652 -0.49033739788167807 1.1277742924887415
Ni 8.639557086329752 2.364219655120786 10.293752195877593 0.41293073766674043 0.6840867332551187 0.27734566933885785
Ni 2.3906723097820883 5.410823196786375 7.01879074590668 0.20743171795653953 -0.4902373819687041 0.45892828744277736
Ni 0.5584120832258342 0.1641956663336933 9.22387967214749 -0.010348690224175727 0.13745168922297618 0.1949837220011739
Ni 1.5746515767348082 1.1373277027675477 11.510500628556546 -0.42718647625480627 0.6473281855788465 -0.5921646530328253
Ni 3.8806808495074665 6.9795256551757605 1.5075065887303583 0.4202259857765731 -0.6313148408697257 0.26628478353900586
Ni 5.901106959143631 7.936096583261483 7.942399555893813 -0.6464288136930286 0.7942939849398449 0.48383559220741834
Ni 5.193689473689643 2.885004019637377 5.046344184761245 1.2886633867990516 -1.1655885351230377 -0.3389251327135518
Ni 0.8278971381111718 7.535413456534844 7.09650224135768 1.8812805539882633 -0.9299430737364435 -0.0657698473069577
Ni 5.129331656726535 4.571679132188534 7.114781680677448 0.1769158087558695 0.6333421557123996 0.25188429184295974
Ni 8.467460190340349 7.240731975189278 9.097386315915138 -1.3946229189510175 0.113845619768262 0.37988897672042315
Ni 4.686859157402226 0.458220379568342 10.499594419582621 -0.39394494059285706 -0.8839959175823678 0.6770987319730597
Ni 8.41205334042907 7.4909769991687964 5.056503168504622 0.32203478471611635 -0.4826796242261041 -1.618134316078239
Ni 7.2710233575902885 6.227335141440158 6.771289229714591 1.0324331592825702 -2.1301186028057315 1.339396651487861
Ni 2.2607923224182365 4.941888946289532 2.6042593031496453 0.80565286159609 0.5341988751513187 -0.011958200803140695
Ni 2.4045081033652522 5.226364142033315 11.47967982920186 -0.024242160376816313 -0.577168179623993 -0.6143355327029097
Ni 1.0087485165098051 3.269277040102327 3.7569428265271467 -0.4034631644959374 -0.039961370884286015 1.0302261243289226
Ni 3.42927557615379 2.4439323830427235 2.5005454303433026 1.5051587576197563 -0.2958884653380517 0.9779661385829415
Ni 1.1550204171128826 3.411300869960278 8.225780441336443 -0.2286176080055353 0.2590514990153603 1.1823423575426089
Ni 3.667167537880885 2.771324918776888 7.350659674817882 0.20290014863477315 -0.011248833440941916 -0.6560941046969345
Ni 4.2805907727794255 6.712097321479872 5.974067346778401 -0.2880453151445491 0.8308956953232786 -0.051518479594266114
Ni 0.7756476872483599 7.250137767802684 11.143789332675198 -0.2684056865367507 -0.06560195427052572 0.8870105360389756
P 9.20585129653771 5.595273155028204 7.983418453990171 1.3298285481834518 0.05407132792310688 0.5064744126528568
P 8.409515413795472 1.672493651541195 8.183682697008024 0.7021302210203907 0.11148663261778217 -0.9398935000809361
P 1.8267159029606337 3.2522392745656625 10.471449813832253 -0.6506968449407632 -0.1380659257682074 0.7552831508942863
P 4.016482665683047 6.134869104771608 3.583771632561298 -0.6990017026937382 -0.6300827682348374 0.8371555601900614
P 6.898712249394806 4.194337653282013 10.495413663020607 1.0004956871440251 0.14430316492717082 -1.070114475883428
P 6.516022021884143 8.039096379936149 10.161759998605778 0.007516877202335443 -1.5623125811229286 1.2367127047633732
P 2.464317664712593 8.43860605671392 5.8734826738357055 0.6694679549006793 -0.2958964357578517 0.4427545058963923
P 6.854821582702651 4.092356665865278 1.511499957161002 0.046073911539927105 0.7657123166474104 1.1039023709671507
Ni 5.529259773020957 2.7018093799455 0.4560545002441136 -0.9829180832715783 1.288630219568271 0.3661860253120339
Ni 1.7020846025773773 1.1621338888959427 7.201827106303127 -0.4729053184481598 -0.7272283016395992 -0.9150828687951594
Ni 6.743898724745318 0.8843946597191106 9.318459738026249 0.6578640521131638 -0.059029957479962855 0.4134549856013266
Ni 2.84181378431005 1.5963012734658606 9.303175779855025 -0.4599125057329176 -0.1749687123318277 0.6740434900865037
Ni 6.239033254883912 2.136979708045818 2.71934199569316 0.23595347954531623 -0.45824951620819787 0.27232224798233745
Ni 4.354599988159191 7.028392113511564 10.485362018109763 -0.5091411608517425 -0.2301908660299261 0.03245683497712475
Ni 8.030818554715452 7.4318223866301265 0.3502447912500255 0.48428476392969505 -0.2006532615821254 -0.4181151100811573
Ni 7.879807371760746 3.881981650613576 8.342674249266155 -1.5541189895685426 -0.2009574230861055 -0.6728888076567702
Ni 2.7826682682826114 8.149136876304024 12.40589842826132 0.7940062784960971 0.10790174348000127 0.2792855666740481
Ni 0.04557534057223498 4.9167279962231065 10.298637932060048 0.021769016245975412 -0.26712759115527546 0.21306963296860726
Ni 8.504273771294368 2.1343144302549786 5.955574139444691 0.3811035658538146 0.9430330741511823 -0.1250764554870749
Ni 3.777162551692602 2.5832454525536774 11.45291971246093 -0.5757738703796277 0.2626495007792638 0.13480371007716782
Ni 0.7040244867646255 3.548721865135072 12.71618679392683 2.245365473796894 -0.8750528494564671 -0.41122763893270464
Ni 3.331670010639423 8.349969651273847 8.168824455562435 -0.3249020789615824 -0.016168896450378605 -0.1496582585914971
Ni 5.4367209642625545 7.842484386177759 3.5822679792547256 0.19686731217713194 -0.22225361346072048 0.3356053243116995
Ni 2.867074796000022 8.326136791847226 3.558808986439721 0.5972356397978295 -0.08353205638638517 0.15190668830604162
Ni 3.332934425700606 4.405786056859037 9.371634304081308 0.8428523534645225 -0.6641450000258692 -0.5983710389538534
Ni 7.197887407288749 6.218020313939067 11.519101379925962 0.17635042317070274 0.8620641505062829 -1.1141016800976553
Ni 0.4468906748294656 0.18701153580462856 0.26292647028740107 1.074815223793207 -0.24107460282196547 0.1969030505110738
Ni 4.427954254730286 0.20318331347205087 1.494951583928594 1.155713956321803 0.3690723457208934 0.4799593970814637
Ni 5.980965231245274 5.890482234025198 0.3526771983533379 0.4315810057780761 -1.0564364641757031 1.6234032777866623
Ni 8.197630377679335 8.931364070126152 11.494498045998029 -1.0230023528869736 -1.1934130135344736 -1.2847532531113681
Ni 0.17992171495077044 4.630906516817057 6.031169786383237 -0.5736061733043476 0.1446456358682541 -0.9040705768450559
Ni 8.402820381529063 9.083121167001845 2.345947493010002 -1.4834411634370066 -0.21310768529539428 0.9062634707313166
P 8.519801515966599 1.6581211637953701 3.7552390499734805 -0.81459464417041 0.2356680870944135 -0.7836969261502891
P 1.6297764347979082 3.0056055655450633 1.5513745141444342 -0.5899740731394097 1.2278195160388015 -1.1238811280819223
P 4.72428220460876 1.0307438806676559 8.313837399011067 0.21243019961239545 0.3531986119134304 -0.0013819679491911684
P 8.536975729171736 1.6544279802353672 12.353828178669769 -0.3212058610569178 1.9065709531239357 1.3412969538343675
P 6.387597476317336 8.061646631279123 1.5555152460570287 -0.28792961550229124 -1.0171075846690936 0.3866898016923405
P 1.844908925423703 3.169433732825002 6.233484383032676 0.5394007310672323 0.10643415779553929 -2.1598528966453707
P 6.954128195817315 4.082377793044285 6.037985802249025 0.0664236788408727 -1.1076556673619957 0.35410081201272564
P 2.356378462439203 8.559771586317963 10.230978081519895 0.6610172530301648 0.019500789037088996 0.18359476343794187
