# total energy = -340863.90261727705 ev
CRYSTAL
PRIMVEC
9.38507577070249 0.00000000000000 0.00000000000000

0.00000000000000 9.38507577070249 0.00000000000000

0.00000000000000 0.00000000000000 13.73600704842288

PRIMCOORD
 96 1
Ni 3.502791839590218 7.482026437074059 6.042181247455444 0.4135958820545651 0.8521574329155324 0.851054943879973
Ni 5.21193614814873 9.202263905224232 4.911364079639178 1.0614485726783138 -0.7375785345256717 0.006486379055292055
Ni 1.5145823022177973 6.799571880367787 11.965092259148939 -0.332905151771717 0.05819589161444171 -1.4644011160864199
Ni 1.54377927302123 9.026687907220175 2.155014243536911 0.8003540750909958 0.10983829838108179 0.9850726677207357
Ni 3.1772704855828047 4.9822082627979025 10.707615985396007 0.31304337985078345 0.3103162107276075 -0.5747251174001393
Ni 3.1020584881483115 0.5479176181458837 5.056663823123184 -1.2300610037748105 0.3299237005458899 1.3796411008302045
Ni 6.65466631006724 8.846409986241989 2.3734171579239 -0.5982728228130922 0.5174489093864895 2.0278524603449526
Ni 5.038603183260077 3.1410910183866516 10.542275351055798 -0.3374984275693543 0.9322192713651299 -0.2308470115566863
Ni 1.846551203297521 3.8275905427612873 8.021773408231363 -0.3314403943007324 0.4779950742662413 0.13383157597188564
Ni 6.644042404265413 6.295762241451081 1.4448765287532088 -1.7553965149982282 0.8193668687480729 -0.37081246834045173
Ni 8.889600105058253 9.245970203209312 12.473325084288613 0.3933484446594387 0.4672303795505695 -1.2278835365075176
Ni 6.035729946352815 2.6796080713129165 12.754129367647645 2.397225110915084 -1.7560112657640918 -0.8056353780945931
Ni 6.713811057737839 3.561936587260816 5.382550256579088 -0.5197685586586016 1.908909114338809 0.1528636529026722
Ni 6.993251689583614 5.675042713335288 7.510518588685161 0.20288549334675385 -2.3274499991034756 0.5973783360232808
Ni 8.593754360719903 4.031593935353449 9.095269348604324 -0.8002620295978217 -0.9048442217862869 0.023830526760694443
Ni 1.526369957418412 0.6292909178408894 9.335841689038201 0.3343351993500242 0.08081851410996405 -1.1518130786055
Ni 7.945170542563804 8.758997390271828 4.466345371035536 0.46027811660245244 -1.489007087560558 -0.7003422758820326
Ni 9.03549110831745 6.401776057650238 8.363154601827565 1.3962483703695825 -0.8476706007887724 1.6908433137071914
Ni 4.168569116605812 9.198444179374988 9.948179405959989 -1.2014505391269696 -1.549418755879396 0.02588175286276833
Ni 7.1677108635678675 1.17665387800719 0.4484574003755404 0.338923590051655 0.29314098449990156 -0.3953413067197514
Ni 3.9594039323254826 2.8253489133593663 8.397109806059907 -0.2645410613750218 -0.012130978935579108 0.3859619223873805
Ni 5.308395957186879 3.56280001423411 2.675306891075304 1.0000128339703358 1.0836040257294306 -0.6258101090014125
Ni 7.694082224699762 7.278032429557694 12.953933877328378 0.580023132574285 -1.0951822174853332 0.1336513416402795
Ni 2.9373973332957797 5.761000622556966 4.667041462916952 -0.5113991036479838 -0.5651228184236848 0.9321259403203752
P 6.374549952764105 3.505541666798641 8.6606765207032 -1.0699260140217057 1.8788035532026806 0.18989216641087941
P 1.858601640620442 8.857071432347004 11.076070307142855 0.8639580250948862 -0.8567779624066794 1.1394450439584505
P 8.19613685444249 3.170269219038491 11.715179891282217 0.21526432662708087 -0.31866586824388343 -0.08355596764578513
P 0.2784824156069356 6.523913434068069 -0.0026043585335752367 -1.2671311691542306 -0.04036554830124016 -0.6682929607559717
P 1.3342199155574412 5.883794954280564 9.754378529266384 -0.4607956796688193 -0.15840309466366267 0.3129117393689256
P 8.723793970958528 2.5864424238793977 5.498894225707636 1.386490262541554 1.7897994179581305 0.14185804582078795
P 6.802988047957774 9.146310083324499 6.828842054762434 0.17615990442645144 0.9112758363442435 -0.4367165272324285
P 6.074424613862474 4.089161990290208 0.737576860890419 0.2006586608987641 0.5031224654614884 -0.45215831570879544
Ni 0.5314693343046442 1.304018741643765 0.43027663154223605 1.3798221064927592 -0.40387094145731733 0.5739805259246308
Ni 0.29597619689192384 3.389429509042271 13.671736383515217 -1.1924313663474948 1.5400375717748123 -1.2840780814212143
Ni 1.282339216553463 5.906647613845449 6.60495919461777 0.5291751966844822 -0.09808989959590204 -0.2028297004081539
Ni 8.63893411560506 1.6377520369732619 9.964882025355319 -0.2549449330461545 0.4554614119400994 0.7733358946309391
Ni 7.6141119938363575 5.375724490952171 10.661050993323261 -2.5068471795203022 0.2846964532769742 -0.6272512123233133
Ni 5.276289612886479 2.0011327867444315 6.472667166187945 -1.37102173459231 -0.6663651476056395 0.0622410082180928
Ni 1.7464969102292485 8.634006950811811 13.471533946620706 0.23460442171658952 0.26561655382738775 -0.39810112885307564
Ni 4.141174080355339 6.4863543607298055 2.818134605594468 -0.15027660890178632 0.8782086214766295 -1.2990647846380337
Ni 8.469467801944635 7.474415140602962 6.5334496095850625 0.585156082925476 2.0107438256891244 -0.11961054727649723
Ni 7.31217533530597 1.7458774952266685 2.748094723431518 -0.9734749355808072 1.2967865301268182 -0.09765949692670277
Ni 0.363300976626898 0.6905125827852907 5.468002310215325 0.31811410950547153 0.18056857501710838 -1.723042524147555
Ni 4.636518380903451 2.0077398801052855 0.8282019683057794 2.658787806388073 1.1442278100590746 1.3443393402051171
Ni 9.33350480516483 5.037345583103324 11.969116579650548 -0.66095580366461 2.008446545014515 2.890720851920086
Ni 4.908751274537385 5.387493376001192 8.938884892096873 0.6531507057978945 -0.11915263380347221 1.6598473795463091
Ni 1.7623013778708365 6.662699934949188 1.4571709780468434 0.4036410848346984 -0.1284307166712885 0.8957936815482445
Ni 8.746928182797314 6.963594850066145 2.9781041610562453 0.3177446419811947 0.8212882541405017 1.5413573190275003
Ni 1.0245311844190064 7.682482271015081 5.008834661340627 -0.9274748147016091 -0.4173548348763651 0.07224234240517881
Ni 6.0355704000642705 8.019650504086158 11.357177728450118 -0.6389605303404414 -0.261844231269149 -0.07621752500284293
Ni 4.162731599460284 9.468602971257859 12.362845849025401 -0.55049709809071 -0.6417123820539657 1.0172816483531124
Ni 9.434347444600023 2.917294500939318 2.2931165723924534 1.088196015975487 -1.1582840310418245 -0.5832681218741439
Ni 4.758552521487518 5.005464480622044 6.716097262201908 -0.5544712522471096 -0.3425017943212166 -1.5807535614369357
Ni 6.149796157585511 7.05786793644367 3.6603297219130786 1.170897606040777 -1.1917777919238959 1.2558116303763533
Ni 3.938653529739051 3.274565566366857 4.424162270852254 -0.8786891606574738 -0.4235843607258447 2.0323490626637257
Ni 3.4190300381049603 0.23701539670693983 7.790802000337478 -0.1570308969064844 0.04646266233791353 -1.4716678249511623
P 2.5796194737752205 2.698312527375675 10.258530723449669 3.162950540188617 -0.7190208261281424 -1.2078708408310164
P 0.9394930126254019 8.697816081153352 6.971215531613039 1.5604639579499642 -0.6115451144419661 1.5509971561101095
P 6.472943087416367 8.528274686886554 0.4401638088940253 -1.165069429394774 -0.8976744435107249 -2.4714420605481306
P 5.545641288250836 5.778513173993547 11.190629234854876 -1.2721229659418671 0.41416898094921567 -0.19913811048917962
P 9.143701032253025 0.7163384343625604 2.9724440218432755 0.648335029576806 -0.554457882510671 0.4082868111368259
P 2.68216081192961 8.068237041485505 3.8770564617627827 1.9375059521398954 -0.10533115453934762 -1.082409748311013
P 5.213372064745619 5.105406152780757 4.531082685373369 -0.5528236893413576 0.8284382349217216 -0.31604797100506216
P 3.6011755891666835 5.9742576998846415 0.4750547051832961 0.7763502559772306 0.5416453041270349 0.6566317223679595
Ni 8.978157680275608 4.225048502750156 6.892316137898034 -0.11711709143068218 0.5523714322952874 -1.5369144527647982
Ni 8.566518870757973 5.267270555045882 1.6015631847013119 -0.09242010290463439 -1.6582083012809894 -4.2084341048972425
Ni 8.94221283997437 7.30172974594428 10.596271446144343 0.8532478377662338 -0.2985058483562407 0.20819790669860272
Ni 3.005673759716536 1.4780931275203542 2.9602743940577367 0.7341677090719098 0.5502528432903878 -1.368637293520533
Ni 7.359213335198867 1.9944506127772044 7.679622638419835 1.7073482533407498 0.3202419544817517 -1.9551676310857165
Ni 0.9871128872176929 3.8366565259808683 10.597219338799805 -0.4525141563863175 -0.7235963613139668 -1.2798612151263893
Ni 4.112258661825806 8.381961355216507 0.8981902325518478 0.4965083025790804 -0.6236447259189776 0.09902141027123591
Ni 3.727113921282165 7.066126803144738 12.27529247691829 1.7456489486931612 -0.4598047765104597 0.04987348779167539
Ni 2.363987972270988 4.646241319428798 13.059714943647776 -1.0700985350438281 0.5115184028346674 -0.4662394763922099
Ni 1.3745757414831115 1.519030828145418 11.553149373175494 -1.9474970019143367 -0.2601678720079907 1.1343038660771432
Ni 8.757645939357108 8.89372015333299 1.1461636437589766 -0.39276891800688485 -1.9925465859548073 0.22084336337675514
Ni 2.7171577595753833 6.920536122311034 8.380763819544853 -0.7324337570999386 0.14588979268800034 0.025512285338491546
Ni 4.684776440649915 4.3161963588873915 12.578570262780023 -0.8807005346605478 2.9372565335877803 1.2568231023600032
Ni 0.3872469975220951 1.9672620481942584 7.4829367894263354 0.9240117958536732 0.9157300154608551 0.33865413844035225
Ni 8.2558165514335 4.329541936670253 3.625811413132936 -0.8371082518918939 0.22706209059295734 2.610829533341239
Ni 3.2663442399689764 2.2709255606712326 12.605355269103711 0.5510342015411026 1.0840128311320751 -0.8252001876003981
Ni 5.72643538839784 1.3700896752523044 9.070504010592078 0.2355145922356847 -0.970217090765142 -0.8266641737404343
Ni 8.63549917786348 0.08140802447545338 8.130260191902943 -0.34593138882805585 -1.912015778288591 0.8676776400383186
Ni 1.5866784544877972 3.5855400528894354 5.210067579557613 -0.6695702848064984 -0.2741569871982311 0.2807796347210713
Ni 6.16962682274387 7.197076765735639 6.062702654192436 -1.8573656950438784 0.30957984678221523 -0.1996515597904884
Ni 2.3546028964743204 3.1143810926693356 1.0182459991579782 -0.1219098848336352 -1.3820443109550584 0.25825240015283263
Ni 6.723505841035797 7.684941160873807 8.785921295717307 1.006553977522963 0.9212380897632779 0.41189458309274224
Ni 7.1495788971287055 1.3179086538228328 5.113009002683636 -1.115910194061304 -0.4718287975545294 0.5870229609308858
Ni 2.771647509650835 4.622328146298889 2.6343879606018334 1.0727531990578558 -0.864935301406491 -0.2780969456825856
P 7.9745739850347634 5.941194077852983 5.2688988656966025 -0.3840783322114224 -1.1269248000042529 -1.0904025367085028
P 7.775488372160055 8.995351139135103 10.528663237120309 -0.024574861125886707 1.738940169214418 -0.5994146497270193
P 2.97403666920597 0.9599806330895272 0.6175971133982416 -2.9737374021226333 -1.868737170105614 0.30884502549871967
P 5.519485082005524 1.0834037648915016 11.102663857920291 0.3643042349082887 -0.30667681420280735 1.5293944902386691
P 5.2548259445395 1.6121307800483597 3.6449457056671815 -0.3125003628631199 -0.46538715569424366 0.23514641026298858
P 0.786460905192521 4.953396080102133 2.8076815081721396 0.4587976754021841 0.23450851956867352 1.354528364922977
P 2.990451166774341 2.3733918182192486 6.4962518616649705 -0.11454675960034465 0.1533393069875101 -0.17403951564933898
P 4.747102729015584 7.4923124801472065 8.16200427227759 -1.1783147244404544 0.4161217338002124 -0.8858882495090743
