# total energy = -340853.4858474199 ev
CRYSTAL
PRIMVEC
9.41600696897214 0.00000000000000 0.00000000000000
0.00000000000000 9.41600696897214 0.00000000000000
0.00000000000000 0.00000000000000 13.78127798365610
PRIMCOORD
 96 1
Ni 8.951854097743315 6.76446865347741 9.483462064312349 -0.3012026784621135 1.8738963457090503 0.8493945254584145
Ni 4.1367342383045544 0.831277088871546 1.2161912033353441 -1.699668368197989 1.1314769381513092 -0.03508141708416539
Ni 6.5372604109938806 7.149140776568152 9.090985013240065 0.11563896422325891 -0.25920139432966327 -1.3630808824786784
Ni 1.8098883183062202 3.731525804527671 9.083487988678716 -0.6828626310400304 0.3949569267971392 0.9705708745601348
Ni 3.73951999424456 3.303285818280224 10.348113247450726 -0.29892570950247876 -0.259110891498386 0.7265587863764004
Ni 6.2200445601431715 6.623567528714727 1.9631846743331098 0.5579316999918842 0.0346651554823532 -0.35842849285380207
Ni 2.1477158078969394 6.004031949665979 12.650165880118626 -0.5863259348638612 0.16638302754534573 -0.2409391056853657
Ni 9.265077561738947 4.582610405164171 10.488889139323852 0.9095580823221884 -1.8315466770982458 -0.7952388653516175
Ni 4.310318322439816 6.40897673525432 11.783295344193125 -0.6914922816905703 -0.03746714370752257 0.08147748785020162
Ni 2.0942517216631447 8.859746719874524 2.466269673304504 -2.6003322333543406 1.469371829828134 1.3483163225749941
Ni 0.5224433672151524 8.359869754397293 11.199824012535016 -0.49874233411592167 -0.26578084731939383 -0.7899524201416976
Ni 3.0438560007540656 6.202577867652208 5.620914409286966 -0.5483240016987911 -0.4724198941713089 2.1081624102496144
Ni 7.220485859589193 3.173702733611416 7.299859971552036 2.2700048696121295 -0.9414024805262948 0.914844013311476
Ni 8.174252013656398 8.759974712524526 12.580308526161506 -1.3984662039565077 2.3171388469854546 -0.5759296792312016
Ni 7.519368745329441 8.146098153522715 3.7516223876993497 0.3386749643759587 0.5873723738505046 0.1840457349324314
Ni 6.42930589379232 6.850050738679763 12.50459347441537 -0.17928559453962672 -1.2973434310715528 0.7948992226240116
Ni 3.8366461037023964 8.088547520366506 1.7969271850373192 3.8395785031728455 -3.381037423866158 0.19445767429437477
Ni 9.211688803559019 6.198312416601854 11.921990298578107 -2.0047984067389666 1.5327657207037473 0.992395169524078
Ni 2.413218949766317 8.302516857382491 9.567652463719469 0.550679132194529 0.6961714323337945 -0.28381610755454995
Ni 5.242493573066709 8.812478366071486 7.673002194397396 -1.1779046334862293 -2.3387111738395916 3.413663694541611
Ni 0.5411944030245888 5.200347526926788 4.050220910036241 -0.3126661990170228 -1.3799002680288621 0.7415963974358131
Ni 8.311697463947821 7.135713550965934 0.18744632924857496 0.39651655797477514 -2.2462111096266413 2.454789025372482
Ni 1.6544300471332791 7.044500693736844 1.026811767904346 0.2296553052414303 -0.31211084073418505 -1.0788695963682389
Ni 6.8397307952996576 1.7392211877700046 4.809431649770946 0.426456282957001 -1.100740171189085 0.8756174637106855
P 0.334467858388145 5.093852490768946 -0.18740866522164026 0.30950297079769273 0.12128202144164918 1.7562259528780593
P 5.022309671606499 5.365833845271092 10.105894007032376 0.5041570773735897 -0.937169930502186 -1.5372664367875781
P 7.389305444317216 7.696756896185106 10.920270305417652 1.4129607980282568 1.0112932919801616 -2.1688802969549617
P 8.755944661642513 2.7386643905022567 9.425057399345398 -0.32765187379257765 -0.38811650683653803 -0.5424428603276658
P 1.616135147747431 3.380732473664684 11.482932262194343 0.6229153039521208 -0.33209833959970547 -0.9969290528386896
P 1.486297830896814 4.572836590174619 7.2236355138416055 0.3911810046944747 -1.0207624078128614 -2.259047856379993
P 6.196335055187783 1.1907670435537536 7.2342614774405565 0.8631995496623069 2.2287589755884647 0.4636074380860015
P 5.84944936711927 8.05502653639463 0.3692788352825341 -1.6690195329638804 1.274083689212664 -0.07967077365876601
Ni 5.35665323870576 3.378482048055336 8.71452176481974 0.24696500016447143 -0.033467535629826226 0.11940460191327823
Ni 9.071748111483172 1.9795647596470074 11.714306146056847 1.5820010606907915 -0.2492820783334223 1.5400062043162446
Ni 2.4992718353053545 4.854977815942397 2.0128249202323603 -0.09662668478681423 -3.0321196987162686 -2.7937856347539176
Ni 8.943841076012959 5.315571201326746 7.857464591112071 0.6123907502717131 -1.8415863207224348 1.4173851523481975
Ni 5.80332976613774 1.0467021405285568 9.498773432861977 -0.06866156703245595 0.5868360417310603 -0.18287434033214955
Ni 3.3843576362571484 8.512079503247117 13.412972592824925 -1.3061600009219183 -2.362433457157196 0.7053186460507014
Ni 9.32617802943375 6.6724930997028915 2.4676613590997407 -1.091551048490649 0.079194862463612 0.24516085707619711
Ni 8.398305893884146 5.4184693229123235 5.8851294414351765 -1.1447132343359254 0.7327502598990928 -2.7453625062555234
Ni 5.339873914706355 9.470619572728294 5.692094712190166 -0.5874129972804528 0.2362303873557867 -4.671810143698728
Ni 8.746406246821303 1.0639334328511785 3.0381376598647063 1.097977006621651 -1.3198912344650817 0.768721021566747
Ni 2.5616434639092045 2.5515400886839736 2.9396980174675216 0.11156273727135625 -0.585235787123476 0.039362303847706406
Ni 4.020973851520779 1.8200387735651196 6.789635756275171 0.20268880395491548 0.144913287707344 -0.036845450963123645
Ni 4.844064664138069 0.3232355039555465 12.465840957102266 1.7126444687426827 1.2063929707339094 -0.9812116421034327
Ni 7.1967669386270705 2.96783116238639 10.997831836084263 -2.135966576946076 0.6022876003994402 -1.6653035175648738
Ni 5.587326571667281 4.072903128656986 1.6461044139793655 0.051908773054149315 0.5464949189098524 -0.652395829909741
Ni 6.063720016350732 1.586936110866311 0.49162666037718744 -0.9920331581989689 -0.16772591472648532 1.817816471996347
Ni 7.163584930897607 4.819705454718058 9.405377003671347 -0.8583103398908057 0.044520193899562036 -0.16617836773370734
Ni 6.042637577274038 5.29094834371819 7.086112852294965 0.798832753350463 -1.3123802708000172 2.591250839878363
Ni 0.7154027684062929 7.853382752193022 7.160103833208168 -1.3533274026363402 -0.8513686184656498 -1.389775361050729
Ni 6.609217534452609 5.971480814387672 4.2278199794427405 -0.34983612319910073 -1.7619929372688234 -0.8769783486139542
Ni 4.8979053906412116 2.32421885411964 3.247861319444478 1.1235309438313552 -1.3346676214433078 0.05280120296143164
Ni 7.460528119250719 8.365848918673175 6.39309381509596 0.6767408344130087 -0.2519084602126758 -0.04382625315633098
Ni 0.9839162076284255 0.9706302221272128 10.17522688941443 -1.4406155836310481 0.9175639833458004 -0.9989987908835246
Ni 8.086240598716756 0.16405131891809105 9.402414727952934 -1.3613001364291715 -0.4475812378610743 1.146378280743174
P 0.31810189708434805 0.12544851611205188 8.249348433760133 1.5288298759844507 0.9964068617866323 -0.7810618025202871
P 7.131401019881912 1.6396939965950807 12.666454630167207 1.0044698413004247 -0.7379672853236581 -2.0871958353002764
P 4.3708538297306 5.7236138531304634 2.7235799477149123 0.10614413735894623 0.3361858794055178 0.8540585065929871
P 0.7695090262993246 0.06400624737281552 13.124089506235837 0.43730325297383404 0.1169805658528179 0.5155000131902348
P 7.795408398733798 4.88795267152372 2.3972390447386003 -0.17810597240922876 -0.40480785144929 0.2336214889780299
P 5.921557146685738 4.698794512250963 13.085916073336852 -0.9805359561926469 0.277376008356161 0.3316669084892417
P 3.2879377273043366 2.8507525346599 0.5658511582573849 1.5388839177863431 -0.8099193501819276 1.967580917148405
P 8.558020200100708 8.55438562150151 1.781588510068166 0.40610445877352636 0.6565324777859339 0.693546850226754
Ni 4.989193575924172 8.24280995868427 10.487524759948142 -0.5354954824755552 0.8058266681697929 -0.09527222764144883
Ni 8.630598780003858 0.9555646113533361 0.5343951045622035 -2.1201710046747166 0.8917076844043289 -0.3370664822382582
Ni 1.7910468888321405 8.311085423510132 4.655370713997283 0.9015809776539828 0.6947850935092292 1.1132406176489407
Ni 2.3092474034131 1.560882020234238 8.541277598527564 1.8090842343296714 -0.0935400754416905 -0.7032319387250018
Ni 2.3123923496621464 0.2346271141889902 11.766358772881265 2.82909305180596 0.41497322201806597 0.00814988280064403
Ni 7.330540146292362 2.463142617468251 2.063677006198235 -0.3362948941795563 1.544927809987578 0.3749450024515865
Ni 1.3769026646650013 3.086369271156599 13.65397999317665 -1.2598423488023012 0.7596316576709692 -1.7801603522064695
Ni 1.833305927052865 6.281804148309332 8.36713702839434 0.5461041112293369 -0.81368678764416 1.1685255062641746
Ni 2.313418694396117 6.391312306621949 3.3927162254346297 0.8002977679317637 2.923315498026656 0.8995318084344379
Ni 8.089696273188014 3.417313659825004 4.071168700216643 0.3450225038605413 1.7550586720428354 0.4157692355568001
Ni 0.4263972737296678 0.903198431504687 5.3852684831693916 -2.1921989170762437 -0.3598585404321093 -2.1274153449419555
Ni 5.612533221693323 3.4816532338361914 5.820094966127044 -0.5953564204972457 -0.6026681236673105 -1.2627304689833736
Ni 0.0938719375306795 2.9142540840717905 6.330733485700191 -0.546068115785079 1.7012321131406831 1.8687335705611883
Ni 7.872657317976851 3.7945094735692098 13.130111984142694 0.4819242341173184 0.303629028515419 0.8387900104696909
Ni 3.804094968424089 4.234246404038472 7.211315610631268 -1.2533279447225512 0.38596115105643203 0.33616891012465333
Ni 3.738719633672198 4.212523676503889 12.725080571292404 -0.04196965956356643 -1.544304317470966 -0.9559598095151794
Ni 2.0375767771331668 0.3323002936380535 6.610589446633706 2.1340752734606343 0.4570529247969354 0.7858715652041046
Ni 0.5219386692542275 3.197449902593739 1.9570934595770968 -2.2411187827053984 1.7076431588733494 1.7545207972614942
Ni 2.363144625956644 3.627610754214856 5.3058472911728805 -2.62863802227757 -0.22652961512825504 3.8634293416485144
Ni 4.178983860518546 7.775992592848964 4.377747288260322 1.16282562766592 0.022691013839612532 -0.8790277749438152
Ni 4.326805750230478 6.561883268602435 8.324760290089447 -0.24382131232916718 -0.1369292410606029 0.15317321372329104
Ni 4.198964626807399 5.83883752753042 0.41985503225111176 0.6005917007542559 1.745234486863562 0.9322562952506525
Ni 1.2621497906017285 1.2070849832232091 1.2716684318087987 2.41186008721944 -1.0803371820527008 -0.07780518120493697
Ni 4.0109175563292165 4.127506551705555 4.392851504661807 3.9845028466237835 2.771202350136763 -2.934842524829649
P 2.9264289807784296 7.9357728111126615 7.291081428474233 1.1964356024108815 -0.586017916705139 -0.27417601336162456
P 3.3895552719741358 0.7252707434631822 4.008174673567698 -0.009233602783126032 -1.1048693628661101 0.3293156346482457
P 5.927931783244434 6.847470752834737 5.95396704186304 -1.040382496036634 4.206320143878034 -0.8953020866238065
P 0.7475960954287209 2.960138284884979 4.3748255013708635 -1.4084048032264582 -2.1183239241636485 -3.0000331025943687
P 9.408370352211982 7.392704622748071 5.033846163056595 -2.2748454855338824 -0.8918051292141416 -0.2207675158334972
P 1.4601119161704696 6.517025412523218 10.586391889051034 1.4154599103010268 -0.3539789417228807 -0.2635869249918686
P 3.7801594793070925 1.0099420502402976 10.263400259669892 -0.009461402523215963 -0.3380383592332243 0.2948204290848535
P 6.322349473304528 0.5021744711202479 3.098389745352806 0.06300771118078827 1.144878813379512 -0.06088963639652093
