# total energy = -340897.14385019825 ev
CRYSTAL
PRIMVEC
8.99975018401886 0.00000000000000 0.00000000000000
0.00000000000000 8.99975018401886 0.00000000000000
0.00000000000000 0.00000000000000 13.17204410300771
PRIMCOORD
 96 1
Ni 6.407975081642606 1.8077888064816316 11.214467128693906 0.18667931590053657 0.8285163964578248 1.1853045254947263
Ni 4.694107667419898 0.41662903223450254 6.004423586308395 -1.4512362965696877 -0.8153742026489118 0.4950903391856313
Ni 2.9490561190291977 1.9105389536088964 4.679263479570926 -0.9643901996707196 -0.9212074936356587 0.8874931321023489
Ni 3.50502468248141 4.4022907697583795 5.026952625931358 0.45638032420994307 -0.49068938190445816 0.04125489288472895
Ni 5.096315500061099 4.354421098866734 2.7775757802056726 -0.9961376672856458 0.6949421879123838 0.5236267560624273
Ni 7.062229916162249 6.073877357914355 2.692233849736748 1.1510111515294952 -0.5475485569853473 -1.3256273656179105
Ni 4.856814149850818 4.646004003025116 11.357159966806563 0.09649710118748543 0.04399363197213068 0.5818694417544044
Ni 5.748500392052996 8.03560689020941 12.308445254232607 -0.08532231551758854 -0.7179769582446602 0.2320351183275165
Ni 1.8484226782762887 6.534889557843769 0.3963732946379943 -0.590530459863512 0.374192183445962 0.294053469011842
Ni 2.7953673862191515 1.6477732493367805 0.23206395671058916 -0.7114957213956908 -0.07753264426984066 0.7403519835057507
Ni 0.5804658832805745 8.885732286354505 4.645950904499404 -0.20491640773385356 0.3638519778622185 0.09020638308276722
Ni 8.467477899248216 2.37806697262565 1.4700128848790774 0.6392546645420927 -0.587495272581614 0.4125959800351411
Ni 6.659428100013086 0.585821634577363 4.755845953247439 1.7617047166044433 0.7275646019330954 -0.42078262961099144
Ni 0.6539866419660479 7.462403805276186 2.4656093419990692 0.8066861879566107 -0.39142551660511293 -0.03026779774560594
Ni 7.520650188056922 3.7905057560580033 3.6986705058770415 0.35766410388395176 0.4753049290285879 0.5033695484752879
Ni 7.6481586477660475 3.7194347293553656 12.681491196557921 -0.8688338651299488 -0.23188213768942004 -1.2182275014749924
Ni 7.8647466341691965 8.791180911587137 6.930128883966564 0.13545317073570864 0.29961116560527756 0.034037806310999445
Ni 6.900738399997613 0.8950404490721373 0.42009843590600654 -0.6845649584431178 -0.513444930433419 -0.37565951202010783
Ni 1.9309233876321295 6.506423348212208 9.057031730200606 -0.0029984205066916104 0.09248180938050525 0.5640925773869575
Ni 9.068868201559262 4.653509794625723 1.1945188340113506 0.265776990664652 1.7699291613967647 1.107060456980158
Ni 6.357477483715735 2.140959555947458 6.977231776147931 0.5210451113781801 -0.8796481821366334 0.8592171679757913
Ni 3.2612664504640705 4.374814532640087 0.5953316705298357 0.3823832038971866 -0.025890494613516703 -0.9357388544826143
Ni 6.061304706995831 5.633006598754915 4.810048748298975 -0.9712995251960432 0.06924340767785495 0.6988266105684545
Ni 5.347984512434475 2.8227356263359957 9.263081909187505 -0.17695746062708234 0.18305406044312345 -0.23990655065579325
P 0.28686073527008615 5.598447558291686 12.233193843598936 -0.13881488811908996 -0.2841745193352332 0.7643565739504643
P 3.9693847894557 6.30805085605322 12.618686440341085 0.36153309992105476 -0.1369788633516157 -0.11359725120288179
P 2.3640093629372214 8.526840251043911 1.445829656329925 -0.4850740926002097 0.09413194338941853 -1.5424258695013306
P 6.232038966534355 7.776441085985547 5.799756668915037 0.053192010641947104 -1.4831498574488329 0.40762475207279475
P 4.761056808567285 1.050612829582432 12.439863205394136 0.4738543126249904 0.8733723764302507 0.7662273086106159
P 4.03238304030013 6.115573200223246 8.178561621050578 -0.7358384119061134 -0.4670966821861826 -0.9551198301123874
P 4.7420223370621475 0.9395019145930995 3.7550863394832406 -0.7238622133808437 -0.3892773599138586 -0.6133680265833178
P 0.17291129909270597 5.555743743969283 3.3368742512025187 0.07674922913659685 -0.5021331049650255 0.9036373459623792
Ni 1.5603136776644708 1.1341215109517837 2.7235574800316105 -1.0905416333895284 0.26580373013752934 -0.88661972835846
Ni 1.7957471408202248 6.4001992975383795 4.6302634400641285 0.2525743759314489 0.44061097719082826 0.32174862093426526
Ni 5.918901660837057 5.565499473100049 9.200528245999037 0.11962905921925851 0.13364002878636985 0.05298812216125713
Ni 8.661647508100868 2.391125610050688 10.072530234737364 -0.23805792748282872 0.29948235333689716 0.5647027001671306
Ni 2.2365639014789402 5.168538494779177 6.974202460257327 0.30243063733194364 0.2642281581202934 0.2681156661001576
Ni 0.564998912723255 0.04612371936824311 8.98354517056559 0.1904747783872268 0.17580020709418756 -0.0037018743316194307
Ni 1.3970132117255887 1.0998684619926553 11.206459151036567 0.5871330041461889 0.1104587055739001 0.6347614046574294
Ni 3.8540529916597914 6.722534347858963 1.616605314719005 0.9113524552184499 0.33415650768031485 0.7568144999371482
Ni 5.59594562775815 7.73665319070223 7.9380010002510994 -0.44325407124063015 0.6445117991759739 0.30484953118608143
Ni 5.27581551621712 2.6747347356021893 4.922827316985661 0.0640081274208446 1.4890999043846804 -0.02407555289196499
Ni 0.7791785659941226 7.3447410721990325 6.885132833288437 -0.07055724139327202 0.25460734720107764 -0.18754603477620602
Ni 5.148775043514267 4.3708816418373715 7.107951346700099 -0.07496925441803863 0.6623742812786915 -0.07774501739096287
Ni 8.331833665430038 7.024016977150042 9.31796958522322 0.21936857860344153 0.6612347683576096 -0.49290721549138333
Ni 4.597999335881661 0.19899707481736015 10.306663234000688 0.06741381066828389 0.2247308713566194 -0.4171054378697204
Ni 7.98498329578085 7.142372690986483 4.713523728330151 0.6649687814787452 -0.07405317036167246 0.017785863228511306
Ni 7.393186727098399 6.164009855372492 7.154277560446057 -0.528455030689006 -0.42302026069225857 -1.1810071836709533
Ni 2.3787779528851796 4.795066864273157 2.776021523359839 -0.2652604560395496 0.9926448236410388 -0.025009377560144024
Ni 2.431885478347034 5.412179730044948 11.464143596390572 -1.194033163616976 -1.249878809831686 -0.9123893811233963
Ni 0.8692786643518259 3.2500527618137616 3.8572749022029775 0.553872442320846 -0.1110711423469184 -0.34863464669183186
Ni 3.585257454806851 2.4746432911701604 2.5274646245781787 0.4596857344340922 0.6468340195512473 -0.6807450704763954
Ni 1.007522026004842 3.2624004189792704 8.176941666028863 0.4613183849415087 0.536760722341224 -0.361003709780146
Ni 3.6564724775114184 2.4868469523337384 7.024584861382654 -0.10728545005224105 0.5327305181359083 0.04268339780113939
Ni 4.069696004300274 6.871804203359779 5.994860451830211 0.0005214197211087793 -0.08316978795095999 -0.33484170667279756
Ni 1.021939625698096 7.534239810739078 11.48375675182847 -0.46601450486559737 0.17130283344446626 -0.5075270222870871
P 0.25265358503657287 5.503149204264305 7.991624211394866 0.4729811659914176 -0.40101470295544484 -0.6892695630076388
P 8.378083381299971 1.7298059716863483 7.978333380416714 0.12160520910902281 -0.6460848000900485 0.13784686777886582
P 1.7520353544843112 3.3944537524993152 10.37527642894538 0.6164723765402543 -0.8546837988818119 -0.7655755339592298
P 3.9200751585447535 6.123150989824819 3.8182069869293107 0.5297020157222296 0.11604596985369048 -0.5590673562582243
P 6.747148664438894 4.02171833640718 10.589361584839981 0.7997547509441001 -0.7931138485888147 -0.7425091390580696
P 6.421429708072952 7.557963152057066 10.042946256140821 -1.4430599314064823 0.4968142638552734 0.6542123142931895
P 2.345901865694508 8.389765056956552 5.689914718692713 0.5665312687354372 0.4190288801446784 0.6204257047610476
P 6.803991086200811 4.035136963837044 1.561269451127282 0.9356540080782918 -0.4680459334733294 -0.1340058967662208
Ni 5.182479107716037 2.973796432110817 0.578837828483752 -0.060601929952773054 -0.7820521914580145 -1.1110047863398864
Ni 1.4976034188239014 1.140583331538398 6.928719523097674 0.3609515163859719 -0.23653197775660553 -0.37774467668391076
Ni 6.913023058912278 0.5979541977149881 9.25142453285625 -0.6590488164498843 0.2531456750538866 -2.0134226580728685
Ni 2.785503660086938 1.699008826773543 9.17170744621272 0.034950547933255936 -0.7006739481898384 -0.04038020358925949
Ni 6.238491787370849 2.073506428793315 2.7026663600765852 0.5125756404545881 -0.7573711437715666 -0.8753652384905634
Ni 4.004501814426409 6.795981308593448 10.337407280387781 0.8302081823379509 0.8074179239163126 -0.026899909714637543
Ni 8.166130266208947 7.019634098841294 0.28377202102868493 -0.418870243079627 0.2928010846619796 0.5776687734094955
Ni 7.59984798911849 3.9090234653966163 8.402144213247482 -0.4092440328437726 -0.07129951887593527 -0.5249873838553798
Ni 3.247091844024074 8.483047466956911 12.335513802670436 -0.5456893922894215 -1.0575487234032752 0.27051707645279865
Ni 0.17179623005275954 4.971254972384785 10.099243293045426 0.07694154765306103 -1.2167007804178207 1.1666879388348035
Ni 8.59835226550246 2.118046192140327 5.832172868874543 -0.1059065674268434 1.0052607126328366 -0.7162844010335858
Ni 3.632344147438002 2.6206732366275483 11.316563893962412 0.12711611162492303 0.07291314321995829 0.03904580104855211
Ni 1.1208108805233679 3.4513861717624383 12.452758047366979 -0.04298858774638403 -0.4587097436740681 0.11298172910606995
Ni 3.0502583091357134 8.377723391295145 7.868149439689807 0.481273745017513 0.0864919103456575 0.0853750231323949
Ni 5.5556267472177145 7.7846218588452025 3.4273793383156503 -0.8702004064601723 0.13019115100582096 0.9074868016154565
Ni 3.11562349426187 8.318712029754156 3.4319764106772697 -0.03158883054987463 -0.22938405385791463 1.729636632425305
Ni 3.410860296969229 4.257826780821982 9.226002938690499 -0.054714103713428344 0.2598099744479397 -0.094622766982908
Ni 7.1983421369867 6.052214959373991 11.40662169349455 0.08340632944179828 -0.6301617011018888 0.32160849581197515
Ni 0.4013006578290408 0.05419739520146279 0.4076796807145453 0.7865850463313614 0.480293897602747 0.005909937726531757
Ni 4.543829839905571 0.3096076036999856 1.5210288684128965 0.4847185090330039 -0.27935241535624145 -0.3973688786727415
Ni 5.832873049433928 5.606943322405563 0.4328042831263159 0.14142841448253707 0.6907764865704684 -0.3025643346963305
Ni 7.946113375009837 8.735166466836318 11.104691776622476 0.7911461833394826 -0.2992087879605363 1.5791931589283512
Ni 0.1288773217024738 4.792789927492636 5.611185804612429 -1.1283013686368053 0.4052775919968568 0.47556872421293583
Ni 7.809290173925858 8.786870031279355 2.5911252570314867 -0.15718130644141962 0.5866236686099381 0.04314105416384829
P 8.411733447001017 1.5953137058836118 3.6413195982333093 -0.3520166757901873 -0.18409664277502488 -0.12860400902435914
P 1.6642517918076591 3.1475726071901162 1.559280506350622 0.19170839368401177 -1.106403025901817 -0.2423131032147569
P 4.855446187832483 0.9414188613687943 8.20053271102008 -0.4339952716465235 0.4497407074062384 -0.06736881636296138
P 8.518227490178464 1.5891218778006164 12.161498234237929 -0.552876396956164 0.1944468756610974 1.4735061637114817
P 6.327238323310408 7.735546221437391 1.4088550829343174 -0.25665317398651283 0.010846970016832932 -1.561669548222291
P 1.7538533040086792 3.294583525410653 5.950352187608621 0.2828334319263065 -0.9963695807907937 0.05762150716821044
P 6.971125445691083 3.943006521852126 5.9178306905727025 -0.13344385361516375 0.6253894765242262 0.14357040052620434
P 2.427619596789854 8.469871832780305 10.075124862697143 0.11792158960984853 0.45840789616293315 0.12382278558563192
