# total energy = -340869.1155371869 ev
CRYSTAL
PRIMVEC
9.23413726419273 0.00000000000000 0.00000000000000
0.00000000000000 9.23413726419273 0.00000000000000
0.00000000000000 0.00000000000000 13.51509328704242
PRIMCOORD
 96 1
Ni 4.841347216308811 0.22736015082510116 6.848300091066361 -0.31135390796350254 1.146653903002064 1.0199789926796174
Ni 8.241568842649446 6.6821816601991495 8.176671327855635 -0.000301847511134964 0.5645162951879374 -0.8861823837107253
Ni 1.8501609222542756 9.107379995480613 2.453313512187087 -0.09896741710484891 -0.52385635557473 0.02830038960658997
Ni 7.657842106710906 3.3877001365767754 8.812313305388125 0.43492523965996066 -0.10546793722752805 -0.8952195542123293
Ni 6.75888040207129 0.7855184848409621 3.0955782127716733 -0.9445978475351411 -0.06176715390546782 -0.3617696414118931
Ni 6.714196413157338 4.851079996700483 7.045944789044779 -3.6086211912905397 -0.9256143644541026 0.9148211304933407
Ni 6.687223498997871 5.1837674843202155 10.15940306127793 -1.1969755340747514 0.2517462236031987 -2.89377095160032
Ni 8.637611744184992 4.3114093283603045 10.963997426321093 -1.515051848363752 0.035352668467681043 -1.1643166103891496
Ni 1.1055570516063162 4.196795219990811 12.226009384430402 2.0225719286723036 -0.5734344236131736 -0.5285329351147929
Ni 3.9814736135647846 0.9883204483305277 2.0142755453937906 0.5555290040876626 -0.005491619242190542 -0.7151698278131683
Ni 0.3704421801333886 1.7992161884583928 12.980868687623895 -1.2544139786978783 -0.28995153102832644 -0.26490770068582115
Ni 8.93778583544886 0.06977221571294354 11.275128744542036 -1.5642787037103643 -2.185807411727603 0.10875612106049656
Ni 2.986513820735573 4.970976031430544 0.13539461026078475 0.9402627104948968 0.4481497087700347 -1.0271382294322182
Ni 2.759344816546247 0.11605094008575938 8.264425178536987 0.006175018462460333 -0.023790160441062257 1.1436223152645915
Ni 1.9938440938808721 6.742582150276886 11.882997208237683 0.38784371279112556 -0.47361751402383595 0.041112967990225964
Ni 8.72331376962628 9.059519463440726 1.914453601074981 0.8394194165235737 1.8363412702734117 -2.4397087340005923
Ni 6.398379693825639 6.519854765981672 3.5589702924729387 0.3418834440109273 -0.13449054971212324 -0.8152055382815314
Ni 7.711307759906151 7.848388523582039 13.139319091131291 -0.08659835401653473 1.2375020334338882 1.06099657274256
Ni 2.5610786611481333 2.2802223844757075 9.643491827423306 -1.819281229467331 -0.3187193471896382 -0.976457415247899
Ni 2.468137072303551 4.54774783058467 10.254063123017096 -2.209775492507427 -0.28010806257534343 -0.8178951692985528
Ni 6.304219198897849 1.816059254335444 9.91811875527958 0.49280385714429964 0.37509618331747013 1.56800603196328
Ni 2.885658576487135 6.858756827798364 8.07010569329011 2.0164804710625854 0.6909842317059003 -0.2185818210360881
Ni 1.100441339711642 6.7124326929914835 9.508178477568068 0.22931000608686958 -0.11797866810002906 0.26419370533793207
Ni 0.9848114762728087 4.477282131183477 0.9115090499870601 -1.1574353098882841 -1.8634579239845455 2.7602347953816655
P 6.882802520530733 2.487002414182287 1.5592902240118602 0.13390819484609195 0.06092048963445637 0.08848991461229277
P 4.833775223973733 5.561249770497827 8.501736958800521 -0.16333961273333159 0.12199498834827377 -0.09848482104147555
P 5.668208779299298 2.2318447407641564 7.937725105344165 -0.8292810425379912 0.16999876992106208 0.02613680629636789
P 0.555210797487377 4.051034367540565 9.043665373635731 0.027333397707630346 1.0970483241597944 1.0725765642706753
P 9.242355375921871 5.815770288463373 13.271685827871744 -1.31873243827029 1.6055014578055766 -1.1486783896312602
P 0.6813454151705813 0.8734717928813868 8.90718944593295 1.3846750637096863 -1.793977203484904 0.7288864060683125
P 1.8735048205751006 0.524647650864645 0.38662869887016627 0.944023977309542 -0.622827886444637 0.6565910989380112
P 2.8097077997115076 2.641120160612101 11.660349237520618 -0.27302261648347176 1.1757053118420655 -0.347009452383583
Ni 5.2237420633672285 8.030993582638335 9.4045991629064 0.40272320100611936 -2.1476458130562173 -0.8543829798119416
Ni 4.280567310800354 0.7026901228322059 9.842812521266135 -0.013618362114382998 1.4245793561037918 1.0504607062082425
Ni 4.223574217273403 1.3443241318601022 12.5181386955451 0.8168867826386964 0.797235326956356 -0.1233702714292456
Ni 7.236608479455736 3.052039256844977 3.7623179934588498 1.3883324579566152 0.456406292351872 1.262029072040975
Ni 2.3873568418800635 1.0775129775555468 5.989577985205487 -0.9174624247709295 0.026633286316812194 -1.1029623756513842
Ni 6.311560337808077 9.083011107953455 11.373355953401981 0.6873132106122163 0.20235121810983864 0.5622151578585867
Ni 5.685458147204084 4.127132890508096 2.4801682293930303 0.6570788372077071 1.1730329072162249 -1.0984117801662245
Ni 1.2839698124673364 8.669109385471517 4.6842366860792435 -0.1386074000939742 -1.104563144479601 0.39265218992336254
Ni 1.918391960502921 4.881460307410735 7.49682184287808 -0.09560235728735793 -1.5555485229262178 1.5798475046828986
Ni 2.7161844602363043 1.9308857478557993 3.747654183912382 -1.2357521406223169 0.9296419975562571 -0.048877699537309374
Ni 0.02527383295257037 2.1156608291056833 10.47904917722104 -0.015367740705321922 1.4772391483913527 -0.44751053252413897
Ni 6.337065024185497 0.609623873138205 0.4873232691349083 0.32569140763209714 0.8113172589707188 -0.3844791671942669
Ni 7.965412741706966 3.7362334032782063 13.400106817874661 0.237978480395145 -0.084235510211313 0.5426362072853945
Ni 6.3882867820912 6.564631096265565 11.882712796818266 -1.1855786050917194 -0.322486013320922 0.13687473367358363
Ni 7.632660615128277 6.425629632094925 5.7165467162217745 -0.9608999271292742 2.288139374429311 -0.5407752428172558
Ni 4.134113898075558 5.62554706638703 11.061171020150024 2.0593523307254467 1.4685529334712644 1.031531216293591
Ni 0.8730340947878712 8.680993719782792 7.174973385261903 -1.5111723108036879 -0.5806440539877354 0.5609537746476597
Ni 1.9542296461766242 5.655705757809424 5.36691089356326 1.138460054337362 -0.4960799567924101 -1.6648779999916812
Ni 8.3551671959496 8.158295395237579 3.820270513819477 -1.0212750857832216 -0.8332089168374875 2.008102274301219
Ni 8.245853482214661 0.5508984555111803 6.036434766554126 0.3243953145284929 0.5155843453739251 -0.7059184844182294
Ni 1.997999455528171 0.4980145529465583 11.242029903900752 -0.04734660760476362 -0.37815399630718743 0.19215627985470776
Ni 2.345646245078178 2.5827511806730445 0.22046502073168345 1.7251402872168482 0.41051441491576396 1.7013668389463346
Ni 5.310469078014851 7.725297477452056 0.21550536575220758 -1.0274367345092434 0.19860923456890311 0.28482140889061275
Ni 0.5579450254512995 2.4770480145027585 7.544354563054681 0.33123470604782956 -0.05404818799465531 -1.020645679729339
P 7.574771810312908 1.7165152575401539 12.167449257855571 -1.1380574195823046 -0.09576485100715121 -0.7083762019301026
P 8.946373582853278 4.166581123746452 2.691030671064656 -0.490363108913291 0.7782317892706598 0.4658815788321589
P 5.075063223626881 5.110346861080943 13.257846626758841 0.7437728362618417 0.42662443310374915 -0.7227373557477811
P 4.691929645608941 1.357944483926248 4.3219103889498784 1.263501028600811 -1.2412959532586816 -0.23478028517282148
P 0.5182400832045103 6.766517033365325 6.277463286957742 -1.7300616357778655 0.2725374493169371 0.3444072388740456
P 3.4355514344796694 3.6168637143568043 2.104976009189929 -0.5092707444510712 -0.06694818388577502 -0.9941134377667654
P 2.5725751617056596 7.040207619730409 3.1068226213892642 0.7513797020748221 2.245526681965107 -0.5066099097894565
P 0.122578551526816 1.315135024822077 4.3056112137417735 0.508810259874885 -0.9245080187638013 -1.3060401875146024
Ni 8.884430991897544 6.671220739587274 11.327309929281414 -0.8092763172812901 0.5080705534953831 -0.00029953351828980674
Ni 8.868345125254 4.764759284080597 6.860450368523063 1.9573656671783 -1.0048616774222048 0.014552186782562036
Ni 3.959773391628891 7.224677974459492 4.83590276913715 -0.6851766238851877 -0.7399737742307256 -0.49235391409107465
Ni 9.117611419269961 5.835365127164635 4.0675431576584336 -0.7627406356135962 0.4062921493043003 0.8504764456686836
Ni 2.8474477176059745 7.630943065647393 0.6526420237384405 0.5079047173414801 0.48228881654558875 0.13522459966467035
Ni 6.171995591280803 3.6562657769101903 11.846208406453597 -0.5987027112616593 -0.5833997623560017 0.03391593602115449
Ni 4.032944693169324 4.858061004267945 6.240161990570491 0.18213154862885408 0.5806538241797484 2.2292161177305414
Ni 0.662080235160005 8.126862392910013 -0.10037691595214851 0.10474237191541315 -0.16852141404458718 -0.6834953795280229
Ni 3.992683855875497 8.567044469276865 11.854250416361669 0.8458733996790336 -2.374287528282305 1.407700320960266
Ni 4.725975908705809 8.141212241798684 2.818586422431236 0.3788322533211346 0.6919165137121825 -0.5616034924165166
Ni 4.595820747775419 3.637012601277706 9.559779758504224 0.9607554311316099 -0.11536874128100776 -0.36551059651156403
Ni 5.203473132665406 6.972373649372505 6.74666640906933 0.749228202949458 0.06187128358349989 1.4035922123291633
Ni 7.801174381131731 0.5006767546419277 8.581016641962483 -0.014787442721819696 -0.7664638501014541 -0.09677375188763979
Ni 0.4868818773865952 3.496339758311153 4.813305912499139 0.2852032177100637 -0.5954667208228648 -0.14926153737371067
Ni -0.15291546179319504 6.496981808647541 1.8044408631695965 -0.2289207410682509 0.562216186299851 0.08583190816415541
Ni 0.45137385040357775 2.1983894624349047 2.201783931193898 0.26198872726681327 -0.7779024309556989 0.1307465092886587
Ni 4.089282162969702 4.079355465701155 4.076233403983484 -2.0581482831150164 -0.25526940626510874 0.16305807693717078
Ni 5.344432233878773 2.926584271644531 5.802164711016417 1.2517564864703732 -1.1275524062859228 0.27689084118962637
Ni 4.889152343526734 2.7220850737754687 0.6589433988231441 0.3854962956048716 1.400674010241104 -0.22082587987525842
Ni 4.187995087435532 6.032550888534451 1.8301865605225602 0.4361508845369456 -0.6917684181700925 0.8821658063521646
Ni 1.7848571054327271 5.161568618986646 3.0253535243460243 1.470185841088997 -1.83569849448309 -0.7058873740699779
Ni 6.001219461713819 8.701244182210628 5.0167616528878805 0.40693363954304107 -0.46275666004993204 -1.3287530557310858
Ni 6.791181413276292 5.976351930788985 0.7966899437762999 0.3317818368005512 -1.2477604779371028 0.6678795273676369
Ni 3.322682578002041 2.3770423108577687 7.460844721735768 2.521059466464942 1.1001321052914408 2.0144325873946207
P 6.8949915813628095 8.430979460670317 7.008251041835282 -0.5776772580499276 -1.0534475567507082 0.1455820316395944
P 7.935817332641205 2.7713861311864196 6.289667122409009 -0.5900319229605387 0.748400307731524 -0.38873460003651117
P 2.860901855206228 8.294092613871303 6.295870615641577 1.2998985933932388 -0.7017928922856301 0.7244674510650103
P 5.817321623478364 5.016020151687262 4.9524975998918555 0.5724301507183754 0.2576661886320595 0.4767725147130499
P 6.886034468478631 8.036423255190805 1.8669070296928896 -0.9595518977418119 -0.7803987150149915 0.04973567666223047
P 7.261559117613516 7.3722117812125845 9.906927904656555 0.10439270188547826 0.782844862562639 1.7981896989043549
P 2.475071909186043 3.270675918451849 5.815531124315228 -0.2472966724722773 1.9302022193896304 -1.530301318323655
P 3.0570626273697115 7.76956593020128 10.284107311140763 -1.211095261305585 -0.7653191949740497 -2.5013720153383434
