# total energy = -381163.9399888469 ev
CRYSTAL
PRIMVEC
9.28751826887889 0.00000000000000 0.00000000000000

0.00000000000000 9.28751826887889 0.00000000000000

0.00000000000000 0.00000000000000 13.59322178324719

PRIMCOORD
 96 1
Ni 1.9628519745961597 2.586852464875905 4.6684695081535255 1.0030793887108014 1.325162767276666 1.1622574138672759
Ni 6.8099613242404 1.9714057789265755 10.195596085795719 -0.7821560640257303 1.337798967983438 -0.6814266699244523
Ni 5.097212929246593 0.5016978058876927 7.049077769724532 -1.8872234018352594 -0.03947748926933201 -0.6515311679166005
Ni 4.490933023833768 8.580961033849157 3.9905624043074392 -0.08480346689964104 1.7479308027488025 0.8712131639954027
Ni 8.688510495462854 1.6046788323567625 11.910815889402256 -1.4339183741165304 -0.12511553625512647 -0.36856532417748783
Ni 1.849804302164215 4.712003821311387 12.96410033433862 -1.7372648383945242 0.6628188250152778 -1.1513433380579334
Ni 0.018910315957827988 5.054174569564566 8.704582545836127 0.398141752283024 0.5431805098246387 -1.046782228915391
Ni 3.0259663288737966 7.279073872263529 3.1245784116523585 -1.458644416108301 -1.2290446466951543 -0.36685605479586497
Ni 7.039948139261124 4.624422523986935 9.08311299938045 -0.5928809623735596 0.08654513218109611 -0.1498462062325871
Ni 0.09700534211714847 4.521126745742761 3.8667551419549886 -1.1641394613813372 0.7315770655265981 1.5518055109440176
Ni 7.491674453075198 5.991628801594076 4.833273733671363 0.572167126864976 -1.0099696880727316 0.6582111510399373
Ni 6.5140609920286225 0.5191601977465937 4.500348709860018 0.2042304374104225 0.4597122167966534 0.4339433353626656
Ni 7.140829162754041 5.001672228761266 13.304229686075159 -0.33428326306616624 1.1302515503846406 -1.3688501808622877
Ni 4.927845746000705 4.357499248790246 7.468129665498611 1.846855539541174 1.3080320211336505 1.3094379003422416
Ni 6.489514081230264 2.8981607899043595 12.936152334348296 0.18310496828571693 -0.9291491170802385 -0.3202054448168615
Ni 3.949470708455657 5.980697392585499 5.821568769484943 2.3950000782393075 2.3485821530964004 0.9139197017249938
Ni 1.4050064769825943 2.351766802322719 12.447054904503032 -0.33793680065835346 0.03817753951098586 0.35501741028972406
Ni 6.135139533964961 4.068731730612952 3.0929469819145408 -0.12984893717505377 -0.8001632992364284 2.6622156011226985
Ni 3.6224757650623034 3.7591880340565704 2.9890410137197607 -0.8373607342223319 -0.1256050742970353 -1.216333369776073
Ni 3.5323218251759343 3.1898817388928067 12.948114657885295 2.916155747053423 -2.4210890620168755 0.4613114429629732
Ni 6.883091243130405 0.5001746528907458 13.154011508006743 -0.5496509480403309 0.04739083057913774 -0.5774749122311346
Ni 0.20050173075604244 7.557402219900771 10.200313216327118 0.9017658399712791 -1.166106869520353 0.08007315130350726
Ni 2.723843359418394 2.2116181515670466 10.525938250775047 2.1362974779229336 1.2890991887848895 1.3541352432496163
Ni 7.656193551782023 9.269676951462602 10.308800717286495 0.45555937097054444 -1.8000488636002807 0.3939577961086634
P 6.359145187217185 3.1819780608415758 5.247771959235667 -0.19506214064759309 -0.8621474542487088 0.43705925528382794
Ni 4.8311533932493935 1.9345529064150775 3.491242203097908 0.2703394132243538 -0.46452506480426453 0.8473705530498503
P 7.957629244885145 3.4332240051916383 2.28336237273056 1.828832620601192 -0.6615957512414542 -1.3055920442335902
Ni 5.578436401099105 8.560890706858897 9.141101477228244 0.45190789026088624 0.21232349883120205 0.9663365247638133
P 8.584592453494317 7.059182589606716 2.748032700763202 2.482280031703899 0.967425644062934 1.7157531895749936
P 6.014578259249296 6.365386399497358 7.17871666480127 0.3656769468860993 -0.5560491382571907 1.366851405264704
P 4.654114719909127 2.344596838215139 9.34120755970581 1.3174376307182667 -0.20116696799375033 0.233143778010663
Ni 1.1366993615630705 2.330656273285764 7.038081348088037 -0.8150890673083253 -0.8734567086139409 0.5139758632362246
Ni 5.1421180801017075 4.129369937424336 1.1217195233388275 0.07982966783413348 -0.04051415806396248 -1.9342632768328818
Ni 7.6091894217969696 7.19216127625481 8.944190301036956 -0.9135821158799169 -1.35135099563626 -0.178786286305705
Ni 2.525090468353359 0.8232019684774182 3.0354210224767972 0.40667164413090606 0.3893395806103617 -0.4118187355494843
Ni 3.9574115365799845 7.737700812155236 10.542861966574051 -0.26253868623301235 1.6379336101923532 1.5861911875127392
Ni 8.99735762814868 3.6345681138551384 0.1183712779066398 -0.2737121863513286 0.5306417539276796 0.3494712836605142
Ni 3.225471508919032 5.345886231034739 0.9499849516848805 -0.4611337797345284 -0.5689589043403234 0.5912511400796204
Ni 8.516895732794643 0.7241450135735283 3.208870070004137 -0.774279746601447 0.017688675529014698 -0.7612172569905342
Ni 7.062999759617359 9.071174823390965 7.554609463155759 0.5034189136559846 -1.1432297078118634 -0.18083751240777887
Ni 8.771011520291392 1.4345779351672239 0.7439812951032808 0.10572710442618566 0.5456371988952474 0.9898469491809276
Ni 5.8558824345003115 7.663874329394677 5.5283228099958945 0.8504103683174385 0.2269348209864737 1.6880217850979964
Ni 4.061413166212988 3.8260024405202095 5.4482987662910505 1.5467597209899941 -3.141262256581906 -1.691184499096694
Ni 4.051456946623188 8.497717007558693 13.67613999659373 -0.38806199944951875 -0.020246408953861907 -1.0945006180372763
Ni 8.446542781868583 2.250272802623714 4.8870484644782115 -0.05411015158084229 0.26901915175103347 1.03835852362807
Ni 4.792173679053134 5.944884722120697 12.745330983889316 -1.7613555607951408 -1.1897970140484413 -0.12456274907545
Ni 2.7956451631952066 9.238331577287624 6.9053970757692325 -0.02922830073749805 1.450562667541431 -0.6001448430248244
Ni 2.454245278958775 0.3325590955913475 11.849728166706406 0.960965747370203 -1.4753853830120656 1.7879988744142818
Ni 4.737247295980302 6.798584114354669 1.505231801685362 1.0724960887417272 0.20569339510919415 1.6593007630142196
Ni 0.9019842709890196 6.790048885060801 4.489147962821493 -0.25208843743396586 -0.6100962978105815 -0.8872887294010268
Ni 6.225061285894478 6.361448491749154 10.97267995353143 0.8551170297644886 0.478622423437595 -0.48908784174529313
Ni 6.522215433073254 7.341653170394193 3.274539325464583 -1.8177925607369467 1.2557398965981534 -0.1491844042788721
Ni 8.588920437010032 7.128708951406383 6.74975498702876 -0.09286670352374973 -0.8522800745363257 0.7251696193383576
Ni 1.2498491966960297 0.4239817104739543 5.1682921641016835 -0.09129910192631373 0.1522026222799056 -0.2729156585919622
Ni 8.742731027146856 3.88035299746005 10.756506464439727 0.0881970659622223 -0.8390154962169357 0.05019153325272646
Ni 0.2449703682522756 8.787775490776083 13.399246570529831 2.0911663899122503 0.028247424881467482 0.37869264241947687
P 2.187851392303709 6.762650706152303 9.331325640262204 -0.5311145797990401 0.20147858569689817 -0.09719104193071648
Ni 0.6004185526300614 2.5387988453258816 2.9095881523887717 0.06382249377259974 -0.8300660003331318 -1.727411085528896
P 4.745485324689398 5.637932243162779 3.5383967908790015 -0.770732138459505 1.383255300544024 -0.03174078274670662
Ni 9.257974678437277 6.13420149461928 0.34546595973681854 -0.960869331001655 1.3562129517142514 0.9509412732546655
P 5.493139833270074 0.09573016585811905 2.2897512565512907 0.6811369065981753 -0.1943363182251621 -0.5055020214372583
P 0.5652309321451034 4.296842466942314 5.982839094299498 2.2760701019696024 0.7873517492940568 -1.0593595513597691
P 8.86269790069298 0.3335677200759112 6.868845118849814 2.349465327032302 0.48322778342009043 -1.781466986833035
Ni 2.429280429838083 4.353524190968946 6.9910753605993285 -0.8624678137026048 1.2997625820360068 0.3750601878732121
Ni 6.319208858638695 2.0489008314053914 1.5394052251747918 1.3935991056721937 -0.5001914078576224 0.7192162299684001
Ni 4.096677873099621 1.3972792617785705 1.0333692195012822 -0.3105630366310909 0.2658582375245486 0.24216397923140232
Ni 7.42719121369835 5.6611324638113985 1.9235769173187849 -0.6291880243347099 -1.8475901037143536 -1.008686964705566
Ni 2.5487829274705036 5.231018205021078 4.333981395016654 -1.8374627854723646 -0.9407028833561089 -0.550911045699677
Ni 8.104093408067182 3.8372124750770085 6.725382681573954 -2.079322603199787 0.9549123420872716 0.9397258641548203
Ni 2.0684789199271245 3.0267464804088187 1.04513836265818 -0.05268833153265119 -1.310992132203239 1.2404055802339282
Ni 5.628551849705971 3.7519716323576207 10.913929899185165 -1.2747586037925014 1.504644536987499 0.15482591883536562
Ni 1.9247452871176627 6.693858058296287 6.76504781461884 -2.10433403764246 -1.3161111985973593 2.0472709740808805
Ni 0.8639713874450905 0.4163000041094733 10.277658739761721 -0.32005606372319073 1.4256152535674738 -0.4496969986524965
Ni 2.247700160061797 6.940432380954495 11.947164449671472 -0.046958628137725576 0.27258218651194344 0.4441282463154673
Ni 1.8643021181900339 7.245945294579932 1.1332518347797367 1.2305186601375195 -0.9145313671670637 -2.434260052181195
Ni 4.93059485140983 1.169976539539053 11.475724449568862 -0.6911660086994033 0.143597654219714 0.24583962831077663
Ni 8.483599979782111 1.5514799276829063 8.642462051108202 2.1221003604869453 0.4211053030577328 0.3567112530523792
Ni 2.0546869552901352 4.625360563332615 9.94276197582079 -0.4109134501263956 -0.10546613745531513 0.3589499125749108
Ni 1.0769434689877229 4.892636764223718 1.9001287199322479 0.4754352839588651 0.6245821501315824 0.27618250226869206
Ni 6.319719672143769 7.304930323138532 -0.06398264214187556 0.9816574713915996 0.7086495101961473 0.467775196310446
Ni 0.14884641161933612 5.893023220078305 11.83699126414535 -0.8073400194905258 -1.024888257055777 -2.013630660318616
Ni 8.745684457958012 8.357159705998962 4.879898932910835 -2.80423948309739 1.473455255868888 -0.5054194890257812
Ni 3.8531498564353077 7.504537665884781 8.000548724333264 0.4682284817977807 -0.6150181605922312 -0.25622739930300387
Ni 4.226053002657375 5.757128252692156 9.666751792744757 0.691401521748977 -2.1544746630525924 -0.5114117020534741
Ni 6.7089781380464695 2.176771383002747 7.402515206395982 -1.952099019462722 0.7652621164838691 -0.1386235980438903
Ni 3.584387652620354 2.5429225034395677 7.509194427547398 0.24267717142239495 -2.7291781831861774 0.25771632514370457
Ni 3.3785483851122056 0.4742002505336624 9.22558352970464 0.4035793783588275 -0.8484226484634485 -0.4217647910186027
Ni 8.072432258270888 7.770560051808886 12.167048302313665 -0.4657663934105333 -0.4806032013130497 -1.1402431143797138
P 1.9616910348119012 0.7546340785636358 0.7228456897669864 -0.10783772301128525 -0.4803324641501663 -0.3811855840446597
Ni 0.858436955305574 8.573475294120259 2.429991853737876 -0.781317370174519 0.7559755489756207 1.0639253163535807
P 1.0960107440043825 2.609272533989503 9.466020660287343 -2.9576302121481257 0.8174310851779405 -1.7870241692058384
Ni 0.9788672760135744 8.454037809115755 8.097033965427062 -0.40603246788501046 0.3387166162471715 0.5832534665861245
P 3.576595424788412 4.5865758870201105 11.557867904943848 -0.12877678715679758 1.7521728658546083 -2.358042527178352
P 5.782473890062085 8.488280888992241 11.753705444022653 0.10308812414144182 -0.6862346328360569 -0.6220593837097287
P 2.6609297106298637 7.825449284808622 5.292697542630985 0.9443024277819092 1.7592860798606216 -1.9594500605111544
Ni 7.617288137731956 8.538117712050886 1.4709357829547145 0.08927152997332367 0.5565792997290478 -0.13466718449930357
