# total energy = -381173.56307842047 ev
CRYSTAL
PRIMVEC
9.15621795799680 0.00000000000000 0.00000000000000
0.00000000000000 9.15621795799680 0.00000000000000
0.00000000000000 0.00000000000000 13.40105050622432
PRIMCOORD
 96 1
Ni 5.242191045576722 6.597576805374804 11.033460326947912 -2.0878725496523267 -1.2745169200953403 -1.4896596335428924
Ni 6.846186430178306 4.818166600797325 1.6704676943448242 -2.450116302487161 -1.6395184381809698 0.8021908711894185
Ni 5.220115404541025 1.6596835010591158 10.444671574698937 -0.7116610433289614 -0.9689451660312539 -2.312159391492992
Ni 8.592799062715192 7.344330457779754 5.093873136459824 0.7135281784446873 -0.3403767775584138 1.7711681760101885
Ni 7.819327566866791 3.3671990837318693 0.24966808357734088 0.4296729901220858 0.010605543429988188 -0.2924691552438576
Ni 6.807565503638045 5.362164966974788 11.939934126454727 2.4549839149921078 -1.950228027692254 -1.216997228612317
Ni 4.004627496001513 7.2817202406905395 5.299016364280887 0.6791412163243852 -0.33665587706340083 -0.17728501916983017
Ni 4.376443187074752 3.54878519448257 11.360941611594422 -0.6819403763360772 0.35857041774830506 1.3543766698364612
Ni 7.402005473492676 7.456539906511593 10.709837472468323 0.6541590924577508 0.4458920230841095 0.32245438875203825
Ni 1.8330015471664183 6.818791026620112 10.59320831742046 -1.165526828647167 1.6020638928789377 -0.4680783293731616
Ni 0.3674518376855938 1.4816500028019233 9.297179570539056 0.7492274316185097 -0.11171263258565924 -0.16652443821921642
Ni 2.587867608512731 2.1372260386853172 10.030338070803896 0.12776968604852187 0.5856253092524107 1.4811580238297846
Ni 5.712133922456499 6.2628071713859415 7.849303192591663 -0.44856622748216296 -0.508460332734634 -0.6767976557928732
Ni 1.1376509013041496 1.115483698090785 13.414451435616332 -0.4492583684531811 -1.5019027125763038 -0.7657310857004878
Ni 6.777514796927487 4.1528300367745485 7.583386484965401 1.2911640417337182 -0.9048784174583319 0.638237793241804
Ni 3.099718494111042 1.6597384383657163 3.4094010070407164 0.27547236357554494 -0.10149866816713489 0.16440842031747815
Ni 1.217300839657334 5.8733382924583575 8.216559087217048 0.8328926711486494 0.5925066097532763 1.8912584911365815
Ni 8.835860019552028 5.255650685693883 6.598637095392197 1.0677714295725482 -0.08147054587166615 0.7776756596568736
Ni 1.4157069224456027 5.509277917833577 1.3802549628744227 0.29055959692597055 -0.30278724934041407 0.06386260298191582
Ni 7.983947206095658 3.666067187857204 5.135831504376076 -0.6571626551707649 0.009388126083119315 -1.4331786677370284
Ni 4.805338739706072 5.777307880520411 3.347395100324109 -0.8795666781664208 0.021999644199542756 1.1028947556382427
Ni 2.9525780745989523 0.7306432872443067 8.258329752669079 0.6788074871340503 1.0764612440370622 1.699661940440086
Ni 5.793303792958969 4.138015276427906 9.730542441818788 -1.240725168356876 0.6436641064636979 0.6308924086203264
Ni 7.370471459503899 2.5502813345801156 9.340599270810884 0.7602304675972327 0.6071498135877479 -0.7358836633217519
P 1.3384192882762467 1.4408865213042368 6.2000229861591585 0.19568923270863073 -0.17226005515141302 -0.5529005653258801
Ni 2.325661000325567 3.3077935428610266 12.432636613837378 -0.3633799233218064 -0.6105752943295292 0.6539647170587577
P 3.488198501519814 5.7038292329420335 9.69011224664781 0.17834688477544125 0.09273763414505319 -0.14703084827097904
Ni 6.1709886196207115 8.49465356447312 6.6157235133667776 -1.385910221668368 0.29368940080420386 -0.0031372600774010485
P 9.430995861956935 8.338933768913561 9.340009610386703 -0.5122221137699114 -0.544000691733089 1.3506380287296353
P 5.219099064368913 2.7171808720329085 0.12344687479700388 -0.20540825976860755 0.11335685305730155 -0.4828719427425684
P 0.4659159723059494 4.420512063186245 12.802077182021916 -0.15374631261794167 -0.00014063934292233844 -0.051052595701441106
Ni 3.5085619298331236 7.156682930867446 7.846891444831894 -0.1396759505678046 1.034971609433708 1.33207672078768
Ni 1.4272162881784403 0.057649378303174965 11.045936589276922 -1.453552346297374 -0.14412010238208728 0.14095713127307338
Ni 7.254031838163809 5.758565102751821 3.823533989766664 0.15284925472496902 -0.23833020730760887 0.5242006262880262
Ni 1.902991675775654 8.950660677911866 4.279611606082213 -1.3510692027297828 0.6683328128549716 -0.5212222603859926
Ni 0.9399590035016893 3.078064039092617 1.1830483446136015 0.3290304993076591 0.31324598277989274 0.23555315878310398
Ni 1.9964858153922034 3.8608840332808967 3.382947778290724 1.6178846619612781 0.6003093936271467 -0.9068648517607414
Ni 1.4558660935706822 7.266209607793621 13.377504265683836 -0.9665396419135547 1.044355621751769 -1.2431049814429624
Ni 6.79318108552644 2.6956637602809845 11.690097568470476 -1.1359768829041919 1.2444499255066308 0.07773473297831773
Ni 3.1987521454764916 1.0301843733754998 12.046311064469128 0.746850703856217 1.524123471647717 -0.148432356604196
Ni 8.259036612680674 0.5045661987430642 5.7562339297084 1.3018495464720226 -0.24641478408795628 -0.093806955949832
Ni 7.491928688180183 0.5468624310949093 10.495515136336065 0.4170421887319527 0.38808899603271224 0.8329813742077138
Ni 1.6798821174526235 6.781671719793602 6.18930197077604 0.3611281511731522 0.6107028210463289 -1.043111979152655
Ni 3.4952030081113974 8.45739691438011 10.103654653327801 0.6256157336024193 0.27286295097715585 -1.3448003390019356
Ni 3.244789608407841 5.006281094815739 7.079198438016105 1.3134855880490541 0.3580027181702931 -0.7550430098590222
Ni 5.782316331638838 8.226083384938047 9.066601285383667 -0.35468290976844075 0.8232947430475692 0.42044941464128877
Ni 8.91387099492496 4.419083693214628 2.5851427181053386 -1.1049781205298324 -0.7228808233041809 0.8709388272880936
Ni 4.706726274357896 0.41261488182021633 0.23397341070331018 0.14962560558134877 -0.5716547060049316 1.159250508720152
Ni 2.0708983971827917 3.300697474091775 7.977672450060085 -3.546820870154292 -1.0436886775917318 1.2918741804268652
Ni 4.785030248699364 3.3673913643049715 3.9432460433366003 -0.536394854361373 -0.027001211179192207 -1.6442199574216974
Ni 5.324523755735572 4.16603330279424 5.887738276140166 -0.4819448029426087 0.9376610112059917 0.6237907645785387
Ni 2.5734190968767585 8.81787720785808 1.443896170084176 -0.8708619513035712 0.6730595289066795 -0.23715521316290128
Ni 5.367960852821157 8.751531253920023 11.510215429846172 1.3760253584544884 1.1958465626766308 0.3930121443659425
Ni 7.438053502840472 5.595502020543306 9.437314567837786 1.6873329865610875 -0.2825171862374683 -0.25245841917887485
Ni 3.6749212504376763 2.2218935843746945 5.9402034039437925 0.2274446707433567 -0.4697125225424749 0.3071851212977935
Ni 0.5750626661948026 2.248217710454176 4.151417232373135 -0.6544516839975052 -1.5798973840842274 -0.05211034754199412
P 4.331477001622115 0.3959642998113343 4.76877704654156 0.5413717387506741 -0.6293232643609936 -0.055922265088916595
Ni 5.383965921477481 1.6651955441547148 2.2338076549328236 -0.9570669265364291 1.2006781797373194 -1.2200673828972084
P 3.0423181649311237 5.25511962506341 4.8718174588017495 0.09569028901547393 0.0378144997446123 -0.5762708646207043
Ni 8.013292884038174 7.394808686327989 7.794319189280396 -0.4567477348516908 -1.8498367336566852 0.2640522946640614
P 5.290142158021328 1.0221818390473376 8.156830331859037 0.0029400564649304205 0.35605973551130937 -0.10282304340551324
P 9.151035347519992 4.212903981542366 8.708820244903341 -0.7978876158283742 -0.6227731219473016 0.837692406530138
P 0.0637584067971679 7.061568140706178 2.9041151295811836 0.6459603586970424 -1.2194330917473193 0.2693366829914523
Ni 6.421191426315632 1.40205500175534 4.319975876485268 -0.5186858671173842 -2.475529343243627 -0.6225481504206891
Ni 2.822642188270634 -0.20173803043359864 6.377747004255832 0.4911359825235735 -0.28878296464152203 -1.4404397201748163
Ni 6.488535407990269 8.864409106548836 2.0591656197364454 1.3300617472401801 -1.4275160701346126 -0.8011611443733234
Ni 1.4126029646226657 4.570857158916707 10.593744871781594 -0.6381395771010429 -1.274723636789508 -1.0420544844224182
Ni 6.766847803229193 2.012518352701828 6.307284414809832 -2.138011375290247 1.0607140085051345 3.7098493794051075
Ni 3.1083161825940446 5.59600561252048 12.103587784709196 0.17149618040219494 -0.42299403544001346 0.242159351245712
Ni 6.281824635687535 7.075696184720313 13.38038572741504 -1.603850038245083 2.7897657149612467 -1.9700309213507945
Ni 0.6418957309180539 8.721627046693731 7.339191988369039 1.5391947641585428 0.6311667453276355 -0.9926713060036
Ni 7.65111869027335 0.47399267199802253 8.046004387631758 -0.3916905973410416 1.222377519087624 0.8678002816591119
Ni 4.354761263403026 8.439679633001399 2.7502577087153863 0.2790387407705646 -0.4308641822167096 1.2138769378157803
Ni 8.914603492346302 6.326928164406673 12.02125141206324 0.9551650815280259 -0.21133670943790056 -0.8317796405901288
Ni -0.06483884049364746 2.3261645923027396 11.761914362524184 0.7584515213199389 0.2432988641667939 -0.7801863418938693
Ni 3.152989369078145 2.088670615868104 1.0969780663623538 0.6037091633373152 0.4705522448349509 -0.6090804549515574
Ni 8.508790764705022 9.076750952778138 3.615951545532532 0.39742749982481873 0.6522143100265542 -1.0248957132549446
Ni 8.94084521246588 8.532825836342809 1.3779631615673988 0.40532541451565685 0.8296312267885584 -1.5314585718565497
Ni 6.945604642689959 0.7846603939594017 13.109282938045679 0.9833662265525903 -0.20994574262764487 0.15163800802568725
Ni 5.1396597190243645 5.033108812872392 13.25156140592361 -1.406354862675965 -1.3536793866591204 1.028291626310371
Ni 1.6846158820380468 3.6501719938140806 5.789642221474035 -0.4888572137917258 0.5457595834057246 -1.0748069962630908
Ni 8.170093113294213 6.394546832614314 0.7943348536517773 2.514594684676205 -0.7096848934391972 1.2947975247212473
Ni 3.6333153969054464 4.563541340921053 1.6888542952422874 -0.21513757124122948 -1.207995796444655 -0.2608607843099572
Ni 8.983265969379355 2.7067061589077164 7.133713642977712 -0.9086751654966028 -0.471818256031568 0.47937087156784536
Ni 4.117798347598864 3.1065032514762234 8.303397572138929 3.718314736563641 -0.7405905818791181 0.5881411336957291
Ni 3.427163153886485 7.927773810096486 12.307243127143158 -0.4783498865024987 -0.16722737782351196 0.48736134597248976
Ni 7.965305146722501 1.5618401580033474 1.906152402148745 0.7227746367436197 1.1209981501071729 0.005752071992428803
Ni 3.5117940747047953 6.7661336182433836 0.853736732035513 1.5879953306010135 -0.6001535847755729 1.4182631840777769
P 6.9022316391287415 3.0209750213167683 3.1524225991983816 0.9851827109360387 2.495996095738411 -0.5038030364682807
Ni 2.4341988057329296 6.985177815877966 3.285120000805159 -0.46779962179047824 -1.635318284056693 -0.4099315458291005
P 1.1614845361510673 1.0973452306948017 2.2772941955943495 -0.5295438928778106 0.15869671464468155 0.44269151386894084
Ni 0.7069881986438411 5.5060549291796725 4.449135315546964 0.06105135878536583 -0.2069997726254435 -0.695512458593557
P 6.910911733571645 5.757860073983779 6.080110411420129 -1.082001457129001 1.3122545438554303 -1.16624853730454
P 8.632646922436203 8.799372491751425 12.283496476365025 0.7125753276131147 -0.39966564512671815 0.5607701978819438
P 5.980054010530131 6.726587913708679 1.9488212925636978 -0.4445658480735183 1.3425087147542816 1.0512847447714346
Ni 6.493186766615792 7.9298797401828445 4.415941279277071 -1.6750279439414895 0.6188326492423148 -0.901335694412396
