# total energy = -340861.97928646085 ev
CRYSTAL
PRIMVEC
9.36595961801133 0.00000000000000 0.00000000000000
0.00000000000000 9.36595961801133 0.00000000000000
0.00000000000000 0.00000000000000 13.70802862666686
PRIMCOORD
 96 1
Ni 7.138800120663465 4.832357592433806 2.9571641269861275 0.7752757919661293 -1.9688127326729772 0.19864805822663853
Ni 3.321216174592818 2.9022112310563224 6.780402302987547 -0.9987465656634026 -0.7712021361173879 -0.8768569925447415
Ni 2.429988903940813 5.400337492536265 10.639377235198769 -1.3060440441693442 1.6761301758667324 -0.6723195654168616
Ni 0.9950863988652556 5.5812410060576765 0.5948836196256402 -0.13844542059481318 0.08827034240231896 1.9864553854554046
Ni 4.6721622160284095 2.687131330227656 8.65834748742423 1.096765759922369 -1.6664869963500137 1.077978452012537
Ni 5.093911385786068 4.423299298204054 7.135234499767912 -0.36752299895590257 0.943502043367801 0.35039688079857717
Ni -0.21186175704166432 6.5001259559966975 6.279771146609126 0.10850389584037441 -0.8693077194425738 0.4606725238273937
Ni 3.8597026672876176 9.184925162234354 8.848999091904641 1.6727669158214544 0.4277251223670956 1.0533822507304118
Ni 2.160970440628594 4.936076231250069 6.098647533032432 -0.35338810221641725 0.35900184885876885 0.3348064825594879
Ni 7.148287837940048 3.3015663909341115 1.1788249884178832 0.11528389487668533 -1.1299620441686797 -1.0674700962820456
Ni 2.5044014545454014 1.541899229821538 2.5579316611817084 0.12322063322525875 0.45383930295564423 0.9402855933130322
Ni 9.024879641185745 6.34541903203363 3.8693926892958626 1.2189402112713008 0.06639051161009211 0.026850544533940857
Ni 5.471902791361898 7.573642902220396 7.61630391250974 0.131698845899599 -0.8498020453094783 0.6860451425330701
Ni 5.975510449764503 2.196373768669543 3.3815928978423355 -0.6719405848108879 0.5460974263611176 -1.741861713736587
Ni 6.896512106618143 5.205366307396465 6.040401565637232 1.8065972062417595 0.5505156100334713 -1.0888799294163893
Ni 1.1037783623348898 3.32409152425117 9.65742940473982 1.119461144637356 0.5210165721330897 -1.3435564392925057
Ni 5.629400771345127 8.039730525667434 1.7390283320990716 -0.24108720122745575 -0.647975075134226 0.0866063244363347
Ni 9.052837031186337 2.2616732403895163 10.829041667516345 -1.2973781409642302 -0.5907441185362149 1.5581335100445746
Ni 8.77112769234621 9.400707510047962 9.814742875315005 -1.6690133623162933 0.11523838635073057 -0.48539908003979626
Ni 6.3826018924364245 0.3085503064326529 8.332123614850499 -1.3592998181696911 0.7445858190814402 3.1444573664804363
Ni 8.669759909439545 5.0440282838955675 9.82570947764388 -0.4610628172872769 -1.2852556466690832 0.09685911251259448
Ni 8.526235941476713 1.1556189498234228 0.3565508504035168 0.8528632007333055 0.15857844389926237 -0.42193088428282177
Ni 6.941712228609048 7.557655208843173 9.97774522987222 -0.4476336883655646 1.2381103564418483 0.43955579645343656
Ni 9.25147030660762 8.800358852879492 5.712574240745879 -0.17926991081034285 0.40964152539250737 0.10308966680333859
P 3.7362405852146563 6.497765734127302 6.352437882307144 0.11288814095099914 0.23500577092006625 -1.5686207827291436
P 8.009309888239654 8.422695255896635 7.829230579180572 1.5247181678089226 0.03425609296939262 0.0058986248726220995
P 0.889960056291174 6.046466961203189 8.397593547038818 0.4123702371775802 -0.5940330737001318 0.6208193406550404
P 4.986043626778764 3.0099478666264394 1.1794562541083486 -0.6699083848722075 -0.03673977862319479 1.7197324859377157
P 7.248681561027597 7.526569588269652 5.442964785370331 0.3651493565174034 -0.11343552881403689 -0.31286443107075795
P 5.516540955764852 4.622681850409274 4.465308437691374 -0.3767224060669835 -0.5064235048102633 -0.6034700507433155
P 0.31432442064885535 8.82267793508097 11.706670501135902 0.20949939911884563 -0.05007686205173312 0.6127116239462416
P 7.955305764037508 2.2190487573433892 5.158934561691965 2.005678495351075 2.2113436083254947 -2.397591236005251
Ni 4.7095979573457845 4.5535704330510285 10.962982385412644 -1.5247099402788062 -2.0113241236726265 -3.0717036316564776
Ni 6.436456161281784 0.7731356299279006 1.4033457767241366 0.16338023616327993 0.5901612494495514 0.9893833792809477
Ni 7.374850405482525 0.26819706863783005 4.227556357976801 -0.403894338496085 -1.461971680709321 -1.8445662292863654
Ni 0.1770438014881645 7.081199467898428 10.383777382490853 0.3795902145330817 0.05303414490784415 -0.6806535392038536
Ni 3.121056247724265 6.905213083271593 0.5958239619894792 0.11828231538337693 -1.1028201936465654 1.0634077532872137
Ni 4.407114919671049 6.325122997148778 12.040734618657536 -0.9390162396823053 3.0149323883037047 1.9955717459343763
Ni 1.1177523743552857 8.079311071778823 7.867695639479878 -1.9171880665181495 -1.0254636699432726 -2.1118563141614337
Ni 0.7575928196411399 8.527003950180246 0.9211833564737436 1.0327882286291439 -0.9632576287281732 -2.318949417831632
Ni 7.318589084968773 0.9088867878533832 6.453740103495215 0.3266182903217407 -2.8182028872560174 1.1537036107599936
Ni 3.8689094057702245 1.1762615252208442 5.065075468756313 -0.8238400740280779 -0.022114572510852238 -0.3360871490441244
Ni 3.8957897103939083 2.3351679269337837 13.1153211574903 -1.5857692694839722 -2.1921804051334823 1.071189711225478
Ni 8.55620701283413 2.069240230355298 2.9524624151669325 0.12018158928861884 0.34174871820527597 -0.25469373626729686
Ni 0.16712993304071877 4.196090479435432 7.6327814455844605 -0.8326049647049014 0.41895920324900754 -0.308657592078262
Ni 9.127970760695462 4.113304760770365 5.162498309395558 -0.14072316088539635 0.8639156018927251 -1.2171437814925101
Ni 5.130944390832077 5.330551726072478 1.205739010496844 0.3853525709381557 0.9048231387403642 0.6050001142345968
Ni 5.131000586590872 8.518274875647398 13.2492618753866 0.4244649635585851 0.5781693671949978 -0.5899969559575451
Ni 7.482259232459669 6.323961618133678 8.152740196604496 0.023822813451210584 -0.8614511995126325 -0.4664559632783902
Ni 5.210676806602607 2.464596125398831 11.356252481208896 2.269780669416465 -0.0006522888720182315 -2.1819443292277714
Ni 2.873120559920029 8.691966600123433 12.899337441541011 0.20329944095572086 -0.9764149920457379 0.13669784177608715
Ni 6.411374120939546 1.1492313652403732 12.803106887584203 0.123687031338716 0.6020356322896341 -0.16472312334441955
Ni 8.419735612600089 1.8749621262406386 8.24136278141642 0.6789473551460242 1.4090984868593732 0.2869500251978413
Ni 2.9978845104050786 4.295266627749086 0.2743308357103215 1.5789576458787775 1.428973114296113 0.5746130173023072
Ni 4.159469576620587 0.6056366780710936 11.317499885943755 0.1844332001788372 -3.2795135588880426 -0.10937987068742451
Ni 5.044843122398097 7.9888827299176155 5.387954757085752 0.14301812756716012 0.9397670018054008 -1.9999781025321879
P 5.309571976122285 5.73717487075444 9.185544252177081 0.3723276194333975 0.6206640460240987 -0.20901988837926586
P 1.8604448885518896 6.854337189642377 2.6543954275375166 -0.020008324801126832 -1.2920346172641297 -0.6066433062649746
P 4.792795778242015 0.18853770735373412 3.3869389876957148 1.1164856069487998 -0.5293795993858045 -0.730175300083065
P 7.228029619670377 4.085000830257204 8.145639862480728 0.5357243106569096 -0.07115116622352907 -1.0143670458094787
P 8.446353670349396 9.04247827964843 2.0686923217070454 -2.8872066681192403 0.9872496207673964 -0.00519671370959105
P 9.091705764352987 4.030191233512327 1.6363408854566999 0.09323205728296846 0.3756322583265982 0.4276806422824054
P 1.2231943497745998 1.3448956314053133 8.440403476088969 -1.0409088008537493 3.143497059449696 -1.6344086277582301
P 8.048197353325905 3.4167302326249875 12.366656907325732 -0.6570790943180232 -0.06501137187437836 0.12616968855125368
Ni 1.2176309696538794 6.987165231514531 12.517130417459565 0.8806707098638769 1.3616294947441323 0.09528276916441011
Ni 3.118358851302098 8.591910051588654 2.3633051433625187 0.6526143736784502 0.8857141858250552 -1.2765591473363498
Ni 3.7840819078689343 3.951601464837299 3.1686109720086875 3.049532237765761 -0.09245995500363431 0.37836559809736126
Ni 2.389415566090709 7.675104344725052 4.7250339956908345 0.32008588851986164 -2.846090357694905 -0.019431883472366532
Ni 1.8137836768323101 3.879043374272951 2.3229903060028727 -2.8019375744370905 0.04365013258978289 -0.7388275764414244
Ni 4.357803141328297 6.773321637379357 3.2635527698971267 -0.6486006245333669 -1.5678769625845836 0.5487423201831323
Ni 1.7269518635339922 9.172899269852191 9.569424036678663 1.0918338698383907 -0.35915122995243953 4.702510400996062
Ni 7.605861803929619 8.49923387937564 12.28150253742745 -0.09766103958859955 -0.5705725286843465 -0.16948352084754037
Ni 8.068727537205735 5.342793035530023 13.462257850159947 -1.3929234197614075 -0.7570716102532767 -0.3705095923880522
Ni 0.5020276209844814 4.900270166937754 12.098898165606503 -0.10478865177231632 -1.98236733142896 -1.5315660439686913
Ni 3.2931370271148377 6.755011185971935 8.409766484989829 -0.8451830584802282 -0.24299958775882025 0.21950073330593164
Ni 3.180324041333558 4.413633627691286 8.646476133378751 -0.6485540875661475 -0.0524312212165226 -0.11638946923603825
Ni 5.855616798375035 2.3936021501209486 5.588324481453807 -1.344123367539569 2.246386458862241 1.7544164104731461
Ni 0.8327031342507677 8.698850580575838 3.173025148862047 -0.3434109363990473 0.912864520987602 2.3851483822562085
Ni 1.2745385413937758 2.7179828018061976 13.742161431950787 -1.2155633243792678 0.8378510435951894 0.06758144659439974
Ni 8.165964931840957 6.707525769790027 1.541330716061727 0.22826485265180688 1.4806638578021853 0.15345243552660667
Ni 6.879100787351443 2.8052079854160814 9.7778822039293 0.05919836473702709 -0.48670005823940704 0.9681478669409391
Ni 3.0362287498229747 2.3461354658586386 10.486203518854825 -0.3845498725312022 0.6176584264285556 -1.0680632497813543
Ni 5.5874787352839395 3.9584667133701075 13.070495673891363 1.7194630343264128 0.790149109533536 -0.6790280877852886
Ni 1.7276917743581284 0.988895499437989 12.05068688754016 -0.9307038631618682 1.7327782633780806 -1.1403829823916876
Ni 0.6646665763014871 2.3885819956685808 6.288859873998263 1.4152696486670915 -2.2438978881124325 0.06747885957826444
Ni 6.788803568927423 6.880730464356502 3.4246360392914865 -1.0965289613212148 1.8753983841758732 1.3929393606010074
Ni 6.6159079510343215 5.626422396128984 11.317760259626173 1.8308524792446985 0.34687935456362196 0.5040804584993834
Ni 3.0169442385964365 8.770874811431634 6.742088034641009 0.7011354612072892 0.08097149474806055 -0.35939857007655523
P 6.374135064777954 6.8152530394003445 -0.27055167093134713 -0.15949452795562855 -0.7786547357406912 0.0034380791472714976
P 2.544244247531168 3.815879341387194 11.952962462995378 -0.46836655003754174 -0.8635065393797644 0.7296803627245175
P 6.385655195330962 0.45259314856836097 10.643599409876243 -0.13269669103649406 -0.0266440849500896 0.22154193210567652
P 2.0813785142550523 3.4643936020430806 4.4411545639652354 -0.4116215319370137 -0.4788425098682011 1.2372672917152627
P 1.8205927296063236 0.2460756081881162 5.099221884992211 -0.831004452987001 1.689438977160497 -0.1670743971854155
P 3.0909353210100607 7.507491128158695 10.39716976840772 0.5376960896712998 0.9766967849522147 2.0267443148824382
P 2.161757181251726 0.8547805746894254 0.5438129140326008 0.38167589341751684 -0.2609188912414022 0.7014198252169275
P 4.638416662871918 1.0178363152174954 7.134740913686495 0.37377669317509815 0.4327454583998225 -0.017355460559312044
