# total energy = -340858.470224631 ev
CRYSTAL
PRIMVEC
9.39143972072824 0.00000000000000 0.00000000000000
0.00000000000000 9.39143972072824 0.00000000000000
0.00000000000000 0.00000000000000 13.74532133255947
PRIMCOORD
 96 1
Ni 1.3668019569665142 5.0896062125809225 7.224183720419698 0.3954541781485319 -0.07630879916506858 0.16514247027002527
Ni 6.359751472342606 0.39186345558587843 9.16324929781931 -0.04940888945043104 1.1569763679739944 -0.174455520140835
Ni 8.080629488191407 7.858165065009517 1.4445781038351035 0.6483867087503479 -3.0244709239217586 1.3759942481062368
Ni 7.429906024080887 1.084082056786354 11.372865347859438 -1.2158502594920673 0.8448711836667643 1.3368399465042784
Ni 2.983115683398431 5.047260211055798 12.48935632384363 -1.460320261148827 0.5275872833720721 -1.6307700025643788
Ni 2.657505078191604 6.925144315504517 3.9165919177279975 -0.07011758275269214 -0.5009539970552599 0.14158653732695617
Ni 1.9581245650898065 0.07429849675442797 0.37114312221597784 -0.6512066946976461 -0.8842648549730384 1.3090041552389327
Ni 3.925772050016933 4.478824541436992 10.313114633000627 0.4383386362168838 1.2157841821408222 0.4364941268089773
Ni 2.186571335348988 9.345618847567797 8.355341307754918 -0.2474195712033868 2.1830267636586727 -2.4766482873394184
Ni 4.281933008508575 5.421931697160219 5.301831149077772 -0.9661696601686457 -0.43768480468296883 0.18839578437101104
Ni 2.6383465412407827 7.237926214106039 8.973907543251071 1.828155906249142 -3.279923906952584 -1.6335177405128447
Ni 6.65285830481081 2.236862494844894 13.873427260096992 0.04057123655414303 0.005744358682944945 -0.5596844210169329
Ni 3.5739405452185893 1.9094111674604386 1.2234162733370753 0.5944539632876343 0.10722605756921533 0.3843992058859509
Ni 3.3153190792618648 0.6778093152967282 3.7368172227635843 -2.152095878407771 -0.4372947683334017 -2.9657397286291376
Ni 8.880911629234198 2.9666524896362794 6.326710509254185 -0.15704606641513597 0.4139612358137838 1.5100027159756189
Ni 6.345570398423126 1.2492962636681433 6.7731034810643544 -0.02625610548305156 0.7785133250668206 -2.44507565473946
Ni 5.934488300672463 3.9544535068050743 6.452259970639997 0.6180777733541614 0.5045707678722406 -0.9604422707665653
Ni 8.690002443383072 0.6766147241692063 5.657945150371006 0.9746733267642826 -0.364504780954869 0.9337652756960112
Ni 7.178196657729949 2.835632514635834 9.581726215175403 -0.13325950551849952 0.41165907004316843 -0.34779132485493003
Ni 3.0793779401366272 0.7333822204696645 12.311560405220167 0.10731707462112484 1.157143232569162 -1.820592234969271
Ni 7.9019385653662715 5.6776230339362295 12.591814113339893 -0.7570093895567737 -1.486651185733872 -0.19366988828575676
Ni 5.062079902873639 0.11713191399903637 13.29668767951156 -0.23510655816398865 0.9949608733687251 -0.31036711857020094
Ni 7.684432822336359 5.932168615071064 3.0886698305577753 1.3855078440236268 1.0533100027315796 1.5141769019579665
Ni 4.772316422932148 0.20231039362480088 5.2537225601639115 1.278324980987521 -1.7945518450414515 1.5735187342513934
P 0.914914053798538 9.332273611779994 2.816787651770384 1.9027986305656972 -1.941503760445379 -0.26376433110999736
P 0.7757451265862161 4.859224805747296 11.78967810210392 -1.64001851774584 0.5230037777664477 0.8729962240377547
P 8.80855058648612 1.7256113014484165 0.4845447563734131 0.14750393125265565 1.2195629324569641 0.2790611093680678
P 0.5053289515331497 7.753178160806953 8.902954277311293 -0.8919853635457478 -1.0546320639771125 -0.2514495182983863
P 4.71630587667004 7.300360505110481 6.1969959443695055 0.8830435809714277 0.7503723438562302 -1.0847489379671513
P 3.2816695508820644 2.8897365986425405 13.065326745519123 0.9087769811817896 -0.500118645638158 -0.023082592851076375
P 6.708173884536465 8.469716834207354 11.873195236049979 0.9911756952946799 0.26818200056171876 -0.14488423424162145
P 4.068512541740234 6.328027189097569 0.12238078963718053 2.110492343934372 -1.3938945254254251 0.044411693346155766
Ni 1.0744558311125345 1.8782973277947177 1.9235481016134148 0.4501993922102117 -0.07631754091581695 -0.48907421489853836
Ni 2.7256681474019286 2.8547440943882463 9.295836704102644 -0.5308209598180214 -1.2087344743828923 -1.8409155199076555
Ni 8.009442375403552 3.0165679915449144 3.9484946383269883 -1.672300003487365 0.5125049351176528 -1.8764180836896396
Ni 7.120289040652123 8.200032252305498 7.202809742847946 0.043786658167647166 0.9769659794532012 0.21204813368262837
Ni 4.939859706855017 3.384749992829229 8.485495392016704 0.3952520894400548 -0.1638738879702468 -0.47913715829048453
Ni 6.355177841217582 0.01750188699095622 1.5245894133479552 0.7637690768781105 -0.6432028505565633 -0.1926339908220747
Ni 8.691937079957519 7.620730686974878 11.719480847058524 0.5691975027136906 1.114874296597622 0.15364166871927734
Ni 5.25296091440572 4.802312681275738 12.562261130949281 1.113509297929295 -0.10174626540156671 0.487167999014761
Ni 2.5824580836945388 6.780290749852816 1.4369494373815976 1.3547679917376085 1.2764323919504985 0.2631092140245017
Ni 5.908060789407948 7.392340265353787 -0.14440277654697514 1.2330342274705217 -1.3929589009850332 0.1106001162477708
Ni 8.52656321860114 5.7650103801751476 9.948533309690305 0.738085041848445 -0.4508992464907138 -0.17033224200108085
Ni 1.9828240514528754 3.150311484053075 11.382225795790264 0.693291025462206 -0.9976173371549657 -0.9661881721114071
Ni 4.74762632800876 8.143420653903757 11.16881565960557 0.4690121540413407 -0.46772505979880097 -0.8850148457651854
Ni 5.102763619575089 7.142133529351932 3.7177929834002126 -0.1487498878446148 0.37716309314882784 0.5431172606868712
Ni 8.12412124535771 9.299516270169963 13.719713810249505 -0.9222945560522503 0.1351071002501996 -3.4799017397342387
Ni 0.21169432015483067 3.519564109461111 9.157600346850723 0.020216841267507116 -0.18417557564207634 -0.5594697339029655
Ni 6.9648325395996995 7.650463985007378 9.692829764042708 -0.2696752972777936 -1.2733277848832458 0.5826482289019579
Ni 8.549572245821489 6.216860717584397 7.515556893122646 0.21088085284740454 0.8157362139740209 0.18649933867924656
Ni 2.580391966964548 7.749496716451697 6.447531380760223 0.925252867349626 -0.8001170193795253 1.039784714551635
Ni 3.0305518452310776 7.4889124396014815 12.384960141197048 -2.0008767030870573 0.517004108539587 1.1214594060143075
Ni 8.73622710949677 7.828225155304018 5.315178263153512 -0.913476186429672 -1.3224050020258709 -0.5031648886636495
Ni 2.436618416876252 3.7873140547885216 5.5487245851598965 -0.7029419182884087 0.1217281078401323 -1.0964916803253764
Ni 1.3266347694475618 8.7101376900608 4.857019695710014 0.8694581289775091 2.0242223197915337 -1.0230380912209156
Ni 0.3699034521779835 4.86115005088206 4.383932495748367 -0.2160881080799569 -2.050699025925823 -1.5175057092208832
P 6.717555932778558 3.345230814648319 11.748359524079982 0.03617902102371834 0.09994057965139562 -0.2797617349795182
P 7.80638066660421 4.48156684182407 5.380399933455505 -1.305149814489849 2.6262255561813355 -0.23341065851880446
P 7.0073945442375045 1.1817248551577706 4.651348105823106 -1.9765782355510086 0.1428242663887992 -0.4893701488724023
P 3.497822926597802 4.9198841146518815 7.987474858843912 -0.28769924465904 0.1488028525697373 0.48651313903958154
P 6.9718385536023035 8.008568971513146 3.223456712014581 0.7278453663983078 0.3135573433727245 0.7184788375817434
P 5.8555626415868245 2.9853696289220575 2.0129339462166147 -0.056704908891212026 2.380914803790835 0.1690181511753476
P 7.414917286348775 4.388835766406221 7.903944576882299 0.9470275400225562 -0.2417379474375772 2.4541894441152703
P 1.9730757370631926 3.6235179552986807 2.797447860033704 -0.548293662681488 0.6366635067761487 0.9898384645404952
Ni 6.6844229335812555 5.210060817939371 1.2736247881637817 -0.8468787010150964 -1.0424090395483596 -1.3546011271424412
Ni 4.13599942729347 5.28317317586199 2.4941297151995068 0.6047301484026618 0.857803061237084 -0.02902518358775646
Ni 1.004433256845219 2.9582471511210904 13.44730852827184 -0.15684089238286536 0.0954717452467646 0.841213789419835
Ni 0.4330120485515763 5.395306965662386 0.29137974671072486 0.32477686623762775 -0.0019509530787837368 -1.1949919279858194
Ni 0.3406284564019539 0.7952051287508224 12.213033872374695 0.8711846247503126 -0.3387963204451714 0.21976504271091182
Ni 8.967434963022393 3.100471113661894 11.491335542013125 -1.5219953695611208 0.12419173888927644 0.014693854566748887
Ni 2.6680516649542376 4.3898688247712165 0.8643721428631285 -0.142164007096981 -0.8740115526761463 1.348470588764671
Ni 6.060211503692386 4.618418900866898 4.005304396106014 -0.7264965656798972 -1.1232293534305364 -0.7412225590361622
Ni 5.813751952123561 6.03023402822816 7.886653058140214 0.5704046356479144 -1.9436830274848844 -0.09649298742242737
Ni 0.6185004954183815 6.7007170814291355 2.2892141362069816 -1.6499738291863393 0.40800578956129724 1.7563347105417817
Ni 1.9957278895756343 8.715462636360366 10.418101537203192 -0.4683027866791419 2.183014165253182 3.517557088193168
Ni 1.2293488457840525 6.527707979611473 10.66067866760757 0.895123137843781 0.06379472585845787 0.378792915442767
Ni 8.530103791361169 0.9064580015090675 3.022004695976694 -2.7053756814499406 -1.2252923787415735 -0.7846312650391003
Ni 4.91273722905405 7.980901790210637 8.196665421179581 -1.017100385580242 1.4616112120461087 0.7498725214016764
Ni 5.4504253251547246 1.258208739926148 3.09889616922726 -0.14324592730725008 0.8091750158167353 1.5402545728816248
Ni 0.6359206768841064 2.1655157275824477 4.310917808798438 2.898298664267344 -0.2131213121421491 0.3945401509746947
Ni 4.320813568791124 2.491717993489227 5.917044640607533 -0.3215619588447559 -0.47866047576438214 -0.21229547380674407
Ni 4.512596158532655 0.9599741813916952 7.80137690754176 -2.7974473998762206 0.8980899337815887 0.1315054989418703
Ni 1.489585639366043 2.4148396682542157 7.308470013275694 0.819557130382008 -0.9518144198882381 -0.30648629545855605
Ni 6.358577542382385 5.386610492517062 10.456423306824675 -0.9967454760729737 -0.9345751731918164 -0.2220103871016628
Ni 3.9026409340807207 3.2763539960221797 3.4939639840325603 0.9823293006476437 -1.0066424234717115 0.5950016082609882
Ni 6.860925650960538 6.563282753126037 5.482651111278767 -1.1627790906987006 -1.1644186831846526 -0.10084843617764566
Ni 8.591711635673613 9.377859659995332 9.717145140522792 1.8832407630384274 0.27057312650171467 -0.9843812980806661
Ni 4.793409596457415 1.9599465043880708 10.458993743865577 0.4092674298825403 0.39115555077317793 0.7779926766766602
P 1.0523577735413177 7.473735873075733 13.850610757390118 -1.0449904271222905 0.9401974044746001 -0.6774766841377686
P 4.139511825734454 0.05352651046627763 9.650947699637863 -1.533728598837649 0.40637699570862273 0.3656715475694605
P 4.229303380531907 9.1901999122741 1.6598984588510677 -0.9923224073046136 -0.3494381164297337 -0.06323216848676852
P 0.9984039525695193 6.4388461773425165 5.4206460090677835 1.5792710633541382 2.304091526883193 1.581106059680348
P 0.7937785690631608 1.54400903232193 10.263699694827029 0.6122215716837004 0.4122463100052061 -1.1235952214103875
P 8.08116480025327 1.161955874627634 7.683992363815283 2.6141920220555686 -0.6071426144988963 2.7517835792905188
P 2.4397551577299645 1.3949293188134309 5.436686588044255 -0.8524808776932222 0.6972669793908185 2.374830545269968
P 9.146426411917346 4.5742040028451 2.1317760413817024 -0.5930650533599077 0.1472933579037463 0.3365134379482656
