# total energy = -340887.1268791086 ev
CRYSTAL
PRIMVEC
9.08937599831485 0.00000000000000 0.00000000000000

0.00000000000000 9.08937599831485 0.00000000000000

0.00000000000000 0.00000000000000 13.30322054174237

PRIMCOORD
 96 1
Ni 6.751542901860278 1.8259647056788364 11.382660770491109 -1.6567486860163274 -0.25397434160276905 0.21869366402360402
Ni 4.9696253113375946 0.26305926095342463 5.671296037562634 -0.6827975821300499 0.3669126190654132 1.187643200930232
Ni 3.0559753972577246 1.7197644387608637 4.887895461964689 -0.5688434618083816 -0.7993264051574298 -0.22629590185089415
Ni 3.5034090106866973 4.408256372179694 4.626766784432471 -0.19978705692708817 -2.203483488851128 1.3858248610434132
Ni 3.5434840686156037 2.6625144973651196 2.6676545393834448 -0.03978987830342824 -0.5668943085018108 -0.7291856824762861
Ni 5.0409950901667555 4.4466044487054495 2.704970062817632 1.1991149490152575 0.040773325262620105 -0.5641661109373703
Ni 5.2264092672345175 4.640089991488989 11.719033118821029 0.48073998400123014 -0.10693835112546744 -0.7936039008513558
Ni 5.647092847666264 8.483750696099634 12.36963973176764 0.3197580728667977 -0.49560970202421095 -0.5036724244276874
Ni 2.3166092116898054 6.607721708481034 0.23007209827808173 -0.69386258169496 0.8474564278954373 0.017756038431840385
Ni 2.6210033180588557 1.548438794192491 0.21439565182537484 0.5696171067496125 0.03417716010234114 0.3602447201269344
Ni 8.15795110970732 8.979021694395886 6.77638143912549 0.027773313458526364 0.635426549045254 0.26591685867662584
Ni 8.741370874570714 2.5614406384017627 1.3853708475439215 -0.37566002624074013 0.2190083670505454 -0.2185622806520623
Ni 7.041057700034813 0.5012736220785724 4.435706287113987 -0.12650393196222084 1.037369163131607 -0.13219609725099166
Ni 1.1642854151252884 7.096884646235615 2.2765268822602542 -0.8525639243253317 0.376845304798093 0.4637251946107885
Ni 7.8426315736193875 3.9336818825938344 3.5241564199016033 -0.660351851532024 -1.188451298653824 0.2567187371171256
Ni 7.812354862809411 3.6594645039008937 12.492828042067133 -0.516796106293839 1.7375651432437622 -0.11004141553082339
Ni 8.590214554915981 7.3952070495662205 9.19754028708689 -0.9192927931114492 0.5914018067248717 -0.32677332784236623
Ni 7.166572890540658 0.9040484053596445 0.6183693237752659 0.0905974478735988 0.09002769141305786 -1.6666723728879427
Ni 1.9929728967393316 6.440977109318914 9.014781116692077 0.5593617475701915 0.06678080506997532 0.3923991933722919
Ni -0.11684119917412383 5.139014918859277 1.1246857315510388 1.0964400011518343 -0.3897211323194965 0.21851960033958492
Ni 6.375242743489508 2.1183881041113093 6.8730951245146805 1.0978754480467803 -0.37800924319920703 -0.47086360542778255
Ni 3.6534655158688962 4.764741691293258 0.6464045945114688 1.0661842875910865 -2.51456511698985 -2.703126737514764
Ni 6.084264555810199 5.7127272303618035 4.7188912439771835 0.1008872598353811 -0.3121985153519849 0.6324181012362334
Ni 5.316594053982217 2.999893948534351 8.813449624712748 0.19000452361902762 -0.4483438270587117 2.191970603115522
P 0.526335757988614 5.676624229660145 12.343539589140544 -0.5523804311563519 -0.12102671089773351 -0.13620239019690736
P 4.421535950232344 6.5042664330564905 12.391963238747316 -0.5318884818505872 0.2103514627064958 0.5251046261595342
P 2.5915810085746487 8.597776915586621 1.0383193915794637 -0.22032502897943992 0.19109775668320636 1.191004146982665
P 6.582198741217626 7.866618436371572 5.823311303231037 -0.5135403183607027 -1.1366934493552425 -0.07003967832690518
P 4.711541574700406 1.3902109401606468 12.481467231247143 -0.23995771560870288 0.8205734874616643 0.2061518228028514
P 4.087037831193632 6.469417766216068 8.17115706381594 1.6995135877876797 -1.682239116977948 0.1753816314995302
P 4.77983914450712 0.9451678325686668 3.61904768544168 0.15545429644798386 0.06873818590666227 -0.729719186382253
P -0.05165946739372625 5.615907199275682 3.501487516641297 1.7524294619501044 2.226128479944153 -0.5395814796194707
Ni 0.8898271679734874 0.3616898957001128 4.536344764976233 -0.9632257470489732 -0.9290089919579484 1.3362429363502277
Ni 1.7947426997850295 6.700069766670576 4.841374218714128 0.20033444479012594 0.44679268052150795 -0.81266734524071
Ni 5.9688294830732715 5.763255070467675 9.403913655825837 0.46470709890808354 0.6566980568295206 -0.35733757378246844
Ni 8.68976139874392 2.5635221054613497 10.259137570105665 0.2375336795482425 0.1588062436393523 -0.7511976679710031
Ni 2.830168034107845 5.412187019334521 6.781995037623312 -1.0550956338770925 -0.30499711250753925 0.896061076277018
Ni 0.7495890065369917 0.5020853033380533 8.811254540455584 -0.911330857951895 -0.8046717286297431 0.34247428351739084
Ni 1.6250258747343291 1.576852182962226 11.088965768383368 -0.27705899133637446 -2.0254325380495506 -0.2700735611574768
Ni 4.497923064506449 6.619237947627308 1.5523663134782884 -0.6950812845934093 2.4540698878182705 1.2847902769968906
Ni 5.897077950460257 8.096752342405134 8.185657345039342 -1.2731112979970656 -1.0562971103843615 -1.454184066344102
Ni 5.508325347235188 2.8677526030658913 4.739685009008701 -0.47764180469188067 -0.20906359713300768 -0.49920256158179194
Ni 1.0217094662314747 7.654481494434003 7.072125186539916 -0.1635699835765828 0.31793438939449764 -0.2752049688467712
Ni 5.336517965749095 4.524918510650439 7.174213419843229 0.6102225389758007 2.6756642704284372 -0.5883025989742577
Ni 1.1342450280862693 7.4140947724912065 11.08214146502818 -0.4542769047136951 -0.4337191351670014 -0.023500397114785333
Ni 4.705024492247463 0.8229329977912286 10.307920250056773 -0.1718489357559234 -0.557269126707221 -0.10595001907026914
Ni 8.221958494133574 7.452960943437908 4.429799101777631 0.9307845958011324 -0.8454710220342921 0.33711610452927104
Ni 7.225717458910671 6.046725433731182 7.0154929216426964 0.990255754583572 0.37946345914723034 -0.07187904552848912
Ni 2.508604096841152 5.0028106224055096 2.463290831635215 -1.730566857549058 0.4443318776858412 1.2584449542341423
Ni 2.69377286076215 5.324447274678651 11.676196708522244 -0.7181319957652859 -0.5881169653260129 -1.5288872115849477
Ni 1.2180581623939228 3.2680850710678757 3.8839948097500225 0.08090027519049293 -0.941828769430436 -0.6060871766511885
Ni 1.5023465694799747 0.9448860619186791 2.491400635253028 0.17822115783085435 0.524516100645916 -1.9472884854479562
Ni 1.0487958061335252 3.7208995949740347 8.050337444851504 0.2447597649830365 0.0035656058640712784 -0.6467712846341119
Ni 4.081847797608374 2.830049872222366 6.754031572955976 -2.092270678720022 -1.232609481228277 -0.4393110274324821
Ni 4.1825126346604575 7.069752859454535 5.777575382050119 0.45683001015285196 0.22610229778284932 0.06353607288043252
Ni 0.7586647482793398 -0.38652479721500294 -0.27287669576154705 -0.15488171177396554 1.2696678195331552 0.800960341216427
P 0.20900201622206047 5.845786602786675 7.957042273702971 -0.7131201443729912 -1.1507800093552956 -1.3605439749894375
P 8.55757460639643 1.9307015830920335 7.935624068553578 0.1891257205585001 1.233294937331076 -1.561547163711814
P 1.8179478762178938 3.644030743782209 10.182510496310279 0.4896326585051697 -0.5674388681513711 -0.06865822459834627
P 4.0866288092823595 6.0953717730452 3.748567654927673 -0.021418317774776017 2.9670455919247547 -1.0402143458898858
P 6.718539378308484 3.89005287872476 10.256663442011256 0.36126339119943585 -0.19900672711763792 1.7480526730386476
P 6.481842942942947 8.295282488761037 10.21792452232584 0.4140627943886547 -0.7467434888543913 0.7652788286544175
P 2.5258557321210486 8.706204079577079 5.816926016727282 -0.13503613780294807 0.29635846299593477 -1.5734855670206127
P 7.078415034597708 4.1593165476033995 1.4893623961410218 -0.9856077142885993 -0.9520417054076958 -0.5837697441009108
Ni 5.632840706402366 3.192152425584074 0.24078029191519776 -1.052445083628123 -0.8929806375794814 0.08719484994995305
Ni 1.1983251275189728 1.5011013249945449 6.718312143913332 1.1416443656026145 0.48970876315874373 -0.5241142372218071
Ni 6.999928274512404 0.9369237687125729 8.814527624683345 -0.5997067270461414 -0.21206690273570575 2.3693474106682095
Ni 2.933423343264655 2.075549875937362 8.829160610793519 -0.6266050940988822 -0.4093671886851982 0.4989091987110892
Ni 6.255953775410813 2.228115048842032 2.4907889202612803 1.1582642335474826 -0.008178422045734303 0.46758956266220114
Ni 4.159989161413048 7.3209286704791205 10.273531505632137 0.025681978147136415 0.2021015639928777 -0.18352740053511618
Ni 8.138254432335593 7.208820309287211 13.53775631879518 1.3995129000534672 0.44399532028202887 -0.09810018400854717
Ni 7.667170263059258 3.905859303251493 8.384567427303937 -0.526269593001913 0.3070928186943033 -1.9852945323780844
Ni 3.0466678764323216 8.692642730874441 12.085350415744006 0.6662905856139621 -0.16073611367221352 -0.34679553660056406
Ni 0.0772551496635834 4.9276596632410286 9.936681056134816 -0.1387171861989611 1.2998587412942388 2.0844205865479846
Ni 8.280757666222957 2.397750069510478 5.473610294219114 0.8896873115401904 -0.4163618748354765 -0.3604308679958115
Ni 3.3876012735417222 2.971998654185562 11.540729560446346 1.6303938501718824 0.2380381299884868 0.36482359774686846
Ni 1.0817084359272584 3.2701120018726266 12.659250877325718 0.5593110968379142 1.855898880690365 -0.038530294864714286
Ni 3.2795831314625383 8.41598031008967 7.803908105872842 0.24604840188747304 0.977071394682814 0.8238233618575296
Ni 5.766109134470778 7.708317867333279 3.6072214985804187 -1.6203058698082613 2.1315710189815413 -0.2961797713262254
Ni 3.1653842138352353 8.157123976508966 3.2039740677574318 0.47035478411216414 0.60933730815737 0.3081927366267015
Ni 3.7505218707259753 4.608731644958093 9.49319132286809 -0.6103580361124005 0.2638892867236359 -0.27954190565922826
Ni 7.57158638708276 6.672919801137883 11.35004172753591 -0.10371058821678913 -0.6902910622936176 -0.4513530461986807
Ni 8.17498459996787 8.564600693894512 2.2188038922663074 0.4061062585457393 0.45981866046753067 1.213242132445259
Ni 4.888711687912074 0.68972819535346 1.2992880960974953 -1.4142257807836096 -1.3128330420667196 0.033414828015019875
Ni 6.266570166352288 5.8519764677106005 0.3689795750965707 -0.9009690551015969 -1.3731701483938803 -3.8126541679781756
Ni 8.368415606496573 9.077577796260965 11.05142391949161 0.29887994386620786 -0.13472914808549052 -0.15355707942527103
Ni 0.3769200538007423 4.797099869162822 5.492460750703296 -1.530061434398707 0.9669157943060508 1.610913629960084
Ni 6.949100485004932 6.1665052281034045 2.408295563320666 2.1070352386237063 -0.22980880010015908 2.0716931116789867
P 8.494567053308842 1.5816331946362119 3.253741127108337 0.14091033719553794 -0.5451281204693128 0.6949532436559772
P 1.6981317243424474 3.112402242261728 1.496718427980864 1.6376582450437795 0.548787828709087 0.4181845298665121
P 4.77326752579934 1.0535677284317053 8.068975209941824 0.29739436045961687 0.040102267337524485 -1.0009510295138893
P 8.77118402721458 1.6359603938290161 12.409869309085247 -0.12198830348005443 -0.5934180658239522 0.5164122405918591
P 6.350001546876087 7.950058906271178 1.1424700042531704 -0.2732185345443617 0.6911130439742807 1.0935811915468006
P 2.0211590511139153 3.556145569113441 6.04148449964141 0.5999124152990442 -2.0115298119255294 -0.24955718637167987
P 7.014280398910167 4.091955183504709 5.708810618326973 0.16483008123592902 0.3418214804247403 1.3127273697267907
P 2.3250895993168568 8.809904768148385 9.825398919203678 1.7686446382573862 -0.34949673758181093 1.7755002277266387
