# total energy = -340894.5458622356 ev
CRYSTAL
PRIMVEC
9.04954463300972 0.00000000000000 0.00000000000000

0.00000000000000 9.04954463300972 0.00000000000000

0.00000000000000 0.00000000000000 13.24492331240269

PRIMCOORD
 96 1
Ni 6.492903484752645 2.1799176591138067 11.702870220369755 -0.33515923791321633 -1.2168550466074979 -0.47844116066472436
Ni 4.554255735221478 0.28439460959858415 5.9401889716952185 0.35283351526452783 0.2875830307961499 0.09162460358653253
Ni 2.7485095982378756 1.6012716758973813 4.497857163131124 -0.8574497916627234 -0.2350343101651565 1.3922487622918862
Ni 3.32356291223318 4.041626180136231 4.644716793327699 -0.7506052858026427 0.9266680025295977 0.8604692952153374
Ni 4.994126951420546 4.753662451310651 2.321225393675224 0.5432435018520902 -0.7789635252303616 1.2562844562477138
Ni 7.10249891062961 6.353386655075006 2.6609054813737396 0.3294709292791874 -0.6578586527965251 -0.1622569211921141
Ni 4.986362442121498 4.572264329050271 11.464897964853051 -0.5478586320265985 0.2568537200330931 0.7592369933357118
Ni 5.55790453279742 7.9197451877605864 12.260401806037766 0.2348517618407052 0.12244416007055041 1.068062735560722
Ni 1.9251005812087036 6.440968148077548 0.6120885754246186 0.09726457548112927 -0.08215008843719401 -1.5041156610672224
Ni 2.8007073717074626 1.5174276448301613 0.5611830769292785 0.04808014333667848 0.0630341935433495 -1.0307503722635087
Ni 0.8029534263303761 -0.033093279785182596 4.571802802273754 -0.20585460327740676 -0.13577944372687584 0.38533354477476217
Ni 8.537829086507605 2.5251577870376534 1.490212949241554 0.6905653990009268 -0.046411240274687814 -0.25802871417780077
Ni 6.857591084102661 0.9153885887255805 4.865694908969483 -0.4291857660730221 -1.5473325627743286 0.14796467293915808
Ni 1.2881483818923216 7.346809467210477 2.7238713080075883 -1.8671793387001907 0.8763412292505877 -0.2946401947532474
Ni 7.44068039373614 3.963202826306924 3.765372540893618 0.8591171520628171 -0.08020890555042315 -0.44986437746829616
Ni 7.883411266040685 3.995002926163396 12.489445780815029 0.18836184580928206 -0.28384258991711114 0.8226910480252994
Ni 7.979254993297342 8.541204566657424 6.892909646914226 -1.624716340171131 1.5853432376901473 0.21698979395861986
Ni 6.911073892910785 0.748638964370058 0.5429826327541687 0.288950857677954 0.7367583526172216 -1.4323769977713396
Ni 1.7382908312550478 6.539924918689534 9.109077066982806 0.5908539046412018 0.44111491341044035 0.5426140957982074
Ni 9.03768973410922 5.0996989391626055 1.4611928694977478 -0.24484615404925572 -0.7825484143681426 -0.15596388909455075
Ni 6.410398786291788 2.0601650349246516 6.939094902926602 0.35232855060365126 0.1996585017690239 0.2006936279017576
Ni 3.4226192278361793 4.243277183295525 13.7054493829476 -0.0984861065930562 0.5495918126676212 -0.6963084721322911
Ni 6.113256988116703 5.594853823552676 4.944568025167278 -1.2091594777354528 1.8065208444778695 -1.0960461081475252
Ni 5.112657887083627 2.924658984608457 9.64731049871117 -0.08373748752897191 -0.5653418764130264 -0.9519704858501282
P 0.35439464727922737 5.591116361617354 12.474280553911367 0.19947286812077905 -0.3055262455381319 -0.4607756250641613
P 3.9606870528976756 6.2385479336240595 12.653881436606722 0.32290073226083743 -0.5833095166350406 0.05128322365500845
P 2.5249948952341774 8.560932573967358 1.4059490193031499 0.6830518642327011 -0.30125795718008114 -0.3542008279256997
P 6.143772052634636 7.769848530383637 5.871355420318359 1.7019702768582883 -0.5991035462445037 0.232556023827993
P 4.723762755828073 0.9847171501941149 12.776079247756952 0.999533323230756 -0.5002338310597837 -1.1549973898707526
P 3.9326968113336274 5.957007550404169 8.198263023071524 0.15132047678526842 2.3729837218692165 -0.06606089618481527
P 4.731880197367985 1.1301523820647348 3.8241140400906426 1.1323886513323014 -1.2368024362637022 -0.11692245892137282
P 9.359129559636221 5.719990926801195 3.544699394906121 -1.108008422715724 -1.106808745980668 0.9344332482973133
Ni 1.395177346321033 1.0997640111717262 2.434602613667201 -0.5189679171341771 0.5870106196357117 1.1361296064319724
Ni 2.0503824771714227 6.47632471897659 4.924277136180886 -0.574720489414449 -0.7010917524535475 -1.1394728118725923
Ni 5.815463622727711 5.57502627125173 9.20381765474814 -0.3696282182243634 0.3520184755624002 0.03946849040826751
Ni 8.606171247610643 2.358637116161462 10.299160058409942 0.5570642097852664 -0.22340263946349914 -0.060328364576412226
Ni 2.374482868821872 5.114205359216654 6.909121906132459 -0.7779222284500409 -0.25610295790999765 0.12800494198777954
Ni 0.400641440195139 8.97617092966292 9.282770406938745 0.2503128335907818 0.8920555546620508 -0.3587105428705951
Ni 1.592357874429361 0.8919394086606717 11.470063444932185 -0.6151202333877342 1.8518884739793913 0.1858709610666283
Ni 4.1177961973507795 6.920566865235612 1.660264752435331 0.7571667410702443 0.40795282483617484 -0.21523887270578415
Ni 5.548619699999257 7.955943366310924 8.080714867956084 0.4201537377777409 -0.05357999010898514 0.10718054904326058
Ni 5.321910507738492 2.984874654626944 4.779483517025071 0.8341396561818731 -0.032992138655304475 0.33015175739629593
Ni 0.8677065380301479 7.547546466361376 6.880340734367086 0.9814975487749678 -1.19933195012207 0.32209597697135495
Ni 4.869216086787968 4.451018529995914 6.964604664305489 0.3902294394144828 -0.3647539208511976 0.08038631166855188
Ni 8.021045790433707 7.231319178545625 9.15727494172258 0.30840382419624307 -0.9951619336359376 -0.2453971414567193
Ni 4.650995367397256 0.4475859530026084 10.370113013140925 -0.16720603766727332 -0.41057457872973807 -0.01700296231589975
Ni 8.255193708386567 7.280793039079299 4.724437851858036 -0.7435514642796549 -0.58427985096811 0.28950107375446915
Ni 7.256078732674055 5.987902695796883 7.151781825771431 -0.019874370326423835 1.4008563014552389 -0.9574793314834994
Ni 2.503420780818176 5.186456923603128 2.6223363221283544 -0.6239923390663834 -0.4328243912668739 -0.2826490838296422
Ni 2.3651437387558856 5.230365314184688 11.465374875855451 -0.6842687673589376 -0.3803510039585063 0.36344060135641276
Ni 0.9770702849753561 3.5032597201016946 3.6302085421866566 -0.6297187000271993 -0.6198554340798744 0.47904357013541365
Ni 3.8437488370908093 2.6436615740668223 2.6574747990016307 -0.23654509038272814 0.8674117879714417 -1.334873823916843
Ni 0.9895948547537731 3.341833942856463 7.970702268660361 -0.6275643726883579 -0.23328621712579825 0.7941469178390194
Ni 3.564136006878725 2.4161831705118617 6.8583141427192045 -0.24159319432959683 1.4924348822951843 -0.9696241943761494
Ni 4.053643975414944 6.807311814096242 6.15488941822191 1.217303446998826 -0.018747970031464483 -0.37845635803895467
Ni 1.027376703615688 7.5143708357199905 11.59618242377388 -1.0813849065909247 -0.8464752949290905 -0.683467611613881
P 0.20323014869855288 5.574926726260715 7.999721443449703 -0.30958061811316356 -0.30546839571700296 -0.6985461032135583
P 8.654604410510995 1.4696912968669034 7.877894663629614 -0.9768070852778337 0.032210523294273555 0.7446436689025692
P 1.7228342090140534 3.1203372883069456 10.30815259091631 -0.04421577528526579 -0.41337296741048163 0.7731086091114815
P 4.082122892389422 5.9825906130946205 3.884272697977913 0.430988880720032 0.989947993535166 0.26996146105964475
P 6.8628850677156485 3.9471941818430376 10.461277220865485 0.6712510149430311 -0.021176376967299012 -0.23231999655778698
P 6.3231883246193865 7.802852219676908 10.231769909402779 -1.0707145713612722 0.4814830328148418 -0.26153364200726575
P 2.5669485841740185 8.427696128268202 5.703343384485894 -0.703400345982066 0.5728849788676069 0.6481522241420385
P 6.888097099075958 4.051300143353809 1.4452068488954548 1.295400705522885 -0.36267364128340124 1.0988175002450753
Ni 5.35758381269985 2.8681626774360174 0.5352009293203098 -0.15593097897408628 -0.17727833430161083 -0.007354383482542173
Ni 1.6066109072335564 1.0311322646402856 6.8823271094150344 -1.1633658164401062 -0.19633406538148124 -0.2979576891622546
Ni 6.808289164917101 0.8953881901220551 9.150851574938821 0.47684476271188203 -0.24056758127855987 0.020918495320222042
Ni 2.6096624348634174 1.4113850807669468 9.062825749294575 0.3855667438314908 0.8464578114275939 0.82434401024769
Ni 6.476315669431954 1.9188111476855825 2.700640221968445 -0.036899958350142904 0.30124330189206183 -0.5610609896494854
Ni 3.972288569123059 6.906838706020396 10.423092667267198 0.29485642452911154 0.24182073695937062 -0.599465814679929
Ni 8.07958729469424 7.149058817789982 0.0418152309068865 -0.5405754681016237 -0.1460746550052968 0.40500325528954767
Ni 7.440454155120201 4.005817132005309 8.320620106207375 0.9574423075979768 -1.5177587057719537 0.3811914975819306
Ni 3.0823292008290912 8.28920189713461 12.444770893802666 1.0585568529528155 0.30655674368517527 0.44566088090990985
Ni 0.05496331431083295 4.870573518483605 10.152127581910788 0.18275915491052397 -0.25899699162834106 0.442358041788922
Ni 8.579999964518748 2.3213529922546146 5.779753214633339 0.8224449934527642 0.7406795420484986 0.14240903322825152
Ni 3.730955312727957 2.496262591009846 11.725969183057188 -1.093441837755459 0.951250062744336 -1.0586614968514798
Ni 1.230801417523949 3.229664837073604 12.75180112940324 -0.29337958287326893 -0.04899288495893498 -0.5625643136678892
Ni 3.1867247477682654 8.356376666979399 7.933602755464119 -0.24209713054920887 -0.3588162152105239 0.38766167868730655
Ni 5.52710893239572 8.017389774400122 3.778008420071077 0.41556406152452946 -0.3062538677327758 -0.2298080287692107
Ni 3.1666438082174655 8.392973025493792 3.4781961012734404 0.6643470887343461 0.446862871637811 1.3053485607642163
Ni 3.162562463585915 4.422621058923174 9.333817078330434 0.24782040618623127 -1.2701396169632513 0.14311428682539223
Ni 7.066074493463332 5.962482524909908 11.288250853527403 0.5410228400516875 1.0399186690263382 0.4055110481639016
Ni 0.6162667501837913 8.770981554550332 0.5289124007516524 -0.297556597069094 0.8031689188319716 -0.746594621981353
Ni 4.669999411136183 0.32981608404354806 1.6286881763314074 0.2361882212639416 -0.27381605891904454 0.31654882190088063
Ni 6.053919123928061 5.677304224745709 0.3833188018498749 -0.4971166255870407 1.0273449461263855 -1.0276683909040754
Ni 7.939201708731393 8.787288833987258 11.455732586044105 -0.032013062571486804 0.3006753452037338 -0.46704603145390533
Ni 0.0999305016149901 4.856410981125785 5.624416875974738 -0.17543151090085915 0.19802867947508473 0.6423194195103454
Ni 8.015163586419277 8.742032061254697 2.475701120638791 1.023760828319553 0.23809212315487385 0.9680925882229715
P 8.58228044976742 1.5261876040393432 3.6844062650211495 -0.3976696977426119 0.7857990600949564 -0.9014346818841056
P 1.8859703501957885 3.199928033394501 1.6575363147270992 -0.44970008397629 0.05142540565982757 -0.09032542515913476
P 4.7689471322035315 1.3236949932287536 8.06970790681339 0.3706075514184972 -2.059163097532776 2.3574234055371144
P 8.743760524280477 1.45831601925746 12.585021641550414 -0.6745019177801609 0.8178807711208494 0.07411410550659495
P 6.397856117424095 7.932441698887118 1.3326250838771219 -1.00782333115369 -1.842672097587446 0.48456398573301057
P 1.7154769292236973 3.121875710895335 5.909355363206041 -0.29691870637477896 0.3628145377366397 -0.942754366568499
P 6.8526409831859025 4.054114551736098 6.119180820036465 1.1093865340101734 -1.2010666734249895 -0.4108327174871311
P 2.3472799376412934 8.481631414308206 10.095227665047512 1.065803764323216 -0.2142662243798697 -0.09682311706833648
