# total energy = -340888.31557249377 ev
CRYSTAL
PRIMVEC
9.07280304433606 0.00000000000000 0.00000000000000
0.00000000000000 9.07280304433606 0.00000000000000
0.00000000000000 0.00000000000000 13.27896434837526
PRIMCOORD
 96 1
Ni 6.723935983907026 2.329623635103348 11.176745230274005 0.17497796830320833 -0.3677754812863408 0.5378518985228736
Ni 4.821296605201364 0.5293300110254978 5.370849894190195 -0.10950534052169528 -0.936378287838826 0.4716184813159362
Ni 2.7184567547420286 1.8651596293711918 4.628635632769149 0.9756881411820422 -0.8293633178391523 -0.07428842630093013
Ni 3.6913787881194 4.738661515165451 4.8731277143754035 -0.7734269116828486 -0.48417934870008233 0.5942004525159315
Ni 3.8527567356895336 2.7001932022340918 2.4380182275140916 -0.7755586133138708 0.9575700914250928 -0.2995355751723357
Ni 5.1578794521658216 4.826313865279302 2.3737873184331466 0.7309751702765411 -0.25947650236792086 0.11917937327634957
Ni 5.737014615447813 2.824472458197193 0.4352913148558413 -1.5369692172621336 0.7404499425361957 -2.633969718903128
Ni 5.98096414343262 7.931771033447094 12.31123301824432 -0.8598802554810867 0.41782354698266755 0.025821846159110366
Ni 2.3146716557029103 6.745656274371011 0.08192287499772433 -1.7138351466166741 -1.3271121776935533 1.2102714798527092
Ni 0.8864074127640146 0.29550845306781987 0.17213829196874952 0.2466397556145688 -0.4118189926598005 -0.5705185355179594
Ni 7.98597195877368 0.11071904454811775 6.824511634662857 1.034484128274328 -0.3488840436984766 0.16527719607567665
Ni 8.964056417077536 2.3252505440408413 1.20798384350983 -0.49470621637333506 0.7451044105890716 -0.5364534755134502
Ni 7.183491603197655 0.4681430273625427 4.285785293468634 -0.8415950840186538 0.43521860253066336 1.2235399148268413
Ni 0.9661083582986519 7.084062754745353 2.1103993099474683 -1.4952093597165281 0.6032695046967352 0.25172874010170193
Ni 7.703771493196492 4.237997025326654 4.0478800668652415 0.35631401761396053 -0.43647921441064186 -0.6353612430249573
Ni 7.9022662779797255 3.840091102653726 12.747606718502146 -1.1512412652624302 0.4588784080414484 -0.6575292944815644
Ni 8.60422904873934 7.579991241400273 8.982329949668811 -0.7780458985120988 -0.7165165716490498 0.3109258192871484
Ni 7.139570163708869 0.7726326481539628 0.1957811093956912 0.21342650208739372 0.1379535685600592 -0.12955454586308654
Ni 2.0177278851950726 6.606588349462088 9.063822773802713 -0.37996456715336496 1.3359572867890088 0.9810180380353879
Ni 0.37051059391102137 4.844014903999115 1.1254040975724264 0.5433697430173093 0.7704210349769893 0.9209231296260205
Ni 6.528126748821928 2.016112926254977 6.399504342046333 -1.128872924869559 -0.40061206820038747 0.42331593755580643
Ni 3.6985190841073514 4.263745640337843 0.27719590742349776 0.2612608479618533 0.7592560194991053 -0.009842440011718533
Ni 6.10400042538003 5.884511174375551 4.655219852939794 -0.14456953121468005 0.12334404617700047 0.9449673150594179
Ni 5.3813607365053695 3.202899072755595 9.187701919152005 1.2338294696783074 -1.6729013845167897 -0.50444529803797
P 0.4785313868367544 5.919668286133254 12.319466586997896 -0.3269890433975981 -0.6890528190111423 0.42932280587151866
P 4.20843783304108 6.1568767214636155 12.606583604539342 1.827558638984775 0.7384313694442701 -0.8229972664118085
P 2.4064067671821716 8.481247203610135 1.5263639257466808 0.9019825839677756 0.843023074714432 -1.6944302597275012
P 6.583371046497453 7.891977719338891 6.005066044693094 -2.0929265671364665 -0.4846408617175331 -1.794587326265077
P 4.967141913976867 0.9544225879905431 12.563732755808598 1.9723261451428742 2.213878716042523 -2.04989298508476
P 4.030093743796906 6.5570054808799325 8.418863517226963 1.2324421024124774 0.5968600016259658 -1.638054966261566
P 5.168086355579349 1.3624446860466546 3.4117776806115234 0.29967672873589035 -2.24089818205416 0.17316122680944374
P 0.36654396442444903 5.614849322591691 3.5664381248151016 0.3415412301801602 0.18084908237200467 0.3914949363904677
Ni 0.6003882043897125 9.064229235378647 4.637850878811033 0.26216844737778716 1.4866946373772976 -0.3616904514345255
Ni 2.025639369440935 7.06833051428397 4.770919866353713 -0.279925257140576 -2.588555552434387 -0.8435092703222312
Ni 6.047331697628129 6.047404280052403 9.403524850450344 -0.4043504521968972 -0.8988435241181617 0.14137107888204042
Ni 9.065889558333913 2.7970000106094965 9.984227794096652 -0.36663082615893633 0.027623418144223394 0.55420025797391
Ni 2.4931790554017006 5.81141160032863 7.001520207300389 0.034202871133954 -1.2469660070602653 -1.3843590751311643
Ni 0.6454736845077912 0.5187565663693875 9.186599573583342 1.7128622411804435 -0.23801473294971912 -0.6372576887167218
Ni 1.8890483197603616 1.4513127917670943 11.26745330044979 -0.8434118255124183 -0.3203463412700999 0.12778665532938638
Ni 4.555781024404154 7.023474576082658 1.2946463508126445 -1.0119972600257217 0.8674791508742673 0.9280990785491694
Ni 5.812618283132185 8.125321140576663 8.088761373469866 -1.3121203322704111 0.9709336572161925 -0.586315650451216
Ni 5.3701013879398705 3.1659818372092476 4.344067165600023 0.7132183605137523 1.0194557731862959 0.9272554996019514
Ni 1.017115656957183 7.99216868324607 6.809585966391218 -0.43160928791285014 -0.8806108031602189 1.112041455134517
Ni 4.90832293190585 4.848161174985766 7.216054800567866 -0.10349950064724756 0.390037892228967 0.36090292253622364
Ni 1.3891640909825091 7.526688523574078 11.199691256427917 -0.7269256827975158 0.49797845936670376 0.6173735481982852
Ni 5.179209612099334 0.6678544750326693 10.310278931298958 -1.7759105757911802 1.0252474401674085 -0.15065816061092116
Ni 8.264815487228196 7.25446814133456 4.8122963845913915 0.1635725546797441 -0.8421288450349368 0.013254293906744914
Ni 7.203497133888167 6.230248479601563 7.353916949953538 0.4607661119824646 -0.93595431292753 -1.2804793083263624
Ni 2.5063799838165286 5.331242572544195 2.5240919098999837 0.627524520589358 -0.6095720498759953 -0.06447144021050832
Ni 2.7230929570925286 5.458479562296461 11.265926347699125 -1.0208079163388162 -0.2643561990577254 0.8454311699352924
Ni 1.3387011605060328 3.484890863862995 3.7676003136904037 -1.3039069432216834 0.7449486017374976 -0.0721883492387918
Ni 1.5698943274246897 1.302047036247679 2.391648038486364 1.2092525516698915 -0.18223876363067967 0.8181805617494555
Ni 1.1038697995706435 3.668379232427586 7.93610692601716 -0.21389804240717356 1.3909503551954367 0.4914234318570053
Ni 4.158355960292042 2.6701531513877033 6.557590676675642 -0.9270187010007969 0.628542420330911 -0.35419902815348675
Ni 4.351270971209215 7.0312499682830065 6.071594187502311 0.7167073475036173 0.9160889414621707 -0.44980344232337377
Ni 8.309254076489934 7.497465025000771 0.0500682635444866 0.2931106454825984 0.07588379581250802 0.5828878557165896
P 0.30387720658660844 5.946768748796546 7.728835111578596 0.32268244560244425 0.11195483050345234 0.8297978342734096
P 8.667402976266795 1.8385581708747825 7.821495648967351 0.13288798111169373 0.7219421135399954 0.458691488841623
P 2.1878247964811166 3.51592892304315 10.164622336826566 -1.567881333459958 -0.43294626155671884 -0.0982505935434824
P 4.1815460448475745 6.413863867408634 3.6701593163829056 -1.0591366367156856 0.01907707123610908 -0.6521996547385348
P 7.200920457826441 4.2904468996676295 10.268556739265675 0.3111500194828125 0.1569195681396007 -0.4221841379442084
P 6.378398280347766 8.068652412824763 10.167968386585596 2.703644300581131 -1.7805586160861528 1.0658505584007514
P 2.5805773670305925 8.930332808199244 5.542215183340428 0.2620928569448454 0.9878854545791824 -0.4728340988905922
P 7.35014992213372 4.409291546613217 1.5260318611556274 -1.2471940639106713 -0.14608751052110325 0.188339734322095
Ni 3.162742846526022 1.9409447531162487 0.14542705255562585 -0.4577923740661213 -1.2196349233454802 -0.9881330518136144
Ni 1.511193291793118 1.532623252560007 6.869859318788625 -0.16187356971076639 -1.2645286985343769 -1.387417916562146
Ni 7.357208562894362 0.7345713321449973 9.306601910196102 -0.7740342062495443 0.9629974330882511 -1.1445895642738675
Ni 2.7535594296815264 1.788122458807409 8.729232314384575 1.5959644648494191 0.3317106172429835 1.8138135214845408
Ni 6.75510106232966 2.4704516838009143 2.2515276684254686 1.4229752448414654 -1.0404537155942017 2.9314766936812093
Ni 4.1410450521027 7.512906935765059 10.496516359182928 0.7139413547227059 -1.7450380545820399 0.16477480251796137
Ni 7.623295730282729 6.331147122145413 11.26770552437414 -0.6016602512280864 0.3760246086690105 0.22911280247439897
Ni 7.466971334002671 3.587858105498653 8.004652860221192 0.47016220848538387 1.2170424800279556 1.3159019108000305
Ni 3.463324811050592 8.600754165177223 12.670986896877938 -0.7137546926331966 0.09800351052968283 -0.335502480185248
Ni 0.2533643756934438 5.323848238071284 10.057115971832877 0.5088367422374462 -1.2045253213975513 -0.4151074336030851
Ni 8.614907737910647 2.755637101576369 5.798777722103443 1.1431569455923989 0.0010860339753271618 -0.8680620199609308
Ni 3.9463699173968836 2.66730429123495 11.065002773543624 0.5864007539658546 0.03706425184214907 0.9658377307505237
Ni 1.152908299970743 3.827733944921083 12.372356492286034 1.4677800598609818 -1.170929744830293 -0.9358977486579818
Ni 3.2640044011912415 8.82624053898734 7.450481514487929 1.2008265323897254 -0.25664417512544835 2.4362084341568173
Ni 5.6303728885832856 7.964868618916023 3.3350780183206146 0.08008009328204273 0.7905396601037352 1.3697654935877055
Ni 3.237602544361586 8.604973018588147 3.4553588899865244 1.206232019676013 0.7226843910226586 -0.32952132290114866
Ni 3.8481114605359994 4.694740075676666 9.48874931847223 -0.5834069614448533 0.7383418950542575 -0.956118703690547
Ni 5.476443712304268 4.500554872334699 11.613888304229135 -0.3392161815914093 0.22781131005415606 -0.09280731104072402
Ni 8.48505778088452 -0.0412504062755029 2.3520098693100464 0.024214135352358297 -0.29070537847521544 -0.8711828249780997
Ni 4.780097006622852 0.589100730134807 1.3408695604312177 0.025154130668124424 -1.2513736492096577 1.9848175927416654
Ni 6.284050201594643 5.871237663536448 0.19825798462404037 0.9360101058661299 -0.8220480151246616 0.4936556636216337
Ni 8.629342567538133 9.01613430649411 11.17192485002191 -1.0580171783992616 -0.31198871333402395 1.1611238144834646
Ni 0.4889642030458339 5.130733625487358 5.743948958806888 -0.1469524296245598 -0.40889564836541836 -0.5324847206736893
Ni 7.4963127790154225 6.410697459149682 2.5330023097599166 0.6252984594723165 -0.9955779381274338 0.11652908013769607
P 8.762549461686932 1.776209868423444 3.6537865360273045 0.3473789199078598 1.2864944041721906 -0.4977079793141364
P 2.0170564977705383 3.2528176350500164 1.2377108826515373 -1.4544532608450886 1.2479831354708701 1.3915846463453259
P 4.999885660127462 1.357073586650381 7.951497121804152 0.2093572171140265 -1.089479510673601 0.7076624636925296
P 8.794186325867349 1.8504616884557132 12.110508138475266 0.23875701043238237 0.22495378600070287 0.9525165881615854
P 6.637943956748442 8.071728093053373 1.5180913439400554 0.29510196488101437 0.48812573494233996 -2.274442079447876
P 2.1388951697174283 3.4781769896176526 6.014839268121584 -0.0560086541551358 0.874219040701262 -0.6293147797205614
P 6.609319263175395 4.225812250851661 6.143552402927521 0.6582057517232986 -0.2214444872958638 -1.8403642753898755
P 2.587400114912345 8.77341867972196 10.035338522709774 -0.4814796903807321 2.5435221663438323 -1.2917723647416783
