# total energy = -381162.7554481911 ev
CRYSTAL
PRIMVEC
9.34442260128627 0.00000000000000 0.00000000000000

0.00000000000000 9.34442260128627 0.00000000000000

0.00000000000000 0.00000000000000 13.67650702569904

PRIMCOORD
 96 1
Ni 3.144762710070517 6.754569310424418 0.962834375883122 -0.2630415940113599 -0.9809249641009492 0.22874307783980607
Ni 6.517566714542459 8.74200656588892 13.238940897355354 1.2320582367104975 -2.500070008697468 -0.3817800230955489
Ni 6.1710007611430155 1.4200719353460267 8.276078693207145 -0.04453767740105878 0.7350161731151341 0.6753292987774627
Ni 6.324791271848582 9.011340864714205 2.0250261306841044 -0.9701584696130646 0.9102517659551034 0.9936326414756049
Ni 9.105822323806683 6.965155223005572 11.098609261333339 -0.21038051617221834 -1.2732316256250136 0.4028903227116029
Ni 3.5153531745298716 3.714454791470174 11.146531199302862 1.7246108970759395 3.540821200927431 1.2017739839046593
Ni 1.8942266378750003 5.814987596276606 11.009780243602254 0.15051726415768268 -1.267054036059392 1.5627465833365537
Ni 4.684331124387427 0.04317029896759301 11.7999539813452 0.33871584491622314 -1.022529012794981 -1.329882798460155
Ni 1.2856617575608242 1.0010867051226595 1.0343846213851589 -2.164420718521711 0.6596165160278963 -0.7638402964356781
Ni 4.548547316448273 4.976082693548271 2.7005223083023733 0.22397213881372394 0.7354491468874946 0.5456176585112217
Ni 8.190470698020732 3.1600969079115573 9.21635189464334 0.2761768458417373 -0.2837739414627048 0.19910622880997966
Ni 4.432190563543564 9.158805201173346 0.3480339622238357 -0.7451887427727617 0.19851616063446456 0.7648286284908763
Ni 0.34299918721058015 3.6097038117029245 11.576247564688112 -0.4739360737055193 1.1981178752093107 -0.18940082859675766
Ni 0.11993006018954429 5.674755843077041 7.453039685978081 -1.199008248234064 0.1426471173809866 -2.175657210667479
Ni 8.714113463783189 2.62881040428562 0.7274287418604158 -0.018051715295388265 -0.010680105421665479 -0.9820961015909151
Ni 7.9365360079961995 4.985856959813797 2.665031256004961 -1.0647151592447277 0.5420685077073826 -2.596284031426896
Ni 8.984849426030873 8.557248637971163 12.633482103185214 0.5932733127159718 -0.38701221802876573 1.943281678281408
Ni 6.263304969719366 4.187170452885486 8.159937796469483 -0.6201300278974998 -0.1349824017468772 0.3116871229332051
Ni 3.729340457016047 3.624019467457021 8.57356960686157 3.3033883086231106 1.6237506338237517 -2.5152114923245974
Ni 5.237932109697948 6.830034869086355 5.854817264087483 -0.22628047523192643 1.8163576280626332 -0.5611131830436594
Ni 1.4617106834140792 7.636103470039299 2.8338410575026685 1.251393960924632 0.020536686500771083 -0.7321846172036099
Ni 0.545721767992079 8.420436943522251 4.754802089054216 -1.279832675881299 0.06772260015795434 1.3737108513886986
Ni 8.50843337318043 0.7889365361621081 8.466974972472727 -0.19652149880193898 0.3787777459341154 -1.0437704386722606
Ni 1.9114390647020543 4.335653331431569 6.595140374991683 0.02222718682931656 -0.18112573307215904 0.8934853451300417
P 7.383617165551244 2.213964753369736 4.834125959896875 0.16160617498199267 0.5897802119610487 0.31952641647196584
Ni 1.3079108282856968 9.24075578926958 7.063123086250695 -1.5841024233045105 -0.28164918181021814 -0.2682200528885058
P 6.949241670949941 0.5348308432000425 10.414933910424233 0.24812328213863072 -0.0757009903777406 -0.4670827982291117
Ni 2.96930248285467 8.39631898823418 4.655017670013665 0.6417689463235141 1.4760579835990577 1.380413460219855
P 5.153832304354037 3.2982355104003402 12.51158317310834 1.874146256936327 0.9201250592047573 1.1887580312609656
P 4.2434051893921145 5.690762839360833 9.805399079021758 0.5790679677498671 -0.5189062106583063 1.5747670048361977
P 9.210479859345773 6.299757563124544 3.464901701304059 1.0995692908094354 1.7733950084581782 0.2702049445290185
Ni 8.071142418660537 3.483096226969074 6.789168904785185 0.10233633357708183 -0.13552336185201178 -0.6304290958306626
Ni 7.625329350532462 2.824903117079174 2.8244994380135227 -0.40977496564657817 -1.948582007448399 1.2275940302915567
Ni 3.806357189865438 1.4885011436275228 5.295188191618365 -3.144994212820513 -0.7851097473374156 -1.9929091115005484
Ni 4.193365805212487 8.270683223473192 2.6047868276679904 -1.216317171826157 0.012933163121900307 0.7239033510314242
Ni 5.252686953324397 8.62257549787775 9.330031470411267 -0.17793576537995162 1.4746091669676733 0.642686315931461
Ni 7.524185317972185 5.621660832636585 9.920596189055003 0.6870213904034104 -1.465240838378896 0.07220094764428212
Ni 7.791314333012896 7.288107819949009 1.584067490208936 0.703678282233801 -0.13324742133364148 0.7141961510459893
Ni 4.367536502079727 3.3261846790429668 4.372050792742133 0.9949757857670607 1.3376148769970897 -1.5279772981761686
Ni 7.6223017575400815 7.657857286354924 4.720733257909398 -0.8244411979471866 -1.6352864023774931 -0.35435149457095105
Ni 0.6050382951434214 6.770015641339249 0.869344360051422 0.09550234137438392 -0.6409644481443478 -1.246323231269944
Ni 2.1867444497067567 8.815397662685706 12.349680768956212 -0.07655639639950042 -0.22324400239844774 2.0514564729171383
Ni 3.6809737245204817 1.9603290848753148 12.579091021300178 -1.7746257955414855 -2.04978936962736 1.677450180229737
Ni 8.284120503482585 0.16220329456680224 3.5725363699523234 -0.7760700057326505 2.1113264097998927 -2.2869625805123905
Ni 2.4722632888493363 5.747072331249989 8.749572745043029 1.2020087256232845 0.8017828371177224 -2.401015688305768
Ni 6.327884275800674 7.694721034364005 11.161178582066926 0.968023425547933 0.07694591852843523 -0.058138556013945034
Ni 8.066909395124894 1.227576825336629 12.553406006305867 0.45168600405806725 0.7570692962604316 -2.296535568912806
Ni 1.9606748285195066 4.8799753048858125 13.5362682836105 0.026253277269574143 0.6227805781464694 -1.322969102059457
Ni 0.3987386693079616 2.3221264474648224 5.390294792597231 0.8496318382802013 -1.2551858238668965 -0.8548874302521857
Ni 3.1351472989928633 1.2414813264868227 7.600172295427254 -0.4680173942282391 2.357452201892521 1.5139169634283605
Ni 5.85909327196808 6.555449004638484 8.685252279473723 -1.0403171900163373 -1.1419801516754784 -1.0466655008318684
Ni 5.330114840777691 1.845233829050764 2.7280799456290103 1.5490292337504612 0.12622316749700843 0.7576213121091597
Ni 5.752613573979871 0.05594225607248838 4.675655762245062 0.16223018171923675 -0.35674030651810174 -0.35700872968814
Ni 2.2506603017681295 2.9071620711283352 9.739437732805966 -5.623991717118398 -3.078220606839389 -0.11754158056261046
Ni 3.4422610992631966 6.208004675494337 4.446588450218441 1.5237460337036401 -1.0186499894555487 -1.7988566430643924
Ni 5.6761575064994405 2.656591373317559 6.193734807412038 0.868386493179885 0.23216444481652918 0.4086958736497864
P 8.574021876925865 7.819403667997762 6.730605538112811 0.9265217067597205 -0.8743134001872813 1.1856161431978742
Ni 1.1778831848011935 1.5707414088310523 12.045802942307056 -0.5273828806707498 0.22305399787482874 0.6463048865206547
P 2.4332036014784975 0.7702037717428926 10.560451803610805 0.3786903284266317 -0.11049598656973873 -0.5910549649084142
Ni 0.010659183106199992 9.253183871614846 10.346209418381752 0.7673760775030783 0.23554570258393626 1.2352191509369825
P 8.06804007028563 0.27636784587888064 1.0435066469381284 1.5664903666497023 0.4844500858629657 -0.38462366319193114
P 2.4260364291786334 8.683089980034103 0.8478820897276558 -0.0831420200368181 -0.8561097326950611 0.8500239315122974
P 3.082650331612631 6.7337219031219435 6.616461544530928 0.2612960720751629 -0.6390312356773769 0.17145375720003375
Ni 2.290878697568151 4.172471675795933 4.38111862064277 0.7689254242680693 -1.7244370905022366 1.539355458106123
Ni 3.32668927787503 1.1780420399890652 2.258743227503961 -1.9946602898637005 -1.0384459411355536 0.5805278401248454
Ni 0.6568017253325991 7.151389569728257 9.012626657293685 0.12741255981941926 1.7237611474811345 -0.23014150084922946
Ni 4.575833031070965 4.994005296509341 13.731760150016985 0.10946317442985021 0.6711666827593409 -0.9711529723158501
Ni 0.9001239543650119 2.348318864618043 7.588984217989669 -0.24048427753613422 0.21370186723596746 1.2679590643721648
Ni 1.4035042736932763 6.482824150512608 5.290168367681615 -1.2292433929695217 -1.8334942877429197 0.7125290477562116
Ni 4.39148625775711 4.774037583420933 6.230114514319252 -0.05464339837649299 -0.7471697777585325 0.8622693245385538
Ni 3.401846470584039 8.40608391007689 7.940279383776285 -0.08026032761364887 -1.5644329699000412 -0.21955112692789286
Ni 7.181824354839937 5.919934808922992 6.496245545003214 1.2718797395828094 -0.26097725528316346 1.2492244640771388
Ni 0.5618137985234957 2.690810649669715 2.7286546276321935 1.729878573232782 -0.6363683441332331 1.3460393536153592
Ni 5.707395911973295 5.492502220473969 11.535368518195002 -0.5928344254063403 -1.0262555697169486 -0.05889343190209857
Ni 6.300869549439647 1.4548892547584062 0.1904879279885229 -2.124607443179515 2.855367669231773 1.6011712058613392
Ni 7.758459342391875 7.82504769937862 9.111467289629822 0.3066256492498977 0.9678215939497717 0.0775987216210857
Ni 4.371984447340139 1.6629241399107955 10.085740173481998 0.03484667536553999 -0.20882936963501453 -0.789953191472646
Ni 6.199996505141033 3.2999642286212985 10.656296613992133 -0.05335964656806294 -0.5159471280299824 -2.3216932991253563
Ni 6.546749346996797 4.81671356242156 4.500049762033284 -1.0101182978354537 -0.3512540865925499 0.28951624326312075
Ni 1.9120090744938296 5.018917527736771 2.516231601525415 -0.7794070405256834 0.9763136905811831 -2.59427677118888
Ni 3.8274568965839437 3.2968899135148373 1.400953246264511 -1.8019969884655869 -1.340462373748214 -0.3149966469224124
Ni 0.6068137354784595 4.791091155060115 9.404089758997117 -1.562147259189658 -2.2329413891009287 1.108608261083252
Ni 3.906155625540213 6.851751307710716 12.10730606439734 -0.0718474209596053 0.38168592071984586 0.22066981391336837
Ni 7.371936637031257 6.450782124676578 13.031085425121033 0.0008518064773340169 -0.293967594166255 -0.054793293690795955
Ni 5.467038668300396 6.67493613918655 1.4332158004789985 1.5728332781485945 0.4617775839661144 -1.0138649093620797
Ni 7.30817029573494 3.550908703344714 12.631800107078334 1.029383573822969 1.0493124515364123 1.0433042976691196
Ni 8.135852546661269 0.4935415765453083 5.903519461362142 0.17793859359342903 0.39387243548370876 1.0625374348671186
Ni 0.020119476765108443 4.288763017740931 4.391403092394048 -1.0914026958382428 1.5249004590230577 0.7691617086485915
P 5.724486861303741 7.129065743620856 3.586035323152303 0.04820895560505891 -0.6639154005135662 0.7141069337662928
Ni 6.479123759077475 8.517880584647395 7.234530637291248 -0.16773208537407244 -0.19811198321751042 -0.6449961950115601
P 9.019965766973364 5.10908186348826 13.107619051310834 0.5711548835503776 -0.1281031581285407 -0.29544906380778796
Ni 6.106028989303436 3.625710807986716 1.391461181568028 0.6092840863219313 1.0660022534872673 -1.064134347040593
P 1.6530097073030299 0.7110834774706859 4.274045551805746 0.7153456912694003 2.346833288726094 -0.5474467413001604
P 4.8503908622503875 0.5232886121377314 6.674600674407455 2.126121051610564 -1.4465157511655669 1.6457541346780367
P 1.646197623070173 3.1601155967571892 0.9336003491032967 0.16867825133742562 -0.5844965949646064 0.6933756147562122
Ni 2.4455475840184207 7.869872895626925 10.385734458008828 0.8842867093499093 1.2460041573676284 -2.0964345802897255
