# total energy = -340861.3738809258 ev
CRYSTAL
PRIMVEC
9.40203245715385 0.00000000000000 0.00000000000000

0.00000000000000 9.40203245715385 0.00000000000000

0.00000000000000 0.00000000000000 13.76082487305041

PRIMCOORD
 96 1
Ni -0.10875518711779546 2.252078180157053 10.312128256569126 1.733622870766563 1.246825367717343 1.5131253207650006
Ni 3.0812810099401338 8.75737248062424 13.02226686515726 1.522757958758758 -0.38736471627217806 2.983549503117049
Ni 4.640053334050241 5.983387491826475 13.301735691532311 -0.7268441788273031 1.0766831302398812 1.0253500271835438
Ni 4.042798639182784 1.6224616903816285 4.357282513958839 -0.13711358915726707 -0.6306018739631011 -0.7789432135153875
Ni 8.549108064875718 8.296776324102895 1.228156442447622 -1.053401019783489 0.9003751302713396 -1.0031585786881692
Ni 7.489978537104732 3.9386147201313033 3.8137989815719644 0.29814820790650587 0.08290136478092174 -0.20072550958095753
Ni 6.727633558451973 0.3632587973338897 7.805566210463645 0.9472964774132264 -0.4813843024534484 0.18236963278158916
Ni 0.9828226342576002 1.9710044268817144 6.506860679035363 -0.8183286572915455 -0.2449263724678879 -0.5363447178497278
Ni 3.4357188206433853 4.586151483321774 4.409312420071915 -0.8596789381035581 -1.0683378435989794 -0.9405383327537867
Ni 5.801382952073874 8.918692549488538 10.513545172250398 0.22831781737692936 -0.09789809530007011 -2.1563348561897833
Ni 6.0819301915447825 9.388624924006283 5.261974260451995 -0.5772810510527736 -0.305966418399344 0.12418813934485065
Ni 8.14610875774607 2.599737125628275 8.414909098158867 0.7442212366531699 0.09694961534387174 -1.031964447176268
Ni 6.549408635652597 7.025038641696847 0.8533942586901705 -0.07812399799693642 -0.2708348648035335 -2.1509435099708827
Ni 4.135493274859036 7.867977840556203 9.017839799878718 0.1287734447226879 -2.6703665123646076 0.3166642644328224
Ni 4.221032964014381 6.298393179390848 5.507453800141457 0.37929453766953386 1.6825062545964056 -0.7795281394845801
Ni 8.954053592675312 9.12392951086159 5.034301229587694 -0.9255423735655867 0.7316616548206044 0.2914484272888271
Ni 0.9500753560285317 4.894603954427445 4.395537502663529 -0.034397246532947214 0.6491621534637917 0.8563218487058671
Ni 6.059543952824309 2.7387555740620986 5.214278691193241 -0.39282188273200735 -0.24720488408941946 1.0064750446559116
Ni 6.750019797172447 7.808641615203447 2.983071142162483 2.2385700481416158 2.4124604398076 0.566844943321114
Ni 9.536857364017623 3.9344308157925334 13.419184937845749 0.5722650858954209 0.11002727446343633 0.12871765178408798
Ni 1.258856898261971 0.92919344246357 12.360275417628756 -0.21561553931891253 3.3200068910163987 -0.6566620613852627
Ni 4.447076622694619 1.2194623832519804 0.9808265828168792 0.4445756182655311 1.1158448880410072 0.05825142744272548
Ni 2.7109725688462225 2.7750098103099567 2.3587564583570186 0.4306813767819421 -0.2297776897519075 1.3339829366714575
Ni 6.442216066290091 5.4679492813544694 2.457642332251428 -0.02478646291606054 0.17662938786370228 0.9405879550447994
P 5.633218203751992 4.853093982167515 6.5510333068205515 0.3776636869343302 -0.015385738427450921 0.008451473201462863
P 1.1304157360778464 7.392639297510835 0.5673863189047501 0.5554832384513917 -1.2684020654468544 -0.21084434318251427
P 3.8952995576847576 7.233039800543152 11.485925909522294 1.0008556415866052 -0.9185536009525794 0.9124112355002674
P 1.1576816295215153 5.15960023260324 6.500434390011657 0.4823844615831886 -0.3053398405589387 0.5146862590396878
P 1.3622886547356954 9.263737730002058 6.960734382518009 0.5069127857418559 -0.8180026414106945 1.4923803749081652
P 7.8818270340191425 7.965561532987872 6.828506081754881 -3.5920072368829428 1.784187985308624 -0.7528547439584518
P 2.572931931763482 4.417845704516561 0.11275387142179283 -0.8588052772493532 -0.297010751867953 0.6952476349679445
P 1.1281592483445773 5.408782292581708 9.579501221363522 1.6052770004995967 0.10068491401658788 -0.9225609223397596
Ni 7.936875932678688 1.9100134438578937 12.47700822908688 -0.24277024535683348 -0.1897659252456603 -0.36702137672913565
Ni 4.670562928610484 7.173252277643742 2.741734137870014 -0.49774397475839444 -0.324325380522506 2.6568810762836628
Ni 8.814828299532603 2.1050115921412362 4.160241304073666 0.14941374668085883 -0.9669682448105413 -0.061406171021623275
Ni 5.94848714821858 4.647302300893368 9.330568315238935 -0.1276853538648317 -0.6312929864928548 0.17000442634801688
Ni 8.167639411534346 6.706290945308136 12.581522159469353 0.2569349668929898 0.9470635354668142 1.394078102191141
Ni 0.8389207702876933 8.623562758041377 2.920157443549272 0.1038471137946534 -0.7634559165130658 1.2629826942034958
Ni 5.580585627373488 3.9388403689046303 1.1313296136098203 -1.6696257990893115 -1.8173590727439541 -1.6752056071699344
Ni 3.7493894196322413 4.955369288677939 1.9256208173463387 -1.1929363310083714 0.6274129347121582 0.37213735779946233
Ni 1.036959535791616 8.218880487144 12.318538856392278 -2.5058434208461358 -2.105324169469871 -0.5524079419601777
Ni 8.000800349755758 0.5834412291269602 9.935384124419286 -0.997553573796566 -2.0586020828229836 0.38771130097831935
Ni 0.0816895569604542 7.044482044331849 6.023883925012879 1.4279017356088055 -1.245035879917088 -1.4760710962251806
Ni 5.898054647380014 5.969275041461321 11.386118636470133 0.8632100911852681 0.3445846449921743 -0.6103032716150651
Ni 3.2001509033223083 7.217883724601361 1.1920930674538697 -1.4168812161285858 -0.28108045379094176 -2.3855882980071046
Ni 1.86795815372909 7.350753243962027 10.229837909749689 -1.593141136468011 -1.1480291860830358 -1.0051067035534755
Ni 3.1251790983844407 -0.37167079556287264 10.858363763787366 0.20527944750022709 3.204562559302449 -1.463059514456861
Ni 1.0974146029787852 0.0659044850630143 0.8205802260323262 0.8880945131317737 2.0555854074838464 -0.8318593447881287
Ni 5.729955713283684 8.388850425652498 12.642358008961512 -1.3821165589538906 -0.8015635220180647 2.201560817907118
Ni 4.1811871514577374 1.278986649249176 12.290453105738855 0.5286905437385798 1.3877310769271907 -0.714863352316343
Ni 1.4304157802159798 3.7876556907755976 11.178866819591917 1.751870504122841 -0.6067530923699614 0.2575389190255758
Ni 6.925960026141887 0.5094303118821765 0.6422274355947325 0.04607982507719806 0.11619895049178697 -0.7449228907058849
Ni 1.9554628676188233 6.039451809965992 12.48602195737807 0.11374123297991379 -0.6175159873134203 0.6507233273033245
Ni 1.912251127526719 1.6359536066201334 9.265809937903777 -0.23223232193998714 0.3410321517542256 -0.18673279484629132
Ni 9.071832850319739 5.162947356074256 10.961583974536097 -2.0348895696973925 -0.7927574936906605 1.3728125079441456
Ni 3.8738629242187006 0.6253601897885456 8.787263421464278 1.4750346845408662 1.338216772247147 -1.0951629342116236
P 6.330773778363261 6.71718790065338 9.215183755201439 -0.15996606827540838 1.1811663349566366 0.04590884671697255
P 8.007221937763353 2.27135234621206 6.206269247070469 0.27229499428882786 0.43914210595478564 0.7074884000085107
P 3.3986748136888836 2.8998405921208503 10.7834088825075 0.618097056627871 -0.7466265036605528 1.0688114408012883
P 5.9368380302955766 2.218146245868018 13.40073156920372 -0.19957776912975952 0.28328800296522183 0.09026423290389615
P 5.154043631560065 8.643598488706363 1.1875217993875553 -0.41735714886921027 -0.20775747672707442 -0.24017934470120567
P 0.8746381504956773 0.13706658654454573 10.424678103891704 -0.5350524814008656 -0.6410379816947606 -1.2701398740735674
P 7.237881847137459 5.03358479473238 13.560961942533494 -0.12113032635513332 0.5194008909065377 0.5425852994428011
P 1.5457411074504774 2.478281673385063 4.271153317383178 1.4717598704443362 0.558333049195361 0.3539709713030807
Ni 3.049812408093251 9.304260488878683 2.347128965108127 0.26574048099976166 0.4102171953903193 0.40193001568086256
Ni 9.305247702261989 8.398149035520012 8.243711254242182 0.6093221386487184 0.4150740092619884 2.0909403899443735
Ni 7.709732236228483 3.4651659855625483 1.275475930417498 1.6084366291745011 -1.0353490473777847 0.08738614002515274
Ni 3.254250196727436 2.923590125513508 6.210576318031347 0.06318048931322667 0.09885737388954587 0.8421201032841883
Ni 8.397331058716702 4.6511289280077035 6.014884299770023 1.862112722810561 -3.9826701642904188 -3.1296254436739264
Ni 5.668146753456552 1.978168775434844 10.10061073767181 0.08821300680182227 0.40706810823837636 0.3904806361933404
Ni 6.005284824871408 2.7972832246437673 7.8937591531120255 -0.9516503835065482 1.263927060394636 -0.9272228465918031
Ni 6.666294700235939 6.503385687926128 4.8071105229763775 -0.44908867564453625 -0.5815930481645661 2.1020773803977995
Ni 3.5095717837468405 8.375903827282867 6.739170792191533 -0.34056703919234893 0.8965745255783268 -0.42326091594815496
Ni 2.3516457013875542 2.1229976797818355 0.22814501288184397 -0.49035719537602 1.0591458926870663 -0.3520022776124841
Ni 4.298637337974396 3.8239663392167866 12.783847311463264 0.14457698741384778 -1.7568144783916777 -1.4237625166294512
Ni 1.8459856044263818 6.863267275285892 7.749339237166689 0.04189201224809559 -0.03799216297305715 0.5367661216578626
Ni 3.7469730973511988 5.346183562047933 7.562674110041665 -0.011101252119484107 0.17094030789872497 0.5383028700173632
Ni 1.0004044345126555 3.7104744082655703 8.12001529772048 0.5312678175474527 0.6682626217386685 0.4596654227191181
Ni 8.206695453384347 7.128780665233895 10.299660221639593 -0.7418501653178321 1.7587212084960875 -1.143169029777257
Ni 3.6550212222204808 3.3384171891783754 8.78354773833016 0.5295230669422042 -0.28268147972947444 -0.760834933950451
Ni 2.034336515928802 0.07792874407167229 5.070299730559114 -0.5043923333128475 1.2103108177310768 -2.294515453158984
Ni 6.3693315125054975 0.9540242095617527 2.8815028684751494 -0.8786670491702867 0.9198574073656673 0.8782063074837843
Ni 2.1777645174747224 6.674718921106811 3.2021714000468067 0.1583115633911209 -0.32725463835415897 0.6444025272916193
Ni 9.047895276282642 6.226853116213994 1.574761420106763 -0.10989152021652043 -2.7016558093961924 0.18698604850767797
Ni 5.5917646436853925 7.510343338897487 7.14493617720088 1.663695806758122 -0.5870838960758082 0.3073998084117609
Ni 7.600518229938255 5.877783865909478 7.341317364424072 -2.8792249354653445 2.639197028740339 3.991009023173416
Ni 3.4843743373920013 5.367084279677338 10.557799597715917 -0.024296924874151703 -1.172959116555496 -0.7366107712957637
Ni 0.38055101499650895 3.867619974823323 2.5227166178692437 -0.20513058062718867 -1.178815575336273 -1.225782945224747
P 8.304533000686009 6.004118972875886 3.585947312095446 1.3643803180163923 -0.8853552598237397 0.3012289037143586
P 8.326966249567592 0.18755361916999855 2.9101668441102233 -0.18436300906253408 0.23056727553273842 0.7416503906022002
P 3.834299172628715 8.727643254738418 4.271897018131934 1.3927002480070079 -1.1415782882513694 0.893455520333371
P 0.020602673207969536 1.9839980354124562 1.1935381598063843 0.6562604550714698 1.1988138728350708 -1.0160971411267083
P 7.674972923103915 8.906667350276658 11.999700900494236 0.5919548510148643 0.4171879702811976 -0.4982818495397354
P 5.003056396107692 3.453545073736212 3.367259803425666 0.2981281533018479 0.2723430739179438 -0.8891098417701655
P 7.535098889737894 3.423317540142627 10.736264272336951 -0.6987911293448288 -0.08756843123928791 -0.6608701859293392
P 5.0116780596552255 1.275667731874826 6.9533171192981085 -2.148425371534719 -0.9057086266691112 -1.5979408718494996
