# total energy = -381172.071637165 ev
CRYSTAL
PRIMVEC
9.17832766510416 0.00000000000000 0.00000000000000

0.00000000000000 9.17832766510416 0.00000000000000

0.00000000000000 0.00000000000000 13.43341029745353

PRIMCOORD
 96 1
Ni 0.02753406571390135 1.417739589507479 5.538326931449453 0.8688922291717102 0.4132225578755464 -0.32227569708232884
Ni 6.910785240514406 4.317604738382439 10.823554129803336 -0.5360557258543994 0.6638765768558309 0.1850710908731522
Ni 1.8038351287991137 3.241978141114687 5.982220236871151 -1.9316703192947249 -1.2236144768185186 1.9816795613333162
Ni 1.0255863538355736 8.41299298121527 1.0375108373768585 -1.1225449257690023 -0.09263453290828563 -1.3516785541790077
Ni 6.961146725421296 5.957092728719231 5.4899525545218495 1.104331230974453 0.1500387818593674 0.01004504294082786
Ni 5.578147106821885 5.147013512775722 7.462125558731984 1.8027744900615594 0.10814856938348472 -0.24981069714338267
Ni 4.891213515627006 6.000974314164799 0.859321862685618 -1.648842029574741 0.4259238074922987 -0.22192168404259843
Ni 4.661406542946362 7.373877772130425 11.827084043985227 -0.2995913681109356 0.7107475303757567 0.6468409615297828
Ni 0.9286540334233891 3.0596598367242285 10.148350441599344 0.29002352191684244 -0.844694548879584 0.000536075009128109
Ni 5.895295047312618 5.856259618971265 2.993595150700664 -0.42075794702064306 0.42420348236708233 0.8103713501176818
Ni 5.749543201072159 3.4272243320889433 2.7401741761303824 0.4692751778947402 0.014908027460084005 2.4840785183652185
Ni 8.11477075274896 2.316619127389051 11.117947159891084 0.01377674206911821 -0.5316205729011811 0.45351611528827057
Ni 4.185023792605144 1.1181038985524392 10.311539275087135 -0.2613374668360596 -1.7217705994136672 -0.38736111672775225
Ni 4.754493143989859 8.252702663662161 2.4619818125287174 1.134695187978291 -0.7884267275257905 -0.9602394107271397
Ni 8.586031996150494 7.677873168813689 11.41226033852655 0.8765775136311098 0.1197756120994518 4.278344713845451
Ni 4.2132287940848 2.606443185873622 6.170597155474666 -0.028442828721725207 -0.8201788231264068 0.16994940474036535
Ni 1.9669431930018337 6.0969337318250005 1.803865417281015 0.42657146837862664 2.398071003855147 -2.910225497611917
Ni 2.5167433878063665 8.406779253261568 2.6916520281244125 0.40331789716732475 -0.4046188753669354 0.010035272748814975
Ni 1.395436252834663 8.813645348475251 7.066806717784995 -0.6372211790518316 -0.25771838202623354 -0.9325779402561294
Ni 0.48894237416964714 4.259937304507829 1.2674931161194158 -0.882326500299745 0.7336480891230139 0.3337163348191027
Ni 7.11839901645642 3.137097388785359 13.290734547225666 -0.8709485974801063 -0.7452195960106971 -0.9378988382484105
Ni 8.157174627410857 5.58143294819179 3.409641409428814 0.5178623427748242 -0.8186911828372867 -0.3166457524900611
Ni 0.5427613351772153 3.106294920524466 3.3902163963694116 -0.9580377750901308 0.7384470531735541 1.0773019947708027
Ni 2.4936140016271504 8.829808383817157 9.294791650970048 -0.5587053449331152 -0.5987888432175623 0.010573404640472113
P 1.5904206496565971 8.988474137341013 4.666349990325778 -0.5749819706059517 -0.1064639825922102 0.5154958994251768
Ni 9.032401614425826 6.501440996781519 0.3813687004494533 0.2849167968178964 0.6302146658270115 -0.6750161384124181
P 1.756493313754511 2.6348042189267087 1.6344830481607897 1.6152618796264504 -1.0954493551037907 -0.5556179642570431
Ni 5.349331393548923 3.321912198350717 8.913672601038083 0.07226059723762393 0.17976433394825814 0.8363747161599789
P 3.251477710438294 6.447775313849029 8.958969484637953 0.4395431980479462 0.9283456473423366 -0.5321502201524061
P 3.6066331065513015 8.393076009783167 0.2790633869145255 0.37320616538360885 0.16883200330647055 0.5758905984631502
P 6.791962608182606 1.196679563266833 9.715311426691748 0.09356398670109048 0.31772535870748503 0.05839129545469944
Ni 7.924311271556531 0.738379954453508 3.676872096080544 -0.12181218291350634 0.24294636592338162 0.21649434237944007
Ni 1.4127741141412267 6.4575226980245555 7.747786327704295 1.1181439684878292 0.39016799004892805 -0.3107121606144455
Ni 0.28180587127577544 5.8511013987201865 5.700843911338704 -1.7304930668883296 -1.28133420012749 -1.069236701264165
Ni 2.363144071255102 0.9871383384765506 13.549072352024602 0.9070597413803668 0.6284321200052919 0.406603509897132
Ni 3.6144530418785608 3.1148858353910325 10.990679548105517 -1.9937966563118243 1.9817556659868902 0.6981501533267203
Ni 2.5616070543317675 4.133671048290575 13.13586036093619 0.9881289380485562 0.5270391241780858 0.15133230385981034
Ni 3.8129894515780176 8.533779775706734 4.583506403161648 -0.3580011755083964 0.8214839150910757 1.40591289004254
Ni 0.4504246035189727 0.48351155758145575 12.173342886914304 -0.9939391169724301 -1.4480964653891255 -0.5889998821515985
Ni 7.090671288024907 5.404061762511886 0.9326062213951234 0.7965105329751895 -1.401522217174012 1.4217557706120676
Ni 0.6953363503405433 1.7345387535399532 7.9966805509795025 1.2354204683145111 0.40359120543336946 -0.1778763728969259
Ni 7.494022083672465 3.2552958948234343 4.71652423734455 0.7537422887697277 -0.08482146462177005 -1.6238822743056096
Ni 7.130340020987833 7.583492423543498 9.919996398217181 -1.8401719568734114 0.6197939847143197 -0.8710468136208676
Ni 0.654098123315456 7.33037249812666 9.689922336196135 2.8806207873716065 -0.9101319525477873 0.5876600802942524
Ni 4.843146612682341 6.839139213325929 5.66584970074922 0.47804829610168 -1.6187410964243023 -0.05326477286141149
Ni 2.4136615877354224 8.271288777556173 11.483241854778768 -0.2802165631287497 0.8189886594730477 0.5887774817281474
Ni 1.0046873013236388 4.302708312283681 8.12166551262905 0.5219457688155785 -1.473860975947739 -0.7536751829772181
Ni 4.127833631778676 8.229912875613353 7.238069726281458 -2.513191633681091 1.136181028495198 0.05313158971765688
Ni 8.70439571208985 0.03271706745017259 9.404730579776903 0.05129299384702134 2.726470040226395 0.41850926019578244
Ni 6.549296798185661 8.024098051929723 4.258163133734636 -1.050129805231385 -0.09517349728005545 0.5953636195860972
Ni 8.796151455595258 4.439272652347396 12.544400653858306 0.1718623054923621 1.4976213115921304 -1.8591554399544497
Ni 2.115687174121033 6.932914188958093 5.520285092396879 1.8920133670247352 1.4217853382984222 -0.5804059698350004
Ni 2.7830801053256145 1.8886428781229072 4.137544302642808 -0.4578242557453212 0.14258078291942541 1.0414286779129613
Ni 1.537360736362133 5.315077874016845 3.6115994997503393 -1.7235516025734898 -1.6198554125344038 3.314140662043608
Ni 6.6604555267636325 6.3763587448567725 12.328405228924682 0.3668709671942005 -0.33601387260402776 -0.5104732493996047
Ni 2.3462743046688326 4.897188607056638 10.16135429649566 -0.7326803258931059 1.2083308111865705 0.22715105076233782
P 3.0234237983767893 0.9109306823471721 7.769521525883264 0.5239316888973558 2.330555891722309 -1.1107229934334097
Ni 6.138676766881777 7.513526030351368 7.639929961486356 1.8324139101945474 -0.12089532752619178 -0.5508678511665674
P 6.763583218473822 5.783971108833365 9.163681991146932 -0.240083956773922 -2.258343374113801 -1.0552573562659375
Ni 4.917041330193797 3.1439994913277287 0.8112870838884239 -0.30360048927032873 0.3566881131239277 -3.4335434641846736
P 5.100213219074203 4.621590956737855 12.614496461473106 0.12321214858482651 -0.2341020281588742 -1.037307456655736
P 7.969367682966759 8.953706631449396 0.04392472358645878 -0.09090032382599829 -1.3434541093866863 0.873051245645406
P 0.8815627867290614 6.104340642399059 11.708184313699498 0.5812158673308055 -0.13893084487166396 0.009727254590092925
Ni 6.7159752319216 0.8816940368173005 1.792903740331079 -1.4540953632850377 0.6486895847027473 -0.6323677076142723
Ni 7.3613401762888335 7.671613549220743 2.1340043630090735 0.4788175701675366 -0.058363784650873676 -1.2907125560185964
Ni 5.338198081868213 1.1314491872447332 8.179805630387879 -0.5607326597757891 -0.8850109891104435 -1.4521240984912795
Ni 4.908037390574032 8.164434684739334 9.59913949544271 -1.0517747970339757 -0.5778510646236307 0.16413176961732379
Ni 8.763816206583599 1.5798931076139144 0.9200759682158114 1.033828239857884 0.6288147001556912 -0.04800712400689797
Ni 5.657640604321169 2.5033430291469796 11.354657152946883 1.6429500895703382 -0.32576442696187763 0.6401578930826523
Ni 2.6281407529084104 6.622328752879321 13.073851577989053 -0.5632551690873268 -1.2814586415204963 -0.15300454935591068
Ni 0.342276366475438 7.458740591421312 3.207320775157258 0.5083397479963697 0.5267377908875831 0.7453437802933873
Ni 5.413579688491191 4.2952187967589825 4.9760038261278865 -1.4174270613297266 0.6606727252065525 -0.12704000697134893
Ni 6.762812238934515 0.08043427610379496 11.641286235507254 -0.35606564904858035 0.33105909970191366 -0.09550979757355163
Ni 3.4777326702414144 5.075431733882186 6.962388553179251 -1.7443214881309894 0.712559643883831 -0.9119060137290746
Ni 0.9315819200071868 2.575649895940578 12.581168117388195 0.29935096996535543 1.4244729124329147 0.19961170769148848
Ni 3.311127663128265 4.206032985051266 2.067401826973564 -0.33795634104237926 -0.25862958098659333 1.225941068069166
Ni 7.973608070432949 2.87908541462506 8.624128481552905 -0.20604177958754838 0.35885555308889167 0.8034198585005131
Ni 3.65683855988476 6.217160648317682 3.742776161366752 0.5232457185739247 -0.33684793846954886 -0.6606272166805978
Ni 7.5762690795264165 0.6288613930621333 7.192059686607731 0.3239579698807582 -0.2527425260781969 0.46160737693683734
Ni 4.904953472416803 1.0113783023254834 13.008968142759642 -1.118209531618442 1.0600326661673938 -0.15627473546675022
Ni 3.0302800092799145 3.204172608705087 8.213885679523612 0.18591364137910563 -1.7264116977301043 1.400752428887523
Ni 5.805971560687167 8.349368812566727 0.38133841196755197 1.2209562132600649 -1.7399680962583002 -0.38034997551724176
Ni 4.762285544333572 5.507538230680333 10.340770413620296 0.3110551457761611 -0.3248506568983567 -0.11683709829641813
Ni 8.538111946451412 8.304716247581851 5.446952088549775 0.7671765598977626 -0.8461557068061426 0.33662373827388475
Ni 8.488236912920515 7.470332819494467 7.913528571999649 -0.4880234050365208 0.25584121960817874 -1.8053900733075359
Ni 6.555905194236866 2.8739730860132253 6.750597720233204 -0.5175304133567022 -0.1370706517344736 0.37044094393364585
Ni 8.23168429288819 5.1710699100676765 7.4612389322617805 -2.4256640829820677 0.07784271931109175 0.9420318865801776
Ni 8.854268627534463 5.173915191700834 9.89824743254644 0.12296352290913018 0.13344256806358307 0.5368612524748302
P 7.650457503529039 3.25840734796421 1.9113858566996849 1.000201038721742 0.204035547790797 1.2396327066236457
Ni 3.9767399987301606 1.7333914625588411 2.27907242382479 -1.0736289167945898 -0.862800000231043 -2.1750023506922993
P 3.029692596297585 4.20550064203603 4.828370422678404 2.9772467008274726 1.5146283876730882 -2.4067302221920426
Ni 5.327028056876107 0.9410080627080023 3.816177084839939 1.238023453154997 1.069644478225545 1.5747387227014233
P 2.0701075980234185 1.408781541526957 10.984042699237982 0.5464686936576072 -0.49020781428234933 0.0942684689672828
P 8.874203955622264 3.4191198685983686 6.377659313912962 -0.6040624329116758 -0.14198531542727158 0.5702588540986695
P 5.8842626972382455 0.4090358519171637 5.861319631114362 -0.37142361956188935 -0.19060924708256205 0.44981089852254147
Ni 0.9149572147744824 0.9451199535843074 2.819108713463668 0.2622900605573161 -1.1357398271927215 0.14869435201633102
