# total energy = -381177.1677364269 ev
CRYSTAL
PRIMVEC
9.15020432657961 0.00000000000000 0.00000000000000
0.00000000000000 9.15020432657961 0.00000000000000
0.00000000000000 0.00000000000000 13.39224894878470
PRIMCOORD
 96 1
Ni 7.095791200470052 8.710079375105506 4.910749888843758 0.017498156784763415 0.7258651027434853 0.5803787161414907
Ni 4.796088680051398 2.4274851220294833 9.373341991548237 0.8080367884472341 1.2328642775515606 0.6939983359418758
Ni 2.4537279076664222 2.8546441045571123 1.9303316524970533 -1.7120613425457032 -1.5830130468950738 0.09835369478024997
Ni 0.39085554737611017 6.639607770229602 5.920244336834766 -1.047802185539473 0.5296696198223975 -0.6674766355022634
Ni 8.485560814724202 2.493805802049196 5.501495306984581 -0.625973116941838 -0.388678292877279 -0.1981829456647619
Ni 5.776322605061303 0.6335491583538766 2.997131999332909 0.17729838890626884 -1.0503524627651524 -0.10674577549868713
Ni 0.8182469450903428 0.6013797854585532 1.3898345807039478 0.7834207896707669 0.3198053811649654 -0.024347575606429035
Ni 8.66961717214646 4.578021013628964 11.931622877430616 0.18763628049716716 -0.1710315820609506 0.25243245103694595
Ni 6.0866151795851 7.602758264003743 8.01535469655188 3.198333804783917 -0.3169110903363058 1.3196996872795659
Ni 3.789090407765327 8.044822929168253 11.921739741877456 -1.198282682921949 0.5924446461670894 0.8303660480720538
Ni 5.52122406225369 8.057752167698586 10.364957855558764 1.3872970747135656 1.4146728956233572 -1.3841428453553
Ni 4.210777568183162 3.128793372502838 11.869295346522465 0.2201165125130596 0.47066743025657654 -0.7063684274714545
Ni 8.386482403679299 4.106593343196345 9.439366204951968 -0.6124879379712097 -0.486698001356878 0.9764399317464021
Ni 8.597989373692497 1.7530601714868566 9.867944384150547 -1.8587970281737667 -0.5640115876373771 0.3476619983659174
Ni 1.2649333783947476 3.865192656071612 6.288196923105834 -0.7872288505629474 0.49345434624410495 -1.968135246989978
Ni 0.757922393880911 6.2196591486091934 13.045375667062434 -1.5362192264699863 -0.14957418351812304 -0.1300703091572405
Ni 1.4369480670937795 2.7774895827681747 10.404920457368656 0.9899045418917404 0.8814932057651723 0.30206759756557006
Ni 6.593335187605472 3.644169473693554 0.9399830917678075 -0.7566828594552903 -0.34772781860684626 0.2942532437274739
Ni 4.12997211491963 1.6270252588776504 4.606156976514259 0.8480164141639653 -0.4834000473318965 0.11675970809126343
Ni 1.9777708861562975 7.972225209069412 0.2978116959991164 0.9557983442366507 1.0778527250679502 0.20804132651608043
Ni 7.010904756134667 2.734794729985065 3.6406695205882094 -1.0680164557038188 -0.004548795712947005 -0.29485539608784705
Ni 8.114675588008001 4.663264315928033 4.749547996444298 1.2165300591679113 0.6208892746610275 1.2334700294563594
Ni 1.8134149183701382 3.5526491313153574 12.712579080336585 -1.037443468012968 -0.021495450869614595 0.30129909483066175
Ni 4.7265471281543485 8.36508922626676 1.009041512883257 0.45430698662068214 -0.36862625932241033 -0.05648559379155434
P 7.984971443515805 6.930840469411089 11.736686012197728 0.6973009179525474 -0.008496724617101496 0.1694801784134307
Ni 4.274298285718599 2.824924241325321 7.060688272109177 0.31721268073712466 -0.6583754445319436 -0.7234395240211282
P 6.418117927437497 0.9255431545245529 9.781363321997881 0.19338501005548628 -0.07170523895478619 -0.10124155785100628
Ni 2.5656074543829006 5.966097840106673 6.37141620023653 0.13222360805481745 -0.5110574040378488 0.33715904195206453
P 1.7488419273520484 3.3547485149430685 4.2204465889581115 0.283544341950402 0.37299584914501566 -1.0124795989787787
P 8.49377769809309 8.27172969284497 7.078633652580295 -0.5180508046365465 -0.15357919091245809 0.586839641275486
P 8.679197435940697 3.388686622309668 0.5312279149415646 1.1211647575920238 0.031756466475990466 -0.26184088883503936
Ni 0.1695853094847336 0.2787628009018429 5.5260169392120675 -0.35707300726717217 -0.9549352249054068 0.19775819942251746
Ni 5.980509411716917 7.5346258435530284 12.507369280851748 0.7365678338729702 -0.45964202568035034 1.0974604719965486
Ni 2.736643071232855 5.7819133798256575 12.08008951562872 -0.5746341003482296 -1.3220938985433552 -1.2324333606617293
Ni 2.1594390402831434 1.6919002066342406 5.832310874501785 -0.09603070307402817 0.7772671113645453 1.6943202165121982
Ni 6.9895847803557025 7.770289352646254 1.7404832158181072 1.0765563748540297 0.7527740113191873 -1.1377594287259116
Ni 1.5671737732252025 5.8604312820399445 4.1656185654098055 -0.25162666730619887 -1.7666183518559766 -1.2306310173456676
Ni 1.4110438390121285 8.144441202260778 3.937776650864158 -0.6898223501873153 -2.088435107024016 -1.9242853396845636
Ni 6.960240075495987 2.2976254240659397 7.803369170859178 -0.3596078578738839 0.0830286343874054 0.1411785032552601
Ni 3.3933532264501283 0.7026030043672276 2.0761465615188714 -1.1003611905831114 -0.43945038122382385 1.7550568722706226
Ni 5.876572242243418 4.9782417950006845 3.9888274701199498 -0.13680042879222248 0.035351382916100405 -0.6646512502383263
Ni 2.213095837694236 2.8336901369460277 8.053295103234237 0.08521818583955647 -0.970939056532831 1.6745422625543225
Ni 7.139446824693845 2.8783156828147 11.961983254956195 -0.7035569261645884 -1.1907388091364204 -0.5969034532693913
Ni 3.3552151753571144 4.613505505504855 2.987194877574988 0.340295273588201 0.6048913565708743 -0.2492550817502288
Ni 5.708501291553285 7.300517869173289 3.3372277039466907 -0.8041531371221118 1.1698131147273467 2.365115374864733
Ni 0.1670406376975534 7.049994428464166 1.899449713332245 1.038852689655669 0.6000651388268246 -0.25939191307391457
Ni 0.375902283677405 6.131432879741909 10.17607385040218 0.21873094501944268 0.8109745309193195 0.6434149665673693
Ni 7.569094662763053 1.292649346907401 0.7943374615236333 -0.6136397921874657 1.2610407399857766 0.16767474977357574
Ni 0.6746482155250331 8.326704119660427 11.511066682251526 -0.08703852687774688 -0.9251191699852389 -0.2875516633375822
Ni 6.901587266593343 6.453172359716129 5.9062097536374365 0.018150702767097775 -1.126215432642054 -0.20676271691397294
Ni 0.46508840896495185 1.4647555376484025 12.225837628159898 -0.13777770510382722 0.3376051283505476 0.8427456526833293
Ni 5.05164473306886 0.8844733780068268 11.843984051672779 0.8706614052569909 0.494747868244548 -0.17566265307505877
Ni 8.228540729035224 0.3066892241110266 2.974699358723592 0.7362109647541837 -0.16111535138850316 0.3851278565218593
Ni 4.457146816186856 6.064874294413075 10.482474843081002 0.688854329847091 -1.9038512401999277 -0.4438297412384421
Ni 1.4624222355781724 1.0995891885553144 3.8478338036895208 0.36427492433225006 2.4902962171401564 -2.8262116164931066
Ni 5.124279053984489 0.6347963311859249 7.519024745397178 0.600015773646128 0.4475064187590809 -1.1577212165598192
P 5.21833400292525 1.4919590947260248 0.6446483560448136 0.2763532235186015 0.3566459470320826 0.2937981584679263
Ni 2.6340601319805095 7.3067857590482195 10.106540533688907 -1.5901224042463453 0.6835668561959066 -1.3511249956683826
P 2.7251687151698416 0.73241162457973 7.646679244149248 -0.010208565101885643 -1.2074401810515012 0.10858462847963882
Ni 5.236213501926148 7.951737901872374 6.017069967606371 -1.7133553787667783 1.0874287987921594 -1.370314681222956
P 3.7708357503923517 8.595097909166252 3.8231923037870525 0.4475928078253002 -0.10307783972879667 -0.5654645180338197
P 2.3340340865657234 4.936818820600955 9.888716262698113 -0.5327114919725148 0.03744888887507744 3.289748863462805
P 2.3241335656245914 0.5892456996729375 11.165640068672584 0.5061216572991284 0.4933553587723955 0.46426769737781975
Ni 1.2302632546923893 5.051717934702436 8.173383298135827 -0.9604803230933523 0.64390039084422 -0.32815401023997676
Ni 7.466813680249207 0.2107383528606523 11.747238942698104 -0.7281220170984622 1.098581215864553 -2.2295195079035732
Ni 8.16534026864668 8.326996926194731 9.304720035172984 -0.41151945914151056 0.4178921954370739 0.13116508488331602
Ni 3.9669337765378354 7.280945582395948 7.945955887840301 -2.134572524812027 0.32092278259886026 0.6362454454021236
Ni 3.7383616756972686 4.119659834789633 0.5274433904856936 1.1899337967366215 1.3488405705095803 0.29825722268054444
Ni 7.981613318575514 4.998994458119435 2.55336631120818 -0.4202480972637601 -0.003894707068715873 -1.2149184917064173
Ni 3.0969598121015434 1.236073634357472 13.277369944272673 -0.9394803238029175 0.5261909172451776 -1.2038061838433396
Ni 4.021533044981217 6.504889313837461 4.603491522031679 -0.9836760444835252 -0.5041092548547899 -0.42306936876263906
Ni 8.412112125635042 8.506084722738029 0.08139106633213938 1.4907767778664713 -2.23467662662448 0.9796337560933517
Ni 5.979548640276233 5.02158631228178 12.269964487899836 -1.0078667827971157 -0.1163843270297157 0.3023406487212986
Ni 2.910094341990813 6.777629450336852 2.178315911541514 0.27740146227745777 0.6777754463251101 0.35826214247926685
Ni 3.9684161096177464 0.25909260693959446 9.393242770656249 -2.286388453176475 -0.39366160502448333 1.5300192683068619
Ni 7.465212394514737 5.996650371920389 0.3196221227230385 1.4306178489883876 -0.25787496220875594 0.3477805262216527
Ni 3.733072857671414 4.666832895564855 8.428639224455628 1.4284709778487141 -0.16250400420591368 -0.24934481325055768
Ni 0.006417953223761952 2.602711532401655 2.6820117770747847 0.2515461917772506 0.9227149314191205 -0.39623039419292405
Ni 1.1505009247073126 0.22553606308800875 9.351285424331415 1.5906199127080543 0.6384712494088488 -0.5599728987916291
Ni 1.136409610243963 4.861430288222034 1.670347815668673 -0.04219823063460475 -0.4554480422036608 -0.3849658770226983
Ni 8.29703000744962 6.251877017586761 7.91084106421397 0.06971854754206057 0.11981417864687108 0.5983327295167502
Ni 6.088811228592376 3.6982197298851167 5.8796256653839505 1.0949089092192885 -0.4229349000673039 0.2533475066520475
Ni 1.4241011804012191 7.4769612567036585 7.8675843888931665 0.05009768798733953 0.6337417051436635 0.7048684458871601
Ni 4.74975204599789 2.6328431548223112 2.531630916158673 0.5337828706598227 1.9739749936002067 -0.9418174565765265
Ni 3.861459372759244 4.162125932467818 5.115598255262814 -0.6927616353212972 -0.7451632888514651 0.8750186537844219
Ni 5.547878607079493 5.701894844123065 1.8137653711908823 -1.2676068232390687 -0.5349406384133496 -2.0366996263229376
Ni 0.10772260894978947 1.6789160668787255 7.503730179081924 0.903195116218638 -0.4047849686311545 0.8989659086286389
Ni 2.7537905538979963 8.358098470260266 5.708446390328103 0.16659154401172602 0.7024703779686288 2.199410347223018
P 4.69099858484908 5.613119563003963 6.749773483699985 1.2298056932308947 0.11677564893086341 -1.5666880844828048
Ni 6.870439971506823 6.228196289124975 9.95566373170532 0.8282106922919479 -0.6349269837010162 0.8063894826517983
P 6.305369111322308 1.4504171676717343 5.5316818306304185 -0.4447211427044599 0.8236757805360717 0.33121079478842963
Ni 8.15676652731411 7.033844318056496 3.8585880386822318 0.6493603855175268 -0.7674341844345235 0.22168308566923112
P 8.38918171391741 4.088201432760415 7.318381812827053 -0.018175385357446117 -0.7986676885275084 -1.6400743106844398
P 5.962401157611093 4.208444266112932 10.308656649134745 -0.16997537288229436 -0.8865464519183635 -0.4520040495191183
P 3.927240190731335 6.509894475533209 0.1635544098985039 1.0448096785700522 -0.2687795249364016 1.6514002772202205
Ni 6.3623565830611 4.883601232991318 8.054728025211485 -1.1979731221013303 -0.7022934860711324 0.04920551519037332
