# total energy = -340857.6680909949 ev
CRYSTAL
PRIMVEC
9.36189516638954 0.00000000000000 0.00000000000000
0.00000000000000 9.36189516638954 0.00000000000000
0.00000000000000 0.00000000000000 13.70207989087205
PRIMCOORD
 96 1
Ni 5.32713368616198 5.999214779889092 9.602404148841469 1.319504283439308 -2.0244220945071647 1.058989312504544
Ni 2.0931793358449946 2.6612123264409426 9.626684224014284 -0.05705535025209529 -0.9330011438364771 -2.368686380045443
Ni 1.4012791100026518 0.5388210690375378 11.155273874313863 -0.07286197826704871 0.9643300358567457 -2.502622342805677
Ni 9.16593199895828 8.208294378174594 9.316181054847434 1.159100613405849 0.5371643855375459 -1.183574430177497
Ni 2.912616659847841 5.884915401525912 11.312327155626422 -0.11979798069695496 0.06643396325351784 0.825899784770584
Ni 5.661737182114015 8.84425728026233 2.5004105422946856 -0.0737127563031182 0.3426951412789453 0.5231153636436475
Ni 3.189906633452479 2.8084749377647866 7.18571329046443 -1.2615127945261888 1.7649993281953151 -0.31838304689614194
Ni 2.8205049730827234 3.3449021702024835 4.709939511549263 -0.8851410869304046 2.454506718245373 -0.3405343861822006
Ni 6.395194860700576 6.231034028560486 2.4933816313867427 -0.9297564116469342 -0.978905105457443 -0.4247521557817007
Ni 5.818829783386368 4.735115520091671 4.814568052182148 0.4499942181779411 -0.11675790831905053 -0.8288367559117209
Ni 8.303242719181997 7.326048099348373 3.467653467542342 0.7191465530727292 1.0507049610085648 -1.4264441772266725
Ni 5.16445203346176 4.845904187758955 7.380269387714827 -0.5001361291396548 -1.2286857206938389 -0.35027706739126124
Ni 2.4144889406285714 1.4027863751280898 5.545012136707351 -0.4225371504082529 -3.1187800163189903 0.5859148154683715
Ni 3.6007814895097505 9.328445137545096 1.0088705922057921 -2.5677293597176556 -0.1016750458439991 0.308095806037521
Ni 7.572659142418475 6.68372847042727 10.265995876011143 -0.8452784464075119 2.1239600394035034 -1.0317255916925845
Ni 6.315403428004255 8.811621713633281 9.160347628478009 1.4549813654344166 1.3997450706689314 2.294638351890093
Ni 4.690365661087985 9.208556707754049 5.244881947409975 -1.7326913600912288 1.2846329254834197 -0.01633601815586219
Ni 3.9217259803809545 0.09528162447613218 9.980924295125362 -0.016400295734894335 1.975014747718631 0.6883555358338016
Ni 0.25570237948819424 2.1648071959364588 2.3285036780751716 0.8636497498258481 1.406346892256165 -1.451113140728262
Ni 8.59861987429189 0.4017151778042998 13.507784260222332 0.10053604714354943 0.07681993447353222 -0.42499152548601643
Ni 0.2416277062609681 7.72557633843651 5.411294315343033 -0.793942258027381 -0.03555707116900328 1.6857180766654838
Ni 3.86070514753869 4.645587716398733 2.945124904702318 0.3294133365683746 0.26335655414861747 -0.35850742572085353
Ni 1.0300144324902742 5.180095760322672 3.2799352985380317 -1.4686143828368192 -1.8102520293855275 -1.297439847440101
Ni 7.86267193158504 3.670986341532479 6.434044853356118 -1.0533151449379021 0.31531392105251504 -0.7173578366034226
P 1.5701115278420803 6.30058354791998 9.518643272584988 -1.529697623301385 -0.6901612215839726 -0.17656356762277334
P 7.6399805307229744 9.01456887754163 4.756581409570657 -0.10882219841174162 -0.61966645799752 0.7139169292426737
P 4.68863371047801 7.098432341616864 11.619815794542397 1.0067699501885112 -0.36846402271293316 -0.08228095758810346
P 5.243878352245709 7.51829461705563 8.155437117937186 1.3778963502249562 -1.8252230488730632 1.0223323234031425
P 2.877359762565858 5.255075178891818 6.307875528082736 1.010360495753247 -4.166686074426178 -1.5366984800992503
P 5.928064376452269 3.9423689592728217 2.481268275201624 -0.8643334061564341 2.87931492407599 -0.03411699628836705
P 9.253615509298974 2.3093923052362335 8.94682807633266 2.320165035406288 -0.6621071436602339 -1.1329234407898487
P 0.8146028413272185 3.0403035483313707 12.64070331541286 -1.935669413151789 -0.7674832925049041 2.478530591963796
Ni 3.171332633397393 4.9009614933657915 8.75480718029946 -0.791332845428992 -0.41741191336654565 0.049335870120650514
Ni 0.9101063427193314 4.38688110474437 0.9313288229234014 0.9321866183549816 -2.3139799896414988 -0.8631080183897651
Ni 4.937192027747437 2.0209242287758635 8.242431592791966 1.4844703760324691 -0.4270743761569742 0.26131792645203383
Ni 6.1601644819793355 1.234908870597945 12.753868968268646 0.2889935379904313 -0.5978447341367381 0.8517103180757848
Ni 3.2560952324391015 4.126779570706839 13.186772363705765 -1.159132752195365 0.9069173022652316 0.43691681616869266
Ni 3.2315951527293434 0.4448107899280794 3.144476164668549 0.44312217364845624 0.864071410744299 1.4218717273646415
Ni 8.05061197750533 1.0993486282604201 10.929998590379618 -0.9607824277148034 -1.472261492671103 -0.026302128229638577
Ni 6.140335987968915 1.9736841056518888 2.5064396027964375 0.6131219720107828 -1.5431097829422327 -0.6617579878509313
Ni 7.160997887165323 1.8038874126079876 4.709418990176752 -0.1519719943263383 -0.6591837993658518 0.5715302646119254
Ni 7.651289700111354 1.1694973089120135 8.191253856551475 -1.503818441541778 1.8698370880380122 1.6102276596366527
Ni 8.143285377981792 4.234001356307093 2.259541149544031 -0.30452557218775944 0.28340730215190546 -0.44358702910001674
Ni 8.085129285067378 2.810206888374762 0.1721128259136736 0.575024650918429 -0.1634727958770862 -0.20312460594075343
Ni 6.409078551265945 8.483356220724236 11.771498156584993 0.7319233931224233 -0.4184431828445374 -0.778624139613072
Ni 1.2527151952475288 8.52625242448049 3.4444565636429 -0.1757834949236392 0.35330505558430764 -0.6044396137454364
Ni 0.2612689623676067 0.6610087802870158 7.354728265260045 2.1940652808610213 -0.7273044062931733 0.06363274635929686
Ni 0.8014802728407193 4.0787343245966055 7.880531619037201 1.243824118997174 -0.41325032578968834 0.49671990436925423
Ni 7.048711316267791 6.002360376672614 6.466847061719532 0.3413843928873217 0.6887260317993429 -0.4925722007494678
Ni 1.2312483695790242 4.2386635801112424 11.152630075112475 -0.37660002155650624 1.9025340640504007 -2.5415046216931714
Ni 1.0861109084630953 8.635318503432988 12.849372469660759 -0.11471259575424761 -3.7668823610596998 1.7042896690200842
Ni 8.320243920845321 3.2601021235800176 10.410346937931191 0.564231674067983 1.9926838828636197 0.9785744615909019
Ni 8.56271700624186 5.628567987459192 8.359186596263235 0.7176332017519964 1.9744336784041803 0.1093022233719537
Ni 6.417906818429225 3.256123318124669 11.749615662770097 -0.26490332981044706 -2.185362867991017 -1.067029152089885
Ni 9.21835861201699 6.045490627808593 11.84078928763727 1.155777462569887 1.119361385834698 1.424632063718598
Ni 1.9958998829355177 6.8785307855211375 1.6739695845009066 2.686465989029631 1.0946551413372694 0.7111571071093494
P 7.4193206611169344 4.995582168041576 11.313574160065604 -0.14040691519655818 0.029723238096045584 1.4035947834323246
P 2.1479276989105913 3.225603539808348 2.544284127908676 -0.672106678075107 1.0407097974690658 1.2748308517913334
P 1.8702164400224464 6.1623458035583845 13.276219655100078 -0.23581901084998097 -0.15844448942455938 0.25754560389379516
P 2.2739013605745235 8.387705737577656 5.66613914523191 1.1228110349461953 1.9593261333387804 -0.8810702592951407
P 5.671670152909603 1.6800389011519712 6.28439027781147 -0.8438802805084047 0.5440765392763469 -0.19792686378989782
P 1.9017098554384295 9.399342769811813 9.021751323530673 0.04205193486472757 0.20127109767178242 -0.09748569035299985
P 8.131480028148394 7.705176768819557 7.342766571776989 1.656457894248786 -0.2759917264141247 0.732476437412416
P 8.698633000596569 8.334998267663272 11.39390951887241 0.05382167380614602 0.3400895853352982 1.5317858732889813
Ni 2.738887970824537 2.541108573060548 11.70892044057279 2.0897486836291175 -1.2905688313518806 -0.3166444669384805
Ni 4.452788846875322 6.863551753218649 6.519326101391302 0.9395461440438463 -0.512355296913666 -4.882399690557959
Ni 0.021248693510599475 1.0274679969988512 5.026320078515802 0.9777990168774581 -1.1069992647249194 0.18058528718765673
Ni 0.5225304352190622 5.262012343226909 5.6581365972243045 -0.15504446260407492 -0.22322291935252525 0.3601614163845087
Ni 4.108860903314986 5.803382656324426 0.7848741431543725 0.7232919426996705 1.0445520540332913 0.08353771281333999
Ni 3.4468532088112984 8.708725123610373 12.26085378001212 0.15028740753506373 0.5611838883805949 -0.0054900765802937705
Ni 6.047185130837812 7.610949293741713 4.484759718945947 0.3651886943957711 -1.6715037328383149 0.7330371950118924
Ni 6.6409914188892305 9.14412814506297 6.802534665134461 -1.2818214241765535 -1.5705835628824694 -1.9534897291626616
Ni 7.252164022516347 5.056106820438821 0.13212068204506594 0.7993536588509395 1.070424036704047 -0.23618153639572229
Ni 0.04352906787103288 6.373606330394614 1.0349678112348035 -3.4063627900048234 0.8049805181194135 -0.8920727810532315
Ni 2.3237347286658663 6.551257653502133 4.258976084102937 2.4139506511998814 1.223585680463112 1.3650732303183588
Ni 5.371499707462914 5.028760724591589 12.48814374379105 -1.450359036171057 3.2149048217687217 -1.4973377189134407
Ni 3.508426393469717 7.294798093207306 9.45832645426094 -1.5747119832285459 0.5740969968978371 0.2873639728068083
Ni 1.8454542272473944 1.3848302601554812 13.481174945526478 -0.8112352407798739 -0.7248428321265581 1.1660680458626176
Ni 8.90105589837433 3.1524122432203114 4.297616370306245 0.7746510138979369 2.2401615609984513 -0.6546810263994919
Ni 8.50067572682399 0.3719499682402165 2.9749266256576385 -1.1169602325923733 -0.7915429045572691 -1.8225732699550419
Ni 7.060722627795349 4.010439299192445 8.438960241358696 -1.3036254074255225 -0.6919311690002018 1.7941849486203356
Ni 3.5379818965815657 2.4492683812559126 1.147871331025295 0.5007850755775634 0.9258120822872056 2.3607735529562697
Ni 4.981998058122256 2.317378001832498 4.364948056695451 -2.4587534093368686 0.7018036909189075 0.6859492403851541
Ni 5.334716821265115 8.400522172091472 0.22592125470228955 1.112883234309522 -1.1181406260537194 -1.570828846124056
Ni 7.449231916245966 7.734488862656491 0.7694185903867606 0.6715376929455144 -0.07210350283446937 0.4380241903002586
Ni 2.3660130473396417 6.898490346064205 7.2491260875274985 -3.331859162369294 1.8100126596812118 2.2745744912606827
Ni 3.927801850358651 8.952518236228569 7.615725732667169 -1.930028669926244 2.270448384907451 -1.0275832873894368
Ni 5.601072101288936 3.389511600778333 0.26416834130765726 -0.3369536108094778 -1.2025607414720128 1.8411320067938357
P 4.48622017459544 3.4801721937891474 9.89170917873174 -0.9787320702146888 1.0317263630235327 0.16192961975968242
P 0.38265997633649607 2.848403420746109 6.221950181658546 2.395610715240113 -1.5289841421741281 -0.44392898582046775
P 7.068081077413947 0.7133764134060361 1.1838228809303064 -0.2910769028820213 -1.2429093204923884 -1.3389618779432875
P 1.1288292362107561 0.2825822529550107 1.5408125406584119 0.3339024826879798 -1.1220448462041321 0.08432755570448704
P 5.661578029895802 1.562434773787055 10.204322519074202 1.679688325531636 -1.1893552985253322 1.4419888098294906
P 4.071469493929898 1.4158181332312552 13.164067895493268 0.6529648150393335 -0.43888319586644414 -1.6617857342196025
P 4.062968893098236 7.288104338147131 2.541735820038215 0.1744830309446608 -0.22844868652783884 0.11866052465840209
P 8.121481524086482 5.4081047176521215 4.06872271388143 -0.3522511603984965 -1.829333728607327 1.712325137730051
