# total energy = -340870.6509353037 ev
CRYSTAL
PRIMVEC
9.29966001483430 0.00000000000000 0.00000000000000
0.00000000000000 9.29966001483430 0.00000000000000
0.00000000000000 0.00000000000000 13.61099245575065
PRIMCOORD
 96 1
Ni 1.9988037617251755 1.6556463182071537 8.59920655623337 -0.43226671899119107 1.5164289312169368 0.6148893483238508
Ni 6.567661482546299 2.690893737444815 2.263644120945446 0.3943437186931725 -0.9699324696451876 1.0014251409368302
Ni 5.429066944885446 7.413930516696434 10.734785063230666 -2.1995448159183537 0.238722300539705 0.2285214487473032
Ni 0.6555227837506092 9.431807880498994 4.35374822189779 -0.07150726401136717 -0.21336582405278737 0.24956412835021538
Ni -0.2922910947697691 4.404281642828212 2.893601210170977 1.0494865152204311 0.2518765785334759 -0.3856009395035359
Ni 2.982847254566895 6.706049718779137 9.48710644706786 0.8908576776992078 0.5894580527349396 -0.5163654465143236
Ni 5.366880120364985 3.737226351063871 0.5734951352261998 1.093792022006026 1.8884202503568381 -1.153956093090432
Ni 0.6799474100285424 8.530494160490235 13.026686200222983 -0.7113003175554331 -1.134043156216589 -0.0730776938222806
Ni 0.5433781872361425 3.0557193881009663 4.989735210483134 0.5916535177243617 0.46304256672146704 -1.0087036768761146
Ni 1.8472751063137216 1.0305510910811138 6.32682447501883 0.1611732012096321 -0.8310612743668655 -0.27239475309148575
Ni 6.285305214251064 3.0258767800725295 7.812845929973291 0.6211325010200851 -0.6236133584604099 0.9337117967502564
Ni 0.6967797941143858 9.137073765121848 8.448995662603663 0.3838942412250743 -1.4323811115363976 -0.5409624191273974
Ni 1.5365083775863033 3.246250816361054 1.037948040419169 0.9894348013441733 -0.8068270844098492 1.4842754864128436
Ni 8.14565564212539 3.4301515872436794 0.7630528891140289 -0.12805919226448267 -0.6612247410552805 0.40814540046295517
Ni 1.5503462712436153 5.921837313913439 2.779486945728675 -0.055488519985607665 0.07523433515396721 -1.0216967467016727
Ni 1.870598652881288 8.461416288120267 10.766362987762097 -0.7036407441276462 0.11417780629670013 -0.7869444865533092
Ni 8.222163942608393 5.9037680750853765 12.122589092061245 0.8113059461168092 -0.0372884520378132 1.0752309711743868
Ni 6.665419505480213 9.262144888641465 3.9207551355578594 -0.8287904760548178 -1.306655195390782 -1.1105653848096229
Ni 7.466640987966357 7.023707495356062 10.06217043488814 2.534705853603783 0.6800303037975578 -2.36654079445735
Ni 9.032991973581098 2.044465090930419 2.57001397055917 -0.06110946571681089 -0.7119811456725416 0.5677828817543512
Ni 8.34176686621504 1.5906974947510597 12.121854418943688 -1.1979849491758723 1.6396572777516794 0.08997421246730311
Ni 6.815934497982631 2.71266424083982 10.300716936227573 0.541215415678468 -3.309091786765791 -0.244416779821321
Ni 6.033693620976712 0.3708843789610836 10.922235514226864 1.3252226739803241 0.5009128594046792 0.8958062799537347
Ni 3.834789081143751 8.644480089628459 6.9213256816113855 -1.5098469071240448 0.30040769336464396 -1.4251534834397066
P 6.855616145990528 8.23102651831768 7.850112456352959 2.1575882689809096 2.8480191992865014 -0.4744819189066603
P 8.036477637060308 1.2358968772686865 4.714588968365663 1.7992669911289334 0.7192992766005096 -0.6195857253582555
P 3.073816525908177 2.677390631537276 12.997571755550302 0.4465638523401535 0.08554882970609783 0.5766207917609553
P 5.676819179377685 0.8483893565653683 1.3950996118777304 -0.6134819264533629 0.02335667244806945 0.08449776273376414
P 7.230885314507675 7.784224367265556 12.09807611901601 -0.30964206747871836 1.0841562986884747 0.10772819401661449
P 2.046343622193038 3.8095591043344177 3.2704764299210662 -0.5170303337918322 -1.6363732076837691 0.044926942419677464
P 2.269275064903445 8.002171192368221 2.5948812606395815 0.47544633970245853 1.7209357622171975 0.8576166562578907
P 7.295471451234847 3.638259372366885 12.483144338975839 -0.9321069141569817 0.4226649342353689 -1.2543448160228396
Ni 8.962770243066068 3.1803627272736503 8.624809449397311 -0.4061785065445714 0.797435101671988 -0.4596247992891697
Ni 4.955974655816372 3.5701765635865215 11.757583028006605 -0.5982548250909633 -0.36794465987435343 -0.1162917673159094
Ni 0.3828753601988109 5.818332101275077 5.036421362189073 -1.592849059148889 -0.22874770582549633 0.6663746606873362
Ni 3.4047542165594593 1.1358883366835157 10.413212129913331 0.7452579054478004 -0.9520743584178442 1.3582042711126674
Ni 0.46760920970055764 5.954162931086032 7.638625174888983 1.0141598148946793 0.8045925386523757 0.821037057361644
Ni 8.445392974429708 6.951356142766084 0.6847134856329594 -0.1292141318045323 1.1827982141331048 0.005921250580441415
Ni 5.701537674902642 7.645864030011866 5.9902660700352355 0.2552254404010508 -0.06585597926286077 -1.727944332324547
Ni 8.69849251325861 1.8825115169774014 6.596703389873194 0.0033948846141618953 0.4919934454278624 1.3815048935118206
Ni 5.860654852642299 6.122775061395658 12.70434976484297 0.05745978477936556 -0.9046228498041 -0.11154808198333693
Ni 2.2724927471651584 7.161723745200262 4.655191111794012 1.120896848642618 1.0633118511392976 0.8989155150066777
Ni 5.067245084317541 3.5755703662217635 3.905497183861924 -2.196864440872713 0.3562463976008187 -0.6806571387482794
Ni 4.444883957147987 -0.2366335613358664 2.849066069757333 -1.2466448762754205 0.33346925180530307 0.5534633798078856
Ni 5.667008038377372 5.13939184439377 6.818535612805178 -0.2853785669456633 -0.9224578211029919 -1.1822359138717318
Ni 3.2287581564353793 4.878145803653708 13.369560004119668 0.19542260931080538 -0.38275112875956663 0.22424004776312995
Ni 7.722846613140381 0.8710628569187908 8.626278795632428 -0.6297649798841024 0.02816900623504826 -0.3340330947285731
Ni 4.774240705647561 1.3024080435570577 12.784927596417663 -0.2961656302588383 0.17171986637722683 0.797829251786613
Ni 5.247137701862599 0.08319289588681623 8.754535982570726 -0.28106194184818045 0.8113982487202994 0.21981106545749884
Ni 8.798649848399238 7.1341781531216615 3.287149789825767 -0.7436301400363904 0.4830112965339102 -0.8301009673361253
Ni 4.732559630800737 8.235843742050534 -0.050273030458375986 0.7380377335502774 -0.11947710702242649 -0.18214877502003468
Ni 2.927486380277931 0.35531302873272114 0.8636593978189344 -0.4211533826868489 0.47646115412021806 0.08072801127868678
Ni 3.8033841302830367 4.999171575196893 2.526227452752659 0.4223977966169113 0.1969776125027511 -0.662799027520936
Ni 2.233462075337377 1.4162730771189727 2.9939147795948307 -0.45966130895406 0.05199284812752336 -0.16467530082561962
Ni 2.4100068153846976 3.2301438057330536 10.925951658249353 -0.7589811685711638 0.20318476975472752 0.5993511434789355
Ni 6.3893033088543705 0.85523576604824 6.187584389956013 -1.1420896806701493 0.298700223755234 0.6378732108135338
P 7.223064300686573 6.3731683992472234 4.487149050624971 0.674755942772496 -0.57326730190769 0.6483751387861221
P 4.018317865637739 0.6897232123219339 5.019896796839827 0.8909535798471238 -1.554307194319949 0.2923616831317159
P 4.801535206913831 6.144517665811516 0.8740247985383163 -0.23286198510418604 -0.013811966182427826 1.944897102397644
P 5.765100849061061 3.0776479857111427 5.763683580920353 0.03431934210716025 -0.6639012594461793 0.9442767167502962
P 1.3833336824051288 7.8906031747561425 6.609620617218629 -0.1638754306321436 -0.16818717063362001 -0.3986914541389069
P 0.5027340244476463 5.381238794966389 0.8147896860116931 0.4538711846348441 0.24903988041562916 0.8006078429730147
P 4.794309371314549 2.2685961897441818 9.350629290906648 0.8098383604323471 0.9613627256983055 -0.40705808093604734
P 9.061411733672998 0.9075184529712297 0.39641473477924144 0.1576055384630318 1.1906986999271043 1.1546855150572888
Ni 8.730260150848247 8.915351278174514 6.351569009590991 -0.6961742605472719 -1.3375482854252125 0.38024661717015806
Ni 8.84749166122733 9.29036935587933 10.524345853416676 -0.34463015351812903 -0.6959814278101755 0.6039241075615986
Ni 3.6986699618816026 2.8508385848991904 7.200418699312298 0.3520786393763743 0.5513681878417537 0.2544083438163941
Ni 4.088046714187824 2.4250443651453657 1.790743404866521 -0.8511919836784695 -0.7664970173322347 0.3471097254068732
Ni 0.4211453198618289 4.061347391143373 12.842569677234948 1.0595837515554332 -0.41363496282261664 -0.7915925268482819
Ni 3.056342465301934 2.514423394675222 4.888115968835163 -0.01458021180702005 0.7593951161801308 -0.22862892085944497
Ni 7.639047379440085 6.555199938526946 6.794838219917031 0.9985570753604158 0.343784260578066 -0.6911320701376743
Ni 0.42745234908117635 9.047843530147446 2.0998492143686733 0.15674781844842683 -0.504017466471932 -1.2012587348311374
Ni 3.4938170576589744 5.9570737245771195 7.1982955869991505 -1.1815142052143588 0.29855984152262777 -0.613018613663699
Ni 5.352698139298183 6.852937843992337 3.588129556668135 -0.03984052903570558 0.04955955609568239 -0.9084684488024354
Ni 2.1729863882046483 4.5555964060662 9.016342792791658 -1.788628537578481 -0.41785208622775777 -0.6214148081471944
Ni 4.4249454867170215 4.55932556961229 9.117895076889674 1.3832018215982695 -0.796797468087989 0.22906960794128936
Ni 2.373384755423343 4.723129775848778 5.419093989806077 -0.012754471452190937 -0.4527239584042784 -0.12388397784087053
Ni 8.169016387331821 4.317171730269044 6.409783949446775 0.11231555627698075 -0.8273177481640333 0.701370974256863
Ni 2.495814775583635 7.263266729638562 0.6162512507361851 -0.4762217844159024 -2.914624655120877 0.7688637177921984
Ni 6.698888980797865 4.78567928709816 10.6193372275851 -0.4451541164768205 2.908461977953591 -0.40426354891004573
Ni 1.4239266970651876 1.3381931341439777 12.375563085483982 0.6774846545575687 0.7330078844358536 -0.3496869992157462
Ni 7.02259153619015 0.08310082925562848 13.544420575792431 0.6909700906385132 0.18225290469806676 -1.0359751109975577
Ni 6.42591606915601 7.862090418067084 1.5917511461968752 -0.38576574721617435 -0.5902738637680157 1.6898585811964189
Ni 9.437480672925714 4.58019400601485 10.778000581930618 0.13875755251859329 -0.7042567804450903 -3.3952728507392496
Ni 7.1796906877714495 4.003559305668549 4.235237078341794 1.4908906777365163 0.8099463467651212 0.5825458989961387
Ni 7.035722655709051 5.324315577845148 1.9508909849027039 -0.8917385376422643 0.3143703261923231 0.16624315953337176
Ni 5.366498834316632 6.945646151700499 8.269385754713971 -1.2073129114450174 -0.917577353082239 1.8458019014656792
Ni 2.052685990119306 5.965071431932824 11.609033053602165 -0.38370115137766175 0.24743602626361902 0.09558975888186763
P 7.165080922357715 5.212077984733522 8.505808213774285 0.1847299054836496 -1.0038640893956259 -0.4142165463576995
P 1.231070353876116 3.9282692606083356 7.162797855897453 -0.20963695313797445 -1.0261272716692007 -0.7289905357463445
P 0.5002110267667129 6.71150861903239 10.055624404414091 0.47237130032156066 -0.04670845980013246 -0.10897954992521232
P 3.0920903572499903 -0.42188464280924576 8.8920881793951 -0.7492827103364773 0.032557622221047154 0.8296175999418035
P 0.2635756054989033 2.206362866925141 10.372351285053455 0.9671086270431473 -0.5606976927727957 0.42360955753682533
P 4.292137046313745 5.54286688082935 11.030946676374208 -1.0238765279618107 0.5366234254324113 0.6844117206947052
P 4.204469154171621 5.777274103629221 5.00941701030594 0.179906001732445 0.18368860870332882 0.6330361944362066
P 2.884103467703092 8.423548073756978 12.584600836578781 -0.1469478016388695 1.3018212643372482 -1.3574997888464748
