# total energy = -340888.88407639903 ev
CRYSTAL
PRIMVEC
9.09644095609707 0.00000000000000 0.00000000000000
0.00000000000000 9.09644095609707 0.00000000000000
0.00000000000000 0.00000000000000 13.31356082159476
PRIMCOORD
 96 1
Ni 6.646514629456996 2.2576456548012405 11.36189943881409 -0.4192618220910908 -0.5684397986120597 0.8911494979080137
Ni 5.0899134781579995 0.39734618103146935 5.932110183276938 -0.49852918966385107 0.16091711933476802 -0.03398021360018664
Ni 3.192896220893305 1.708648160122892 4.873762031369177 -0.1656492347031147 0.7966830539973118 -1.2214344384480642
Ni 3.7212629877216625 4.417104327057154 4.930890408845499 0.20774127877715834 0.3325469971013499 -0.7156969039612319
Ni 3.8865362215428627 2.9827684372359915 2.5509049017514465 -0.9989969911113118 -0.6730960385715699 0.265145270617924
Ni 5.090313721555443 4.910477085931845 2.3816892704654378 1.1095832234020115 -0.22393485781788527 0.7936100714989429
Ni 5.472646226962392 2.9399514901504946 0.672132375901534 0.26125904818964035 -0.3145587880540453 -0.9317839835999243
Ni 5.97972732219949 7.974967947772915 12.749304970996949 -0.5623565685324573 -0.0763998162169781 -0.876346114346594
Ni 1.8533270518575056 6.923264745906784 13.438575041461702 1.1422611732510068 -0.003910647908315846 0.6226718204827469
Ni 0.8992413953394308 0.2785202838393862 0.03280267535266833 0.7437126724478675 0.22798794484133636 0.7226890190083489
Ni 7.645576728118587 0.2341614900296507 6.856083891646061 1.332492211058544 -0.7588865519748285 0.4770054566594623
Ni 8.997862721464037 2.4498807393047035 1.2777779559792726 0.5933982683296103 0.7126383196405662 0.13655360288873902
Ni 7.163392591490584 0.5818065375396123 4.5224838653833395 -0.1159148435924649 1.0133671437900547 -0.21934415312340932
Ni 1.3386049463055971 7.6468047476334675 2.49297785676841 -0.6899971852022826 0.4130495226327919 0.4863850981021494
Ni 7.907099402583858 4.3290143938564 3.8093292701762045 0.12454655112553388 -2.294607755762474 -1.1433484927779147
Ni 8.135083499631618 4.05676701562784 12.353253213498572 -2.359925860243994 -1.0928666819782793 -0.9087772382921059
Ni 8.598719993364503 7.558905839690583 8.926862271689993 -1.7097373223982166 0.5375230544285452 0.49539244380708225
Ni 7.111215406769443 0.9491317348306387 0.2345371730367956 -0.810605577615675 -0.8467133790818256 0.8183808506857196
Ni 2.2547075044063782 6.774356009176472 9.28686119551965 -1.2643273811568483 0.026644856281037983 -0.44196312034334856
Ni -0.04902071974585553 5.166605570972494 0.7720877065482883 0.9302644616316044 0.5672133824041263 2.001744193293675
Ni 6.60879168924804 2.2666784205662496 6.709515669146701 -1.043347492202229 0.6093578769826602 1.098704628816295
Ni 3.7969271827199975 4.4822257471092195 0.18288394330867053 -1.0282448322328355 0.5531710453784474 0.2631729773829016
Ni 6.338263538340313 5.789056825522392 4.633917994739928 -1.737014412946615 1.3412609583901094 -0.8022124684559732
Ni 5.422597609400378 3.2426719452297905 9.338410725822076 -0.38662115323793417 -0.733406148315537 -0.7227003318622585
P 0.2777216163326714 6.0159766389905895 12.077849370294727 -0.4119218367862519 -0.9479112281790901 0.36738930159151567
P 4.193768511284238 6.379506801158593 12.521830274636843 -0.09610860749981512 -0.029700612388226272 0.9331348412008639
P 2.854663260731838 8.63516033541347 1.3943288333145294 -0.8508006617773218 -0.4909814592235802 -1.1642657025465561
P 6.436696124788615 7.77047086100235 5.525979569315691 1.404193336248272 0.22241302185672018 1.1361118658201594
P 5.110125769728847 1.125911966328311 12.5873855949175 -0.452049300934757 0.49739430472845947 -0.1285808690959076
P 4.016679000797633 6.455789554134793 8.243916956548915 2.364047338611535 0.1030863243692289 -1.4423875879298063
P 5.067290629761647 1.4298786338041893 3.6804809144545265 -0.7135880851483453 -2.2793572573613066 -0.2502395571506852
P 0.3141101086687905 5.811525034424278 2.975154716243733 0.7981454974754513 -0.019820634270352962 1.472274862407542
Ni 0.7441734585089291 0.5574826547041293 4.885318149826245 -0.991611240170202 0.9347808614447191 -0.8273398596512204
Ni 1.9289912468558403 6.846490785124631 4.7816451038037 0.9374452956507596 0.1974118718266923 -0.749773791040283
Ni 6.48373382042896 5.903017036503294 9.14493852536288 -0.3428913164501514 0.7053646687972885 0.34942783201708855
Ni 8.753077498164544 2.3522122538878825 10.05599892629997 0.6588945502602072 1.4080865006550911 0.6419401817940558
Ni 2.5766123532403613 5.344204482146754 6.837498953343452 -0.8807421865317606 0.8892833912335524 0.8225990025321253
Ni 1.2118824288107903 9.050722139249 8.679562792139292 -1.069116887856849 1.709467870786914 0.6866532084307142
Ni 1.5444028241178507 1.2015397755632422 11.124039335934436 0.26537538435085906 0.26407054949650655 0.259356946070921
Ni 4.711001234511013 6.991369798557967 1.3525643444354893 -0.4847177377020555 1.0950235804202817 -0.21491131416303633
Ni 5.890882384408106 7.832299369466366 7.779219817812809 -0.8097278029964119 0.5803666319566327 0.3515353652783946
Ni 5.65465691194937 3.153654175062238 4.662688217863363 0.20519125866179502 0.4572251887087416 -0.6593918016115998
Ni 0.685947140621896 7.778530307596306 6.71171245961221 -0.3120133959243723 -0.5470456492069998 -0.11050935630617742
Ni 5.24736377284737 4.730858764888672 7.41183185507991 -0.03033438931748324 0.5997303811952253 -0.879115192451299
Ni 1.288137892464438 7.673184426101269 11.320121305273775 -0.6130733781610345 1.3763621729686166 -0.5249411039984766
Ni 4.834494515503727 0.41247083323437045 10.326930049537395 0.17766245711390694 -0.04468423028125208 0.27074307642067563
Ni 8.613083273468177 7.697781202162281 4.40806701307172 -0.787851571748611 -1.4994359962033659 -0.2316705358992462
Ni 7.562025918902465 6.227905517936393 6.80381574251641 0.3501870787806162 0.6901205981540245 0.45780317269939863
Ni 2.6635106526896393 5.66368967771438 2.031343489666824 -0.7028156771231896 -1.2370585181385663 1.2569791683218934
Ni 2.4179158461544095 5.458273850417867 11.398418010254378 0.4141579252056222 -0.47866716063260145 -0.20187093603931042
Ni 1.37978453403792 3.7046801760503514 3.6962041124654217 -0.5294222796982817 -0.2776130640676316 -0.7834372447309991
Ni 1.9046127853752517 1.1902056102629384 2.4150131718788663 -0.29138132149631757 0.9640983794619139 0.1386703921214257
Ni 1.2051055803768205 3.7438585467954617 8.31955113329244 -0.5608306188062342 -0.3605187997239275 -0.613078263257041
Ni 4.030141733257063 2.7607607018273166 6.861143332047368 0.6832230997032427 0.36086692709196555 0.43046283301323285
Ni 4.206267021013465 7.050851425282433 5.816748210760903 0.36490947259245543 0.45702001467647096 0.8961176405465663
Ni 8.427752387570596 7.563617796051384 0.14696027910003578 0.38701993133824963 -0.6010511568891778 -0.7377335720462972
P 0.5779978577553129 5.924502829793275 7.9679000132317155 -0.3655216522551576 -0.37004139450238205 -1.5331297889113855
P 9.023851252975247 1.8028781908980485 7.9955522837745665 -0.8294854452393134 -0.6315069022758737 -0.4344045912698003
P 1.8923053009038946 3.271625916458415 10.380449868928139 -0.21636270189758222 0.5962928162685859 -0.06398061661701884
P 4.051054450773433 6.26224458214879 3.841361476988796 -0.1726783736357542 0.3442884539079942 -1.9182311630706836
P 7.089265694996062 4.1474858202345235 10.38662726191003 -0.25364626883938896 0.07309286333093218 -0.7434679034269132
P 6.657248429661135 8.0049498168177 10.273528483877715 0.45813355945562395 0.0020954490764480043 -0.19042875564063977
P 2.405526493715394 8.823975158156971 5.795432520914835 1.3555814887778397 -0.5322502360653801 -0.7456546266655868
P 7.300075711717199 3.9575703281480563 1.4224204619504826 -1.0325995096571055 0.5122496245737372 0.3594674756412777
Ni 3.0615527114462076 2.1971907089057208 0.10178280561371335 -0.2654656300718202 -1.300047203155961 0.8557364085160425
Ni 1.9049857394501413 1.6908191360549987 6.858840113223903 -1.4365576115115903 -0.8316989079508643 0.9977528342915655
Ni 6.911366601273721 1.166527574727874 9.155988881708632 0.04588442123694033 -1.1504375384142123 -0.6986322351694614
Ni 3.0881961866986867 1.8351978452415305 9.05162359653733 -0.21203759215966705 -0.30418670079110194 0.16803598976773643
Ni 6.817664164067921 2.0083576932805185 2.466164278072018 -0.1887966193538555 0.5446192991536943 0.15604462173381511
Ni 4.584269620575356 6.92416529355103 10.497769395515304 0.2199689311916018 0.6810749430119883 -0.6496779167579457
Ni 7.124605367702065 6.0390270201069365 11.509160810106293 0.5812364361560959 1.8146259900835071 -1.324078533073552
Ni 7.750586041302138 4.117704072888461 8.163009573044084 0.4056992529153077 -0.9528006950609075 -0.37926908374823715
Ni 3.2759922080668793 8.896619334792787 12.361747469965204 0.8300778274076736 -0.14754249780007492 0.6074925416391473
Ni 9.03528547912491 5.3716484441941175 9.952032974882025 0.361431541346184 -0.7666024325618475 1.1050544822937227
Ni 8.872531959419428 2.8663612836661803 5.988732798641945 0.13374287291282125 -0.07263700674043619 -0.4134842961773653
Ni 3.7786342401687047 2.6621825723253982 11.270448370718904 -0.12388500628213502 -1.3885240051421313 0.024667420839693
Ni 1.1712122417661217 3.6993860474750897 12.504801737363836 2.579248158990532 -1.2336237814254045 0.32167251628069116
Ni 3.2731814078439307 8.695688052835798 7.707819124641321 1.539613082642884 -0.5428766054309748 0.5666793642775272
Ni 5.726809880779232 7.957420913371402 3.466518071334446 -0.030716712357566456 0.021599066327014416 -0.5368106017425529
Ni 3.3642094914395466 8.650378680957138 3.7221917343325464 0.5183464815000943 -0.22066518592767803 -0.23007156684324248
Ni 3.295504073692201 4.591801473599955 9.108964830729565 0.994824604901177 -1.0407411649276335 0.7521230079987498
Ni 4.898415205363465 4.51057935324168 11.352939444575888 1.4857114475284219 1.7222961328998339 -0.3695084048170475
Ni 8.656891732606429 0.12602300119336743 2.3852841838897394 -0.35321815229745623 0.32247932845270266 -0.24416558304246336
Ni 4.682001781078134 0.5650290620340906 1.5304734442427665 1.0637692503916905 0.21341930299854212 0.035419517149874485
Ni 6.233408864651229 5.335908528090672 0.07191919029999212 -0.950560492876479 -0.0674163817714452 1.7645344727437546
Ni 8.453004107372879 0.006756836264097511 11.33433995196792 -1.301514531730107 -0.22699061392507355 -0.624375433437415
Ni 0.2722828543478788 5.347024378810553 5.341108053681085 0.3112358943283995 -0.3908339057677011 0.9508505133130721
Ni 7.339854447558472 6.203363320520488 2.3387931843445373 -0.08690122996893421 -0.10718569124958315 -0.16391194029703385
P 8.643847436426144 1.9990338414082784 3.579989803441651 1.308187058654276 0.3653221346498418 0.9227650679307656
P 1.9295097439843454 3.440692366114469 1.4975488765826954 0.7750662470584845 0.31427725225788455 -0.31145366676616043
P 4.968321353303138 1.1378919789290334 8.0990916121166 0.8167656836797997 0.4910771042611801 -0.5787527505022935
P 8.655609134446443 1.8510893274081681 12.497292625441363 1.2435371838843745 0.3726063270160808 -1.6864662676854183
P 6.963616557521669 8.166666342266172 1.5101438085849428 -1.9019015726727246 0.2591653988854053 0.4591674000367769
P 1.9577269035040419 3.563148652850172 5.812713939243499 -0.26861728832692444 -0.30118056697492646 0.23001063169831998
P 6.908883272921408 4.328605054018106 5.948471951435571 1.7841049386765147 -1.2919585126105557 1.4636632094791309
P 2.7919160117418746 8.701409714131056 10.136079443331449 0.44411590502029324 0.8172984162548182 0.09184854667188053
