# total energy = -340854.99470151204 ev
CRYSTAL
PRIMVEC
9.39103639363902 0.00000000000000 0.00000000000000

0.00000000000000 9.39103639363902 0.00000000000000

0.00000000000000 0.00000000000000 13.74473102258991

PRIMCOORD
 96 1
Ni 1.4155297059918412 2.4308322206111783 6.489739596951296 1.873689886125199 1.3755664165401988 -0.4970199521081763
Ni 4.260666281612188 5.5472288840534505 2.736974374218312 3.8314157648563945 3.706493061338365 -0.24063802950517912
Ni 0.6134722733250327 7.506978543286363 4.120862861103405 -0.4806039726439981 -0.5755316724618347 0.36330561844044523
Ni 7.3452273314932235 3.6184978182107335 4.920503980091952 -5.55042705635737 0.3194801366150627 -0.14415584071602916
Ni 3.013038916287413 4.46750385939574 8.690243501206037 0.19677372402206111 -0.4208983292532493 -1.165327311041851
Ni 4.38804630000293 7.431230443290807 6.025401677950516 0.129183535676913 -0.09855012706177221 0.32835892716193127
Ni 1.0067942355967765 0.5163004018789603 10.294886142788075 -0.15959788630271224 0.7876669665416305 1.3297059065626584
Ni 5.268023979395889 1.40642979167301 2.023156059127532 -0.02267712988254159 -0.3998350808250469 0.7298788518885688
Ni 4.246382515173652 3.907563311139474 0.9444509010281551 -0.682549984895618 -0.7308003352615736 0.11068573398304163
Ni 2.6608750494595723 3.0093106748172618 12.863102652918839 0.816002323151214 3.205993892432337 -0.22935757149535338
Ni 4.994378568315984 4.936595521046872 5.09442973153724 -0.245266529416126 3.439436175520025 0.559792664460023
Ni 7.95639598357738 7.310715272544095 13.455336158211397 0.9013418650599831 -1.1835847145901424 0.3043257974721275
Ni 3.6293162921996847 6.275109337122577 10.057844174474432 1.386703664103941 0.8169585164168962 1.7519399239081956
Ni 5.565654097565883 6.406640193623663 12.048301583791089 -2.040086026296667 -2.2109461157767605 0.3006280369055661
Ni 3.3287467796212353 0.3903140132972116 9.335696010053617 -0.35989376454541894 2.8994479473804384 -0.5188905269290225
Ni 0.8627676659969936 0.9663282595391455 1.8750979175803038 1.6447079528017094 -2.1586889582442566 -0.08816184184891268
Ni 4.827321420929306 2.8572697947121224 4.788993783871053 -1.8028673068856822 -4.403257390061152 1.1919996781267148
Ni 6.819770669076739 7.358290263193425 2.016448041792195 0.3510936497552857 -2.1048734550856976 0.6263189303170309
Ni 8.787502709291084 6.086396459685099 5.670003538169729 -0.5823211845798422 -1.230045577155843 -1.6010079408105977
Ni 5.4015926908063525 7.594841080300797 3.936450139255806 1.1845727895350244 -2.6155009706749794 -0.8456000914129888
Ni 4.228717975613566 8.255735270381043 1.7841898674455428 0.3567896716987984 -0.05802002815820975 0.9372516915827148
Ni 8.465718845374925 3.416393322797348 10.302720145393614 1.0070967374003108 0.4232287771586388 1.1414867569788278
Ni 8.789531173164011 1.526437846451489 6.48077773086826 1.5861713900183971 0.2910753602201245 0.05845197348930578
Ni 5.690639401662195 3.6167510854312677 3.0088044979526747 0.5074077231004035 1.6205318697761382 -1.7541770407688304
P 5.854240647635737 7.497089781905838 13.99502305815866 -2.1497698013777558 0.8397672867812958 -1.930336945195282
P 2.3624654752643335 6.472912737842439 8.421643894010042 -1.143151032055128 -0.14598209529149053 -1.6843175967735313
P 6.712487468686306 5.714483243205553 6.4203285683513505 0.8633149921942487 1.1018424031143281 -1.1000431451220605
P 3.6301802675529693 3.7127838241561073 6.54970793840203 -0.11909735508550456 0.16718264062850563 0.49864926018148314
P 1.1936758609267504 0.7861743727210505 8.165044153188248 0.11393843659238441 2.137131543788455 -0.06067134973812776
P 2.1250506828036766 4.395925379583425 1.0494473840433196 -0.5167922496390971 0.5707594478841719 0.6002862536986953
P -0.28988063489249105 7.675679122051571 10.86969082353541 0.6878737111013766 -0.9373475937306308 -1.5786498848303716
P 4.966167894823962 0.03292779110022552 7.062317662956634 2.967699166348354 0.36877358353355194 -0.5476717128267728
Ni 4.478453807894973 9.400145754097691 4.510580543586121 -0.327910526770603 2.5599103778938685 0.6577200703361319
Ni 6.837876587349915 2.7650685988583694 8.833848413269273 -1.0789590707582515 1.6188328848071605 2.1959694398622696
Ni 2.165441530569718 1.0275859902942923 13.254236503698026 -1.1938431590933567 -3.7290899728022744 0.8093411090809545
Ni 9.322078068099296 7.588342483078267 1.8774062343394047 -0.6081965096847074 0.2815694776122183 -0.4770476227513075
Ni 6.70678710956192 1.6523340810833298 5.997266132750084 -3.527784422348131 -0.2950448863908338 -0.34282858153301604
Ni 8.102698940412338 9.545612908688712 4.786492950864753 1.4160206679005034 -0.5797099722092404 1.146354112373458
Ni 2.815977407447002 4.330544983827281 3.2834650800726894 -3.6303765806897608 -0.6720017770661265 1.4701069082219456
Ni 6.461521410630114 1.0270131370709188 -0.16054634181676564 -0.3014109378181777 -1.595358455834304 0.3765246882338806
Ni 8.490605091964092 6.932444324388751 7.6801023002189295 1.5043131217900092 -1.928435871517827 1.6605616320045142
Ni 5.095604550196978 4.213673535222681 10.124602235277608 1.079957687226095 0.9217145151790642 0.22379319003369846
Ni 0.18188465483559815 5.766678623787663 9.628143215207551 1.3625810600241244 -0.29985644884686424 -0.22975763514724948
Ni 1.809098652522187 5.4392601380022585 5.844796082279237 0.5790558835650093 -1.3254579299195817 0.14821689815928024
Ni 8.24128246528643 1.0452317477814792 12.088119578333757 -1.2152113403564877 1.251290088356916 -1.2035182202892756
Ni 6.337475210178675 2.4400448273673945 11.620441267668157 0.3623491680644469 0.16961079045402402 -1.574207789898618
Ni 0.15908134013076183 8.858066957166933 12.41560192316701 2.3325988902942667 -1.2761925080255505 2.538434210297964
Ni 4.087561306752519 7.924616716234835 8.321307243280742 -1.0173017029577707 -0.6507572658650534 -0.22223870106238502
Ni 5.867829477377067 7.502940397613403 9.65483535810581 0.44197237631472913 0.7424083518141472 0.37610534130827483
Ni 7.365070591509417 0.8899124568520835 8.163971696825802 0.21490900017019118 -3.015333737507181 -0.37380188998607883
Ni 6.715755549370468 7.96737410518596 7.30836187881004 -3.043478318262197 1.3289291762976339 -0.9150705274999853
Ni 2.025871946868508 6.733354351675412 2.4424526891128524 1.6303629969339468 -0.9902328717654365 0.7242928731603591
Ni 1.1846886390453042 6.283655180290933 13.867883450301004 -0.03865705025056568 -0.44929076435301335 -0.6299333871411668
Ni 0.9700940651550912 8.095561752711294 8.74030242099606 0.011482289607986676 -0.7379276903349743 0.5836157350215497
Ni 7.052968886171912 4.561320313518677 12.385775991405806 -0.8346068256262786 0.8531959014823758 -0.42779351371118585
Ni 7.66777186936173 0.027384262284532876 2.4290930006608713 0.7963141006936673 0.7300639713161813 -0.8986393785271556
P 1.1953568564510755 2.601326487338097 11.104794481926032 -0.8287570517137212 -0.13443758498700073 0.4485772832257565
P 1.962116200417996 8.14971985991119 0.8450946745041052 0.452963070998278 1.6343248097951726 -0.6840725921877315
P 6.494267954726879 0.38681960863463455 10.028884096273801 -0.24304689605698784 -0.04781660526264668 1.786011154560292
P 8.54437816666959 0.9291040692636203 0.6531663061865771 -0.4235416804133673 0.7774113502518935 -1.737048865728976
P 4.123322373549331 1.5886722449973052 0.3043672477183211 -0.4035780928072469 0.24954227397334441 -0.43163936981983725
P 7.734335535710416 7.6757918144889565 4.035631692501909 -0.33458073970192703 -2.5463005004199184 -0.824114410735387
P 6.3750299649371955 0.906785332039539 3.8183278045962337 -1.5401285888267218 1.6007037793066174 1.1431227499203538
P 9.018841501169403 8.941365450467279 7.102507542542672 -0.8787976612108801 -1.5563931303147003 -0.18143812210625526
Ni 8.793757139565946 3.115081918339448 13.042678051891691 0.16605624033354627 -0.49041350253525207 -0.30966932117222795
Ni 8.550651379017351 3.7050456101223435 7.1399890472168925 -0.015464157073870138 1.2519644887161214 0.9548861168350263
Ni 3.031529867054987 0.647797450648831 7.0636925106927295 -1.2471842937186586 -0.3913661241220872 -0.3074028937355544
Ni 2.1073673611706947 4.610472998291394 11.034173887831487 -0.32683349165634035 0.34900462843674085 0.0544078853269192
Ni 4.526657997986368 1.062051094061177 12.022227371091155 -0.4834787230886319 -1.4414961864637885 -0.9794594352990165
Ni 9.094768030857486 1.9817716397052136 3.587113913502681 0.203383773139411 0.8556333072792747 0.7565550756281745
Ni 0.37427881856098394 3.1409166596099385 1.3957916255838743 1.1677613744046405 -0.2194215433285641 0.6837432338727708
Ni 3.4933810396041385 2.6508454225323157 10.540394130460257 -1.1187566623711636 -0.6246677678668533 0.4709494802733696
Ni 1.155848766111216 3.096947826956926 8.833945140944694 -0.6296209981070705 -0.9177714713709161 0.7381362068013546
Ni 5.096205576529698 5.81778464414172 7.841932396718239 -1.2105956959613473 1.171155230577538 1.005701656824997
Ni 5.941727543192221 3.8631718818462684 7.1403599931566175 -0.3124260579817587 -1.5467188404497298 -1.3151534626697803
Ni 1.8148835309746123 7.012606211515216 11.543251643577722 -0.3444746017768713 0.7192128875342904 0.11188129695303958
Ni -0.2171123107621207 5.1852795572460195 12.074430264502425 1.8232530696308857 0.9245275591478271 -0.00046074168650243235
Ni 3.6681857920610295 6.168577419648043 0.5203000443024797 0.1165401358812896 0.10693295180882874 -1.1908691640666975
Ni 4.247077451870858 2.3985270552275044 8.423953149872787 1.011748120129393 0.2212472836833932 -1.4635462242852924
Ni 7.550646862773015 6.180982978796831 10.67187615357181 -0.7482905216265371 0.22945938718054032 0.5214899122250826
Ni 8.736039829551975 5.081658861070596 0.9493943426147731 -0.3635064215973417 1.1399027003211595 -1.553403708669073
Ni 6.524760650075946 8.283382481686141 11.940748860654576 0.7334100049702789 3.6922789746215123 -0.9605589988500877
Ni 7.463347787945505 2.6071489299363173 1.9664172951115197 1.374161565772872 -0.6245633810785051 0.21079497800181762
Ni 3.062116472768541 2.2898070262604135 2.738857277026285 0.1267024211262721 -2.1951973375829357 0.009725969038512281
Ni 6.221204787906796 3.217171875573727 13.95021466684713 0.05667971208023142 0.6318254619575571 -0.1855788837475062
Ni 1.6198223128977836 7.787836270358903 6.2247959202447944 0.14914506640050443 0.3279310955958933 1.1742742358224936
Ni 8.323463425249374 4.9088356173043906 3.171459127452183 0.09809709868475362 0.3057635583599186 0.5830274666182476
Ni 3.7774598921785967 8.314973928299711 13.22786083872809 -0.24869843791581042 0.49185049209209497 -1.6767449266325962
P 3.3810078974584865 8.574523393670054 10.837720918152955 0.2058180936125165 -2.6268019975100954 3.4431776448403277
P 6.655267883604118 5.078559819042511 1.4095363465302537 -0.48326686418814196 -0.9684456006870159 0.9775835584325422
P -0.19342248221652308 3.5893762141831838 5.036921841636078 6.178938623450346 1.0702250333193633 0.8690927752182903
P 2.9183397047382944 1.342627090040254 5.112339377148638 -1.190944497389323 1.4120904796081615 -2.512795940904569
P 4.067877694355955 4.829500141385414 12.25693284953635 -0.6261281544624636 -0.4314347100081989 -0.364520721794469
P 0.9555097855501942 0.15335374700067383 4.035700247067984 0.539238237347439 1.6267225719678822 -0.40486390149820595
P 6.922705819591404 5.142512777258448 8.922227457288386 0.6186791543835861 -0.9468575901035952 0.039528654222241597
P 2.9851287559617505 6.839745403603214 4.563635204003292 -0.48533120291633836 -0.7899148820355428 -1.362563062301995
