# total energy = -381177.40844206995 ev
CRYSTAL
PRIMVEC
9.18158053290225 0.00000000000000 0.00000000000000

0.00000000000000 9.18158053290225 0.00000000000000

0.00000000000000 0.00000000000000 13.43817119829510

PRIMCOORD
 96 1
Ni 5.391919993099665 8.127434239310247 8.885359035664784 -1.3121727827749015 0.19183206374606962 -0.020808709215235133
Ni 0.06899315186299082 7.780967291550647 1.9332157884852363 0.008944096567165242 0.5188702152140483 -0.5609427189040662
Ni 8.133668532606357 4.19367780369019 8.484820840997777 -0.8746723261885969 0.19370176996495672 -0.5098086192324123
Ni 1.6746652304137908 3.60636881255754 4.240145783618939 0.02635355029286429 2.1054090158741934 -0.14642921013123814
Ni 0.7055273516089583 4.536876108720164 0.11740028163583197 -0.44919511931541345 -0.17217880829151636 -1.488528348151927
Ni 3.8112282411626066 2.6656056907516814 3.495402982677106 -0.20525579335114327 0.12094135027277882 -0.37641721612173884
Ni 6.87939115617749 7.869551182155778 1.591805137217785 -1.1777873911820746 0.2924580995002641 -0.022651675961244858
Ni 3.406880608662673 0.13627302076713863 6.872495789070891 1.496658433458229 0.5347004973780854 -0.35617852047736076
Ni 2.5663252586296577 8.345854862610977 0.5888744506422037 0.40030430715198156 -1.7166651598663014 -0.7187207783892202
Ni 6.470728180747994 2.272982936807174 4.094382681039045 -0.793928116959994 0.3884558924538278 0.20794156771342254
Ni 4.537234190367511 4.717560435338984 11.671723630272796 -0.37084357868870327 0.8224573347479385 -1.0351333318225528
Ni 7.962340236722056 3.0287831153874563 11.981244815448857 -0.37414384670652984 0.4750084808340916 0.4277395205447988
Ni 6.51572710776455 9.02712815063966 4.049001800265318 -0.06772208593732208 -0.8720055779897111 -1.3452345983258767
Ni 7.3210068247435744 5.65292478769254 2.4140597605971776 0.37705562103668616 1.8014866244880718 0.4025159700913197
Ni 5.486481092741274 2.308130027731349 1.8478693232353467 0.4171771716479203 -0.19011739504780806 -0.9027328318702389
Ni 6.799125777687641 1.0932140877685035 9.477471829820301 0.14527349926024014 0.987190742505003 0.20188687687891038
Ni 4.759749798660976 6.1789742723868155 6.923547214085676 0.985275270649845 0.41284280593862444 -0.8095583672980831
Ni 6.246706793219532 5.943108645753814 8.986280216258113 1.177723627823675 -0.5383658620448147 0.032269658666983135
Ni 0.4756012895315589 5.3525401934722385 6.779449650244979 -0.1819816533145511 0.0007631034182696535 -0.2650483400287435
Ni 0.8213915547934802 3.074966466314468 6.5220954521389 0.2773664952744642 -0.8693270027162834 -0.08971375971706484
Ni 6.084550896455725 1.5512647857897277 7.0425689628733394 -0.18361996024892246 -0.8084977872440526 0.18811476279548248
Ni 1.6927896707179502 8.368863903848172 5.455574973942981 0.029246298459627052 0.2897445572238429 -1.1880856877842894
Ni 4.231909905729967 2.59361291647361 5.768200451554115 -0.22529548561083781 -0.7478048402393701 0.6336481169885926
Ni 4.131252236502764 0.35295648899920423 2.516351751189193 -0.21897751381260996 0.19318369267795762 0.3009615089855849
P 1.6774747941083565 1.4547112831359594 13.029006406114162 -1.1762095051719936 1.276193279356499 -0.8929842371239073
Ni 7.455636342565199 4.162928689921888 0.669303261268533 -0.013605763708892696 -1.0110395240981427 -0.416852698428966
P 2.626749241224223 2.264535882562074 7.345868708966271 0.6574791579699193 -0.07817464872921376 0.3501644530727969
Ni 2.743272681903091 8.192595917546628 8.88171762075869 0.23152064058494323 0.281088938431374 0.2501287426044337
P 0.3715987704549109 0.0970401264309317 3.7569100097343364 -0.43316737642858943 0.9913813835475829 -0.473599516301707
P 8.280702365955296 1.5654319648116721 7.734876674588717 0.12370991415685148 0.8431914819714962 0.06144088091430063
P 8.511068225748284 6.520630071858989 8.582771780234268 -1.3305530850543021 -0.7222064229449756 -1.3050150886841976
Ni 4.620097956195797 8.226650400367362 12.760914349378035 0.3144127493944843 -0.8216235259927335 1.906724705092981
Ni 5.3245822802371 6.885919260056039 11.006843136428028 0.9087019049694801 -0.37960718381394626 -0.2955724767595297
Ni 3.9913524913586538 3.6525154371617474 9.18730174413008 0.0767631130936678 -1.2765123532588145 0.7126951410204306
Ni 4.464029447436882 7.215969541521901 2.183501087609466 0.06629718056533744 0.14392701253467471 -0.26759424637904883
Ni 1.634642720137281 6.173134787060856 4.525250391236311 0.49553745402537885 -0.5595916041928105 -0.329354201195665
Ni 2.977917158302835 4.520955247784292 7.272389436772675 -0.16033245047589162 -1.466408376324436 -0.3638740893494056
Ni 3.251812892200188 6.110231777676967 0.011869947530505109 -0.5488958150418611 0.08518656127067264 -0.031042471128101375
Ni 9.178569142725172 0.16049862144724206 -0.04423869213449854 1.4519109540392092 -0.5474320860121411 -0.23455505653589284
Ni 2.7734800824100234 6.773242901690971 11.03711939879022 -0.49329725184095047 0.037837125452431605 0.9366827064531222
Ni 4.425944250688324 1.1295272394417304 9.226083822853857 -0.6883491080758983 0.3171923690221505 -0.1074371451387569
Ni 3.674138059713062 1.2995701140278648 13.330638777151757 1.714404388856583 0.2464564359591691 1.0765100949971267
Ni 7.223278079760052 8.36782638522894 12.611132468925229 -1.7316235809483467 -1.3164811803422682 -0.6984820827448422
Ni 6.200367355420601 3.3485133001451755 10.312694517782061 -0.08036908527737126 0.4104948745317382 -0.3905300013740371
Ni 8.094068375042102 6.439620985332343 0.016168763614804686 -0.3348291082673072 -1.0697858888994158 -0.34296125045613834
Ni 2.4782371733823916 6.647482790826702 6.663115350128557 0.5450381318586678 0.8337840726146672 0.9729915681864855
Ni 5.560401998966596 4.358349453566126 3.05424088419766 -0.6634173778312251 0.6864354359929533 0.6908808733588166
Ni 2.8763964204897197 5.36061080290859 2.426517329292559 0.5709815911973068 -0.025033288819543986 0.7923605153625579
Ni 1.231552964193411 3.983851139925777 8.797796136833627 0.6822180554774961 -3.392740314125383 0.6304265247275014
Ni 2.1640985712717002 8.078037335137816 3.2037941432910073 0.49974712123135223 -0.44656565211236643 -1.0378232199498902
Ni 5.585458532700158 3.0372577143746593 12.927520558307712 -0.7952897731942109 -0.0595799164461619 0.17883205194197588
Ni 1.0799375220745753 0.437920082333854 7.295797876770372 -1.3133979134312541 0.6968126654622192 -0.4977146641823557
Ni 6.066022466600712 8.183662239524367 6.299828664682437 -1.199082296005109 -0.45766407601837317 0.18534491335982917
Ni 2.8407994321111865 3.8283427075896346 13.014882380521513 0.18966410956047336 -1.3436263732984925 0.41237872181801244
Ni 7.2027939732156865 5.9448715092484425 6.481955417629415 0.3209821750818859 -1.145962533361994 1.1759300262583618
Ni 6.408844326821939 6.638374662771116 4.496478989951045 -0.858085111253877 -0.8227458125226348 -1.4882478407970305
P 3.95491079755561 8.648516488845175 10.84369012000007 0.8731227223132898 1.0443589641858788 -2.306904827962272
Ni 8.733115573425987 5.2024305305883995 4.336806710766911 -0.4880128635135595 -2.920447175339925 0.8190832760693829
P 5.569225498020445 0.35076668200196925 0.7972908236109131 -0.3839284368971194 -0.6520592725059287 0.878379342726539
Ni 7.99232727929216 0.37185401839840415 5.714004335149171 0.9435439523493298 1.0801872867383977 0.20193341384612964
P 8.129362371257498 3.6653880133048227 2.763143458856618 -0.16817920021382005 -0.47873220954258194 0.5906034791932925
P 4.8570470093515405 0.3981546563169777 5.151831757502183 -0.984279225285163 1.1020156954673987 0.28091487474735494
P 2.5336571944948054 4.6748018140135175 10.50289830727188 -0.10661310657556479 -1.0450058537412583 0.6381699161183461
Ni 7.252943767005614 1.2971002688192435 0.02021784070403175 -0.8622608398981215 2.490834349031813 0.3195675541225464
Ni 1.9444292529956058 1.4173055233592904 4.612302794180482 0.5414013064370289 -0.6755552987453398 0.04310377316800964
Ni 1.9311618688823788 9.169956820027451 11.123204981286555 -0.1461438176803354 1.0847131996332093 0.5881372770409871
Ni 3.637430100069684 4.955345012338536 5.120225084096388 0.9826118648850689 -0.05235228834947113 -1.3136020590222603
Ni 3.7917449269146704 5.9762541520851284 9.000148075749198 0.9938624980982237 0.8605240597126729 0.24445637481000482
Ni 8.978603496633843 7.625394588149596 6.50634628676214 0.0262537914902064 -0.9412538707635726 1.840600302660082
Ni 8.417443647338198 5.697464635674038 10.611008665554245 -0.637290084616554 -0.950396713605105 0.5753311264152543
Ni 0.35265533315220504 7.600181967544114 11.618804671743387 -0.11519416337635645 -0.7333498411563047 0.6394896633710341
Ni 5.537227689276779 5.910449763199662 0.6317689593620472 1.2674021634274302 -0.39766301287439254 -1.0896813422717622
Ni 5.830726097971184 3.954818981748598 7.6553100143902295 -0.4527517263184203 -0.05604362115812928 -0.5788131714265838
Ni 5.479521454569768 1.0590126996565514 11.474263637554824 0.24246762651475012 -0.2436487913070449 0.35409207026197725
Ni 1.5531653729948753 0.6722468760413363 1.69893398452319 -0.5404124601611984 2.0720247839867927 2.0926799983432995
Ni 1.9130466101589207 1.4019814651689957 9.171188988157551 0.1881065352653664 0.8362754715779533 0.9743501390969092
Ni 7.759702750646678 0.8072629384104812 2.255086199704404 0.8477068533433465 0.1448685505123376 0.995976459117433
Ni 3.2390780397676298 2.2601746317290066 11.189696152408471 0.13476797174322594 0.17975893463161946 -0.6030429905082259
Ni 7.710517022830376 3.187505100969017 6.099249689000269 -0.8191120724247892 0.7346803870422701 1.0609022132565407
Ni 7.418689661823589 8.690191683647901 8.020398125969924 1.5166042804525364 -0.6724236950948934 -1.2230989706346806
Ni 8.72075716580218 7.365408949014554 4.281146132240126 -0.9647992621836802 1.4948203518082255 -0.6863266783292309
Ni 8.84667336353837 2.2426378125897237 4.352986492278558 0.7385280429231346 -0.17779126938228737 -1.5011344669517115
Ni 2.0460326250350316 3.0950465833079814 1.9211208922275518 1.0705510492002142 0.46500380421289594 -0.18745373217271588
Ni 7.645851149951858 8.092681956356222 10.248553831319652 -2.541293019902998 -0.787002079264122 1.436324926675494
Ni 0.5453849754929226 5.510784736857337 2.0664414426176485 0.3105494097843361 -0.09623304889282137 1.7004314716162587
Ni 0.9667745399323449 3.241795787655184 11.472986479679287 2.3181287217025495 0.46854369904535437 0.6949072209093904
Ni 1.4689151884807083 6.061422494669414 8.938372564475415 -0.6866786623520109 2.6025960896878533 0.5530820852090668
Ni 9.179698477151419 2.479274692001627 1.2539422487332754 -1.0240001980238687 -0.10352495456854428 -0.860444355514673
P 8.001977120609116 0.8222426873244811 11.421437412990496 0.08945047875334916 0.4864115804647106 -0.9575582643505509
Ni 0.31491536383801244 8.296127421533305 9.1727884195157 2.8814821069306373 0.8920540120001539 -0.4574910407756186
P 5.860547872088667 4.135870571595466 5.325909936806493 -0.3936531203840511 0.9168096216782791 0.33430897409777904
Ni 8.896970062619516 2.4217337257472367 9.883922962458879 -1.2737049657170063 -1.7593259319596217 -1.527569006994156
P 6.718979759746908 4.85020673172915 12.090847180595164 0.23872692852539532 0.9568959481762036 -0.48155502370335773
P 4.303296695681759 4.20097716034764 1.16878216957162 -0.30072059661937245 -0.6260445936097218 0.281654838237173
P 1.0344244265387508 6.765824184484406 0.08732142325871661 0.9653415078403955 0.057446672153243 0.3142011476043105
Ni 4.097078393132916 7.606728434584066 4.416145667764009 -0.21622977586414377 0.07674485826122265 1.6030558244785618
