# total energy = -340893.68450982537 ev
CRYSTAL
PRIMVEC
9.04746124809524 0.00000000000000 0.00000000000000
0.00000000000000 9.04746124809524 0.00000000000000
0.00000000000000 0.00000000000000 13.24187406798867
PRIMCOORD
 96 1
Ni 6.128777404592135 2.1540014835046293 11.387494839497855 1.5346549673066603 -0.8678820427396408 0.2173762307637611
Ni 4.543164580258918 0.4370430449750973 5.81911537628619 -1.2898952023236236 -0.5743461367941656 1.221847871836399
Ni 2.787314724727424 1.5897927514385326 4.4903590725745675 0.144583415171751 0.05934851716164618 2.1394830747397666
Ni 3.071576910272632 4.069294748942969 4.694204708141053 0.3787412362692251 0.9247579299910783 0.4232837987662904
Ni 5.228355964386203 4.620728465700181 2.5646594171870216 -0.6164939738068093 0.257513207993963 -0.031743353849867914
Ni 7.331501668109503 6.070728893103608 2.610211575173686 -0.07401049004919513 -0.45672305226134247 0.04261140691262339
Ni 5.241592400219701 4.4943897165689775 11.730048913239669 -0.1548950815104042 0.7019759548307136 -0.505073418540272
Ni 5.562732037888855 7.878013565937514 12.420957388141519 0.8296271130235002 0.12706160423790375 -0.21251504601671786
Ni 1.8472382617886036 6.52578905244564 0.5702307222853555 -0.1390887106057669 0.6070917066563029 -1.7086623441664832
Ni 2.983246545923739 1.6914047889272568 0.3569277754565635 -0.8258565902374744 0.4381208637791229 1.3387515617046943
Ni 0.720384198963333 8.966830292104419 4.732553277467 -1.000884952162644 -0.09497012301999773 -0.048618789448967886
Ni 8.513977713311514 2.218356075496197 1.281134086587088 0.5889559162875404 0.005325268867655345 0.28695671006606066
Ni 6.601272021795513 0.7432435146003208 4.845757827077023 2.089474089811492 -0.42234251789894356 -0.6240987827372606
Ni 0.7527415394383284 7.294153747999677 2.595089648412164 0.557717012877917 0.25487936991554166 0.09600807736620885
Ni 7.5085876274868335 3.76242295769174 3.9415762619685606 0.672408525586242 0.3084758150847591 -0.3111183949139287
Ni 7.5848758208894616 3.951840606775876 12.741517083543464 0.6357304534389181 -0.0851456807304082 -0.8770341415525541
Ni 7.940721519978502 8.917223061977923 6.971979080761588 -0.33624475766791123 0.30107515174531374 -0.20414816210926134
Ni 6.867131671123816 0.5310298821080655 0.30483611246617276 0.34222154407663646 0.5900671470738482 -0.15008531882658668
Ni 2.0836936619994315 6.610111391453289 9.25601701081721 -1.2060271027540586 -0.6169876256137761 -0.2588936332812573
Ni 0.11554422309364691 4.740679707176942 1.3858150229375499 -1.554638609517439 0.19284842082572592 -0.3796619483112816
Ni 6.287026549611748 2.028920331489527 6.935829044523502 0.3091245044123515 -1.1622538143228498 0.8397798851867859
Ni 3.4413285573289207 4.467301617535834 0.31780474344616894 0.13091440232509066 -0.7415197785616069 0.6067929444689614
Ni 5.900365197447595 5.618401067064184 4.747688775420421 0.8649304163104846 -0.9440229488682774 0.39080742340513985
Ni 5.408527108055552 2.949409040785476 9.248905706261413 -1.5868041385063898 -0.18842586627799807 -0.7381313217053481
P 0.2858246821060039 5.650293368030059 12.531010706992273 -1.005753593108855 -1.7765276405498887 0.8068473961248234
P 4.029124020917865 6.179850323443871 12.465212140182508 0.7597242173847754 0.19611295050961064 1.8822724855878874
P 2.444850220852151 8.565683954451934 1.534799567619842 0.5751742891224159 -0.5645371211235438 0.019130807292179957
P 6.605895274502906 7.566147576066948 5.760956485770206 -2.024377871532791 1.0475656440486347 0.1416814110336076
P 4.7277961223328555 1.0337267345126593 12.497707002068761 0.17886779027591773 -0.6380367329745915 0.11892509117369839
P 4.014801889732339 6.316041757894745 8.209140696099215 0.3053215857264935 0.0482835175967362 -0.82951886958041
P 4.763985967400516 1.0419056394979507 3.5963206162924446 -1.0745429439684269 -0.3007139117511531 0.5870070200912859
P 0.18848214158913693 5.380516167973183 3.54263840961133 0.5324487252294314 -0.7921828521341131 0.5375189406634872
Ni 1.4610654725328633 1.0812440010864979 2.602001908820087 -0.4491213286546846 0.4714557304858268 -1.0036352612142714
Ni 1.811147938794879 6.442326222258347 4.711591214457683 0.3202733219403194 -0.15835167260043698 -0.07907967704198639
Ni 6.146257099759816 5.627095677341689 9.005599568379278 -1.2288099049765289 0.6788437396886244 1.5708843819523397
Ni 8.538369668887118 2.360030271474822 10.144997031505 1.006957383608969 -0.12380967295950936 1.4318424654241082
Ni 2.390438788792923 5.307249826633704 6.702281498363861 -0.1938840611790919 -0.19777773980654323 1.9400032646404524
Ni 0.7466652644514682 9.002721570950273 9.080270980453507 -0.13602626963035927 0.556957251893757 0.5580929081600969
Ni 1.7823860594273557 1.210704124354787 11.644149601733195 -1.0482127907143302 0.6729926802244861 -1.711487215209788
Ni 3.980349157227926 6.984477243755705 1.6820090004015653 0.8477531332002496 -0.9323974488142072 0.13564446081090833
Ni 5.702488172078893 7.968542463374267 7.801953368558811 -0.22019955914516914 0.1275992219089286 0.5573598866488143
Ni 5.217345204024368 2.941935837779004 4.969503573809128 -0.7630077732320536 -0.041264663076741835 -1.322716619729019
Ni 0.6018325997445635 7.346384741893578 7.027290735216874 1.0476222083181828 -0.6904142181350432 -0.23698706301615313
Ni 4.818270735002007 4.713899221826874 6.937881008738838 0.9379011522412557 -0.026230908672070955 0.06258733581391801
Ni 8.347622042996745 7.202041544841213 9.142441515295243 -0.9863361078141917 -0.2415353445084679 0.43282284860497716
Ni 4.512511781486609 0.24077103923514645 10.311699219586291 0.2967734390461663 0.7403800085302088 0.3462833728508359
Ni 8.27976608349488 6.868651644616657 4.772662482755488 0.8175802091612951 0.6490490249246951 0.059218419341685105
Ni 7.413390240036352 5.998892050644302 7.1530088285051665 -0.2248712535892256 -0.19246146979995238 -1.3114911833268446
Ni 2.2461227341243597 5.136397568069278 2.3181758109079453 0.701574862737553 -0.1236518072254064 2.6541071130829517
Ni 2.314195832696629 5.345520587792755 11.460404710863415 -0.7018939366398685 -0.3328956386900202 -0.028447199597099397
Ni 0.972231140281437 3.0192916316111287 3.88899241708525 -0.4301234473959431 1.7843713049640237 -1.0257410919743752
Ni 3.663669917963361 2.9265099163189143 2.7922084965266984 -0.2309375143879636 -0.8165854493481938 -1.9804708857371953
Ni 1.0300172753932242 3.458491591352259 8.213709664039008 0.3879308731882932 -0.5993300604330131 0.1358581194836112
Ni 3.597686782943749 2.7216030135458196 6.929976241829935 -0.7266171504181616 -0.32375022474532633 -0.16366202906975685
Ni 4.272536918842951 6.9257863625172265 5.840461051653223 -0.9944541089356357 0.8055119651428514 0.5427809603933749
Ni 0.671897949287808 7.159844185492322 11.23750421712268 0.5859749792823457 0.9508515417543365 -0.5647150414623049
P 0.2731120942798614 5.46340900810066 8.265074815889665 0.17521528112499501 0.807186781742113 -1.2185902841310499
P 8.486473431060093 1.689468632216137 8.027899237761991 0.15896976580041008 -0.3778860873577814 0.13061229770363958
P 1.8899784688135108 3.4447756400716156 10.438834145308983 -0.6692954338785571 -1.0054864554903973 -1.1556363090063322
P 3.8594660272406722 5.929959443251675 3.796365413380699 0.12492501751087517 0.9531480510979973 -0.34617538651806185
P 6.871013032007322 3.999213113969444 10.468496247072565 0.44624066467277984 0.9180717762201543 -0.2729416267338912
P 6.420675647446619 7.8218378789312375 10.100186765342222 -0.7423990958427666 0.42455906593428816 -0.23067243365203502
P 2.338415886508161 8.271659558199726 5.993193054792271 0.8240375347508647 0.30811868885565646 0.16745980554929224
P 6.931631022495653 3.8214757373808954 1.5928779357305505 0.5693227154376452 0.9503432346593504 -0.25487602748143195
Ni 5.343774427768241 2.8963094906099514 0.39209887638556956 -0.2730375288818072 -0.29145948303242064 0.5234547492609372
Ni 1.3587929703716546 1.04794934362425 7.008142688191574 0.6607148912983977 0.28230275623381706 -0.5231289904904023
Ni 6.8593870442793365 0.9308480524465671 9.318452636274065 -0.7266888841963614 -1.6189133603361083 -0.6118186798183269
Ni 2.705082349272432 1.613931378098662 9.081767430547055 -0.21839747293942385 1.376684589305042 1.2578227472691113
Ni 6.397686048367388 1.9851939511865262 2.656823190874707 0.49498620950759914 -0.27742665908843833 -0.6163852161430868
Ni 4.257834794284214 6.871818256060077 10.48314137262532 0.33285810058386545 0.14613250482642576 -0.8875440399449424
Ni 8.295354859257776 7.27810355171217 0.3979607265404039 -0.11221939701874868 -0.19742806977660837 -0.2646966131162796
Ni 7.441364990273654 3.710816238625256 8.29416692759343 1.5429727431437361 0.29381744174163593 -0.6347644899812229
Ni 3.26483068293394 8.235713994586272 12.619280453350678 -1.1814373292298364 0.9376784947074883 -0.22550888717322454
Ni 8.923592474709832 4.7565851440841795 10.34880285824191 1.1097986818469274 0.36439293796735306 0.38166689455645236
Ni 8.63520464682691 2.3006608306413243 5.836514549048595 -1.1578762540804446 -0.4983762090257546 -0.08946616248263302
Ni 3.6081727905521035 2.8283268666503507 11.50867201197628 0.4588498687963582 -0.25218819623662375 -0.21077620894874022
Ni 1.0570510896587666 3.350338239367555 12.663998435408535 -0.376493577885629 0.24609776706816974 -1.1150049086382152
Ni 3.1818835580388614 8.491920002742775 8.300416913836616 0.34116173535355443 -0.3453024969948053 -1.3374837507358643
Ni 5.465661825956122 7.826207802723157 3.702811949642416 0.2609114350422345 0.16254514185649427 -0.42929143841295103
Ni 3.0146683789037354 8.427420651370937 3.748377678820981 0.5962210824903861 -0.7674521821566525 -0.43106652803550277
Ni 3.68159293873312 4.577689692453466 9.490861962922525 -0.3088321699829133 -0.4423372158533156 -0.21727467218889035
Ni 7.186887047219131 6.262616499113611 11.39075283030007 0.27949588291264127 -0.8663463228214047 0.22159155439668932
Ni 0.8795516613015382 0.10734631843969508 0.23972424796656436 -1.2808017246627879 -0.6356497207996537 0.1066709563966937
Ni 4.65809448073254 0.31512217118052854 1.3863714418054653 0.4037804386260401 -0.5180716305721529 1.1202720705744256
Ni 6.0725926701245925 5.748648319462694 0.4417386773726263 -0.24587665219629912 0.25616517860650073 0.27484732839703635
Ni 8.04525588745644 8.688078010470763 11.327920021293597 -0.5795037697357053 1.23862560551537 0.10266749166425544
Ni 0.09111155394234251 4.739042116687631 5.932889011209902 -0.382368034388535 0.2597485250823849 -0.21240217458793742
Ni 7.947163312400546 8.648802981111086 2.512380471748406 0.6593146685167613 1.6189871509968374 1.1747997693086607
P 8.510983003632166 1.50474661552953 3.574657375034943 -1.2173800658730325 -0.30070542711072085 0.45969756150863406
P 1.6740427107560465 3.235028345520721 1.4692525202332951 1.490799917794923 -1.560228187790074 0.7592999853631632
P 4.638162923561527 1.1773642295862046 8.078615686639811 0.033780181774238596 -0.9782055082872572 0.6055413314500474
P 8.49583755347135 1.5258362477427092 12.341082781092684 0.19817960323065223 0.5381501464895828 0.05714405331115965
P 6.3883128784948635 7.724188629477422 1.5446911570229602 -2.034734017956134 -0.4022526891276039 -1.3284008145979898
P 1.5991478263885226 3.158568250354021 6.000502498749811 1.189920169889867 -0.5406626284987914 0.554643773269232
P 6.778557025320716 3.8903721549284542 6.054092421326003 1.0325120921496216 1.691893095127944 0.09492101494961716
P 2.2918666982898825 8.524762287141678 10.550290725402238 0.9654206978177632 -0.36971100774615684 -1.1960381098621466
