# total energy = -340861.37296975264 ev
CRYSTAL
PRIMVEC
9.27885262250674 0.00000000000000 0.00000000000000
0.00000000000000 9.27885262250674 0.00000000000000
0.00000000000000 0.00000000000000 13.58053873383599
PRIMCOORD
 96 1
Ni 2.6213129376489945 9.504514160127354 8.046441778486363 0.21308146004314912 2.9200188295532548 1.0701291311714474
Ni 6.502629088499112 8.265379086126996 7.862493167732453 0.1549038232611526 0.7858587096882982 -0.1610420749484065
Ni 9.299544309106958 6.167792418335143 0.38305701067020614 2.657558819076978 -0.15754974552443188 -2.8392969889221553
Ni 8.285801840409292 4.570642100705496 12.453706484359733 0.47950791136634185 0.13266455224697798 -1.2501104662265181
Ni 9.045776972956807 3.4424357079613093 3.0010406960536455 -0.45328960109976124 -0.7316320871342497 -0.30977087974709877
Ni 6.744556608899964 1.4011531169459068 9.185142553371973 -0.6171938280873112 0.5024454939991218 -0.2376339525715327
Ni 3.8229614476782166 2.742040087111484 2.398907194955785 0.4176942204936549 -0.1114490945116274 -1.3970384703710457
Ni 0.7591752954647648 5.66061034242863 2.5967759401823427 0.1902104689822466 1.71917764187551 0.6790805382897789
Ni 8.938689736622429 0.7950965170245323 3.279346885440942 -0.8381539195475889 1.097535291098542 3.04059714005966
Ni 8.762864761204343 2.9753104381595956 9.71367062938136 -0.713581657390442 1.1447343173818478 -2.4468908535713276
Ni 0.8058006012317359 5.647508602743668 9.264154765793611 1.5647589857808921 0.5642159903386993 2.3660000914625314
Ni 0.5791507114196159 6.628116289277738 5.1078032210512045 1.7481267208096924 2.0641507805553547 0.44064440153192497
Ni 4.97016165142461 1.7313410820233552 13.667453690122114 -0.14586151055322621 0.2979651453614223 -0.8745705105034098
Ni 1.7296244943167558 3.6440837297981257 1.1150406289771948 -1.6730919032610414 -0.17047596666779674 -0.8823655810677964
Ni 6.6272255194408 1.5098455947572664 6.668234335808828 -3.6677419087120966 -0.5640681519069254 -0.8264078347552541
Ni 7.428630728258396 5.050303100191616 6.418583098613528 0.3419037557259014 1.8988010793705297 -0.14515574273545326
Ni 5.653140866191806 5.955631456651967 13.060322599084934 0.1401991700611263 1.9056168167407825 -1.8651728497931233
Ni 8.991440012903595 8.315679745356583 2.0473203403163973 -1.6117847197111277 -1.9513659979514395 -0.7700130009052933
Ni 0.10078132819705488 1.0157930950931173 10.910006996372593 0.7242152258448882 -0.7066270804494799 -0.4388839671973926
Ni 1.1907644160841373 2.4520945051881986 5.754766569963459 -0.5315244136429491 -0.05937782773768484 -0.6133546568468792
Ni 6.605782091387014 4.119216649279812 0.17717133691120715 -0.6264384866140309 -2.845130050664165 1.3825330776660187
Ni 3.5407451498608618 4.170537982280891 13.515446601104403 1.5138087199852703 -0.039588046705267305 -1.048132058075066
Ni 5.7044714780453525 3.7906710410892184 8.650381872159764 -0.21470022659349475 0.12968027280767344 0.4551179125577517
Ni 7.435608425314409 1.1394894773453996 1.4120631916779023 0.6446616944902769 0.04177734104710224 -1.0953331412409009
P 4.662456345877375 0.7541767776401977 7.9536597490020595 2.328858706525544 -3.435950273853954 2.04000349388519
P 4.108443901564344 5.991986000621995 11.547626540849466 -0.8102304536644432 -0.22059653747327168 1.6667335651431812
P 3.175408891634239 2.7283908951309046 4.566945405882203 0.6109036242032253 -0.004033032418793055 1.9490432633555335
P 0.6641941779455213 0.07371677131809179 5.274491310443949 0.4422613683100577 -0.08198836604834912 -0.12142291789488766
P 2.2633348094295775 5.873003275423509 0.3497681995556395 -0.7057408211897847 -0.0575078644084816 0.2263578654370811
P 3.198476118869943 0.9329051059955525 1.4832254949115253 -1.024912168315177 -1.0130480698877393 -0.591654031944994
P 6.520769245074254 5.123754496329121 3.3197358744641012 -0.3879506706826351 -0.6638598646852825 0.3644842121295787
P 3.427830794176515 7.3767619429617 4.921899556082266 -0.8755130769223373 -0.9264319752593915 0.3771610362662988
Ni 2.0507655782378036 3.9640649571606605 3.226627229372921 0.6326356165636783 0.8701739240976111 2.5543776210010978
Ni 3.0989697050020055 7.327287101601774 9.014761480696924 -0.08944842187082014 -1.2020760885261104 0.038884592880339484
Ni 4.514096773764876 2.3021389704511845 6.891702507109636 -2.2807561945913624 3.6617111291369837 -1.9021152313454273
Ni 4.564638683158633 4.4189235839995415 3.720727979069904 -1.1862476061342861 2.5518785087283278 0.8242023424635031
Ni 1.8526527991913349 1.4814151907949984 3.3358560248569367 1.3503410663145068 -0.1637756718294857 1.9071062568021158
Ni 8.559128997562203 0.987316296868509 6.888659971385345 3.769344963667579 -1.16376999385706 -0.20208176649853585
Ni 2.402749567762826 3.3222652896469063 7.631216842079737 -0.3205738838998737 0.08199376536498783 0.9017820379211953
Ni 4.953691688293728 3.511822966717784 11.532226429408157 0.9131483707766079 0.14175545880465262 0.26869904940745337
Ni 7.598238872522852 3.262834239588706 4.954954540114636 2.0498153377692896 -0.6830084125892754 -0.27570016331563485
Ni 2.710139392326145 4.887858230032536 5.667321736418808 -0.17846104175580232 0.11416777899437111 0.19010633930421453
Ni 1.6000731561571009 7.963454505667389 3.5690744143312267 -0.951642155976432 0.15717873533825832 -0.34951062153888196
Ni 4.34228026261301 8.435766653998773 12.107838186496439 1.0193303033520253 -1.2501289781692793 -0.09061390293383104
Ni 5.116034491075659 4.66913711965441 6.308893144161846 -0.8474407441661534 0.07365644914388605 -0.027344967671856128
Ni 7.71090269919056 5.263995072532031 8.828002305530427 -0.02541586896994332 0.25130913606578004 -0.48302363782908425
Ni 7.916939618244789 7.542111093943296 12.710161904069894 -3.315157790454213 0.5471063272416062 2.201753393533899
Ni 1.631231542744991 2.8893325911901524 10.459513141734707 1.019782303287779 -0.13159600177314756 -1.8489250204756933
Ni 4.2561632328565455 7.93610972744389 6.8633463339671135 -0.21953364342639609 0.7446927769729498 0.8079496280500666
Ni 5.133061185354628 7.01302164735959 2.9672526826762944 0.33653349255292364 1.439793601950385 0.29583704327482596
Ni 0.5864967789186131 8.410815819712044 12.151159292899518 1.9546151010163564 -0.1692184401116118 -0.36525142931290644
Ni 5.157659423247569 0.46975675236166775 4.833110216814987 1.4241692651495665 -0.5441467303926499 1.517173522692445
Ni 2.6673917190055945 0.45363845773932593 12.954394291423823 -0.9135281227135299 0.4836679562813025 0.4081276598511423
Ni 3.453227013381713 4.5291099570582665 9.976032966572715 -0.3710266412337868 0.7375386824266718 0.1692991727508762
Ni 1.5025060224549966 7.921866688905352 0.81700203193123 1.685838918514064 0.51931373050937 -0.09180843746256447
Ni 8.5220692608046 6.364587600331142 11.009376083224003 0.18692202803896193 0.05475009915768635 -2.2005956257803714
P 5.654477020947213 6.28129134172498 7.626368641665153 0.12182349576741598 -0.5567050266736348 0.08602319823935507
P 6.487170520287251 7.704620916069654 1.3364526065710707 0.2892519338581406 -0.051546247508408 -0.8579444719109547
P 2.9480584484607766 5.376890870511441 8.11160159205837 -1.1731347229014117 0.11564822019463955 -1.8480361901128368
P 8.391098258217324 0.3773635067957781 13.127464375544127 0.4271515092518128 0.9156212577971327 -0.26153621311042696
P 0.91092536026911 4.718389268555101 11.275907408829276 -0.439182729384734 0.537302710887623 0.04084557326145224
P -0.03269403667136123 4.823824869150156 4.860760269284688 -0.4631906622635571 -3.2831598973913776 -0.45192511665206686
P 8.72238112788601 3.7466150495706643 0.8858937999659082 -0.0470748420006157 -0.04961740591681132 -0.5826263745250868
P 7.500569671443599 3.211086079374095 7.4594504367312 0.3931977780141873 0.18031994934141204 1.3947643296248882
Ni 7.916976733654661 5.9303465836763865 1.8730282313260425 -3.560859093414913 -0.5852144469672372 1.370134189781034
Ni 6.680513969165116 8.63564241501418 10.354861604173205 1.099416824391971 -1.0172291978486223 0.5438112014301021
Ni 0.6424593939242365 2.799940126512447 12.54437015182557 0.2991877049146138 -0.30727870945286434 1.2760703806253892
Ni 8.825320717167145 7.872447520660234 6.841522472962135 -1.0636288681590844 -0.20998533761632868 0.7162106103728568
Ni 3.633589347656701 8.893288311496 3.4958067394725916 -0.19009014135429844 0.020465209832887334 -2.527651260749847
Ni 5.232001589222011 0.8497563811436339 2.2625312608058397 -0.263145723689392 -1.0366297138624212 -0.31717051464527957
Ni 0.9176868600626167 1.2206423210314292 1.437676536030854 -0.5885478822158444 -0.3875963726670099 -3.6799765031050757
Ni 5.104909146966404 5.330208963744415 1.5511012286009465 0.5445737906277395 -2.0488624869377166 -0.2884674902836322
Ni 2.7891859365019154 0.554007804886797 5.559125677214492 0.24133711245473274 0.38346281011461053 0.4629680047297897
Ni 7.572870489875058 2.2434502285904325 11.457180926416633 -2.601145473284256 0.33829315555650774 1.8302621539588673
Ni 0.7277005000077124 8.696511687204938 9.14351854908531 0.06567651626220301 0.22010031456314352 0.2119352622538479
Ni 3.88878562708694 7.2935027997654105 0.5939625436144489 1.1735561267095467 1.1578734258669672 -0.7168032496515333
Ni 6.313934344707767 2.990045255878943 2.472662937454243 -0.07396163908913068 3.313071597349146 -1.399024647563139
Ni 5.621787623702086 6.971257532400658 5.197529724417762 -1.0210426580574417 -1.0619003155037519 0.9809727866197491
Ni 7.663107330127361 6.670390741122415 4.239735024561769 1.4986165856258642 -0.8924964988542113 -0.05240730995712265
Ni 5.749974970548929 6.067209657580906 10.34067052720849 -0.34791808024078147 2.757136358962 -1.794891230658741
Ni 5.504679226702157 2.7838134809228836 4.863462271123399 -1.7335246546258016 -1.1209660113176565 -0.004028147322786611
Ni 2.120616779617684 6.675011609651531 11.260534206060123 -0.5492717103240411 -0.6075218522151861 0.5138812466398892
Ni 6.829597291770129 8.644178959284837 3.3432837462576535 0.5643491734824538 0.1502868933144315 -0.3361707098968662
Ni 3.836480735724243 2.196193032970384 9.579426975528584 0.3448651523470706 -0.021200545337015098 -0.29265041801672825
Ni 3.131185880771259 6.172468959979068 2.335214367958985 -2.526645188082836 -0.9188063403933336 2.0476170445663895
Ni 4.414488292519789 9.124879190247384 9.886265636255299 1.1245354738364697 0.46925229507660476 -0.6851007763419298
Ni 0.4749686837930013 5.321922948490398 7.221981404941272 0.0515030529752984 -0.6552896065177682 -3.191664877404174
Ni 1.8257534058863039 7.827714172911509 6.912928810015669 0.0025171099948988907 -1.9198332174504809 -1.6218385044027035
P 8.318509795359354 7.459993249600584 9.005417676261546 -0.9066033705692388 -0.5615739247301619 0.45615560979364667
P 3.12565568470027 2.272446642553255 11.839336960512187 0.6293209503681484 0.5284306052089738 0.4951147646656634
P 6.82215565209071 1.458978925527125 3.628136166061197 1.465794911110153 -0.5118279636552863 1.9371359703949862
P 7.116805612215323 8.446808488435815 5.54580310084079 -0.003879537560064286 0.9149082908905082 0.7158663396595607
P 6.8372801816137185 4.460873276007836 10.650945147004142 2.2720769216498096 -3.6499136222814235 1.4188049155138598
P 6.170520400960766 0.541788484071552 12.112563906058444 -0.09636186116120178 0.36155546851855797 -0.16071785883976836
P 0.7352330724413184 1.8749406028197184 8.156743209315692 1.3719223920297081 0.23548990964533636 0.9767636336344081
P 2.457708210931401 8.799729642060116 10.606264688714486 -1.2496556380772865 0.2690078388971238 1.2033295013172374
