# total energy = -381170.7722289583 ev
CRYSTAL
PRIMVEC
9.21336323150443 0.00000000000000 0.00000000000000
0.00000000000000 9.21336323150443 0.00000000000000
0.00000000000000 0.00000000000000 13.48468839033038
PRIMCOORD
 96 1
Ni 6.209346050683448 5.202491306101818 1.9710838648536093 -1.6432401100069312 -1.2797352310714862 1.5299272228136878
Ni 0.17451123151658168 0.8309043857512746 12.95975606185719 0.09688610909578799 -2.1750486305492025 -0.6893410396755225
Ni 7.808905655843036 0.1724631009029354 6.242951792533536 0.35422422496446737 0.8193766389400857 -0.93873367544488
Ni 1.791593731926256 4.065101633341419 11.515990741108372 0.6257874832935933 2.7755688546355746 -0.9941304070476298
Ni 1.306602299167184 8.087526968876226 8.904357942516189 -0.3336818820367415 -0.36439885150462403 -0.2667203284145277
Ni 6.485138861249747 3.4702592725278936 11.102523567309252 -0.056952763235959984 -0.41379051456387445 0.7828057817945873
Ni 5.937487346154154 5.883930066544951 11.453746181446952 -0.31291482469271914 -0.6558102549079287 -2.3165266673227523
Ni 7.579327074507729 7.407589986615839 12.559962440211526 1.4307011527308136 -0.599193791965465 1.3366861945352333
Ni 1.6609943102058944 4.8215555960171566 2.589370549371518 -0.08900182125170478 -0.22697467308547362 -0.49700041172415044
Ni 4.7532477221099425 3.9899942974779696 12.831975007904326 0.3062566959462532 1.1490476000452212 0.6709365690264057
Ni 0.5449962238546892 1.4600140078843442 5.248725804731598 0.0706829683378589 0.12007643116932225 -0.3161690699639587
Ni 3.709428964833987 5.088853685819706 6.1548029412242204 -0.9454018314936751 -1.4753151918957623 0.7314863055850048
Ni 3.5326798074242216 0.8102259136448068 10.73215282067339 -1.1232650917644784 -1.3754301480726503 -1.1767612639104055
Ni 8.870036322354446 3.4863273777469628 6.458990415480113 -0.3785933978374512 -1.0448371893738782 0.05051986312642266
Ni 3.428974192547016 2.4739814687670747 0.8381313477546221 0.8256583581837393 1.1549763068248302 -0.06363737434498717
Ni 8.006412520281794 4.873841431520724 4.450783146750818 0.31157270884252797 -0.7945384968504833 -0.30301890573524587
Ni 2.47424865629652 6.371823708675587 13.145952601773628 0.9681072435109908 -0.27582820425306687 0.23340140254742384
Ni 5.401159054289201 0.08374117840977359 6.984744530533182 0.4413864219042721 0.7607094641161802 -0.7640133316784327
Ni 3.5842009337917884 8.77773685097564 8.34416335491759 2.6490484676131216 -3.875608657323525 -0.18854310858215273
Ni 4.989266444241196 2.661418127354661 2.923008538726469 -1.7567280893254582 0.395670407924396 0.22223767262112049
Ni 5.90618955175669 8.422368223449991 11.434435893758506 -1.4539405828747283 0.7972723508418785 -0.03156800461426821
Ni 4.659077938025017 2.8059205139692756 6.642449665224196 -0.28375954328500164 -0.6378423575755983 -0.9966171780252256
Ni 5.05489322949087 6.379968321642133 -0.09960751097729637 -0.4239162901439667 0.9334032643709022 1.024908311660435
Ni 6.49840610409118 4.116162091554769 6.824762772600587 1.1849260591093853 2.7204258909148438 -0.9387619575796542
P 1.7390038554409069 9.045016514052021 11.737503944399654 -1.0864705486439483 -0.7350385417126374 0.1357485904889404
Ni 8.255891965879252 2.837070894557391 9.6583943187186 1.0991463443394038 1.2071185360460244 -0.2530194338886675
P 5.822541428314067 2.7237649553463146 0.759635336948757 0.08944790765018788 -0.014371952450955896 0.5955428254764389
Ni 3.477749736715453 4.1585159216534295 8.749849843591992 -0.2257909371900176 -0.09015521812985763 -1.4496419554993745
P 6.844423168086236 2.057472963813819 7.12371797796089 0.26385226283811336 -0.982046222189586 0.3135259759141568
P 6.688680478508741 6.23119093455639 5.531202910215579 1.844941610347913 -0.24710846772087122 0.5005996990396346
P 0.7875545911031987 3.6363393554860055 4.168804484209699 -0.3420698489901205 -0.15490176637862355 1.3222180828260455
Ni 1.0621349230876016 2.5758720511166673 0.48148298409655965 -1.311090605454316 2.3188707420748966 2.840561971677508
Ni 0.018224953517110953 6.034024964551753 7.979955426848836 -0.7699368962517192 0.5820113666489073 -0.9418357114089714
Ni -0.37711861375882433 6.888490683718581 5.538795642733374 -0.5566741734356992 -0.9740891721260385 -0.5413707103094096
Ni 3.130903470042808 9.2185225676561 3.2873104430986833 -0.22198287629783708 -0.2003089908688292 -0.09078410996310818
Ni 8.726390778506675 4.398293695923088 1.7486133931378618 -0.21044093709650855 -0.14513825923395648 -1.1790297482296082
Ni 7.143304666541865 3.2690762762184877 2.9254758773604523 0.5123781797318014 0.31118447226517376 0.20038072464702908
Ni 6.092787794303602 8.151891523383346 9.071136398396092 -1.1342326465195756 -0.10010975823940824 0.6615373871996929
Ni 1.9214008044213657 7.053778417451442 2.3589037998348816 1.9926003220108781 2.145019431176964 -2.464026227700034
Ni 3.633612200013044 8.569957086697855 12.626400922748928 0.6773787251073237 0.5574023098509755 1.8958096008423735
Ni 8.565166137894003 8.406963480372992 1.7496655592020922 -1.863870328931616 2.170814794973513 0.7509670400174357
Ni 2.912823165836743 9.075577239402739 6.025794667308522 2.5943410487679124 1.3580345783040224 -1.292822660383064
Ni 5.217490661203106 0.09234001017637775 4.175209614225924 0.19568229073009524 0.3813408786756013 0.9540916459581891
Ni 1.4973834085543822 4.887735183051891 6.446651879637581 -0.696138265103014 0.009580444599583501 -0.8268109837309437
Ni 4.777202466129197 6.109500834938575 7.850232195957793 1.012969908351636 0.6699459229783623 0.6391996429344411
Ni 8.952136600798902 8.825609485561813 10.487608052343898 -0.2177968632409475 0.6578139156015187 0.3253314531895171
Ni 2.316948908357773 2.077207987540451 12.29799520228957 0.40363697106964036 -2.5898488173245138 0.12249738190598902
Ni 4.598113114496013 0.692660636679845 1.4676868966609733 0.0864847112568059 -1.1806264032927667 0.6181232818801161
Ni 0.32881018709876275 5.17727433134001 12.75043305926278 -1.0089080795774366 0.444603386179673 2.179804142956317
Ni 2.6934529907988725 6.671635756802733 7.305707696293022 -1.3068876231165623 1.7097563485616105 0.2744439223110306
Ni 4.860859802934903 7.111822604882714 5.513484691668106 -1.062486527024525 2.03325331964555 2.0948276408139215
Ni 4.3054229960330535 1.7389209351731478 8.725698854939042 0.05959148641038769 0.3724219789194167 -0.28876213870591555
Ni 1.1404300825782285 8.59829739154525 4.085711926561062 -1.5492822303015317 -0.42730011901453513 -0.39920593188148024
Ni 2.383819497623832 2.624490968112671 6.863396246685794 -1.0809588747970997 -0.7605901649294966 0.4123167582318254
Ni 2.250308653168822 2.359072404379325 2.7203467976420286 0.8209380698899346 -1.2859436738750432 0.71997599095256
Ni 4.489330936559342 6.8956126133827675 3.412313668081624 -0.12153321822050682 -0.27941335050116395 -2.50106014052488
P 8.353691815019403 0.3119727660621517 3.748042169520409 1.742447411036728 1.78667938427191 1.0264910827665226
Ni 8.89805415949389 2.991707980564767 12.008654141307764 -0.3309868517030816 0.4692091005434952 -0.23872975673887273
P 3.6113987816167272 1.6562033614020433 4.738600317478476 0.2946239968033313 0.4701110435324743 0.2932816238428239
Ni 1.8318100617893518 5.8728187506652505 9.494285895460532 1.4501847153767218 -0.7090760562106047 -1.1533020044462008
P 3.7562328493023776 7.8724778611249056 1.1641425151483658 -0.4277204943814053 -0.9896330333979085 0.9808917968701688
P 7.544574268953641 7.183355155869443 10.384235039874037 0.1248558548358366 -1.2548762630462773 -0.6149942493328312
P 7.590843778363141 6.284167772291282 1.0686736468685498 2.3370605256100463 2.120266135491684 -1.2354749757015302
Ni 1.3986622231057981 2.283919001700454 10.175113809931172 -0.5326243315753472 -0.7044066757593933 -1.9318950337110214
Ni 6.6091138749124765 5.548609717090801 9.00433306668055 1.7861353388429821 1.3060718120834862 0.9521242378191731
Ni 5.9518141257502855 7.67720984391564 1.7294514405950747 0.48712480448165135 0.5135241204107865 0.7957919096416101
Ni 3.820661897351089 3.1334555716171666 10.912240900864914 1.7523723834599239 0.679078995627882 -1.5129967656069363
Ni -0.14436142215942388 6.462602975145479 2.74215206405371 -0.9112616952768564 -0.775429029714542 1.4590737903362354
Ni 3.1844607496520116 3.918848707740782 4.050692854813836 0.3243305227288285 0.24026264844363138 1.7071014274372664
Ni 3.8995835655314504 5.013101414540355 1.6010770460595785 -0.6796068431068941 0.0560968429935679 0.37876360486672833
Ni 7.4861615469989955 1.1700234048050928 11.690078157923073 -1.020941870813519 0.10950405497011462 -0.7048386210904894
Ni 5.9244320106636605 3.4553981178728708 8.854855464000398 -0.4174494514727004 -1.7159089984265674 0.6312207384940225
Ni 6.465468331064705 2.3241537582897185 4.982309433776219 0.025873268222336085 -0.4531006250174067 0.0011012034839787486
Ni 7.463082072472751 0.9316460617242518 8.907054693890972 -2.996650816385697 -1.1004342099128919 0.3384502499596622
Ni 0.6083307243689828 7.706793952779419 0.17936483118940616 1.0509222192256933 -0.6130898332212666 -1.649231808813992
Ni 9.270485935451717 2.146391130940677 2.7415716221793973 -1.1417322973307305 -1.0425645912896173 0.5222594434012554
Ni 6.459534925238398 0.1067773501295211 0.1850356561678106 1.1733553235526502 0.43811366469027124 -0.43641108017686775
Ni 1.050820913220046 8.232950691799273 6.383381872664878 -1.6836557948198165 0.2764946341924722 2.0877303676475076
Ni 7.259881349647879 4.6549319246370695 13.162767910738838 -0.6309047499155005 -0.6894688235026384 -0.2045687945864477
Ni 5.316313193645618 4.7805561302918935 4.843902608178197 1.8229789900338926 -1.2228562584962552 -2.890342642645061
Ni 7.1184101594880085 7.461976468902632 7.241088852964772 0.3598515984535738 -1.3245197343760284 -0.48296655933890376
Ni 9.037037741620992 5.138237311951709 10.183367140582115 -2.092660457959273 -0.8285295090839472 0.8104952772900558
Ni 3.432502910608314 7.56202437863536 10.672267803297869 0.019225680998831405 -1.519068939942945 -1.4222571357285183
Ni 6.704840717358654 1.056312077618306 2.620668343768983 0.6348663056664099 -1.4510059257264365 -0.37562865878217244
Ni 0.18320311825033755 0.9926477387055933 7.950046086268179 1.7985720219444379 0.40489166941234783 -1.1944982761788525
Ni 2.11023789419777 0.42762166350557307 1.06087177100874 -0.19178398411695358 -0.9568661233795328 0.05374222671846229
Ni 2.495706578919922 6.598656707811763 4.4426385337842715 -0.5647947456603046 -0.597772486137906 2.4462905009831677
Ni 4.822956027205975 1.5470618623050836 12.588563483234207 0.8182170714143456 0.06947429274173841 -0.0494076038988504
P 2.1959682376974508 0.8343022740567749 8.673594522688237 -1.8289328936244822 3.1020408491874383 0.07755012777133742
Ni 7.196124877104323 7.8869244144411335 3.944931738632517 -1.226108961105598 -1.6858738855170579 0.007508135451587068
P 3.613656055572388 5.351664867800188 10.531837723166529 1.2486153697382303 -0.11224716493289057 0.7561398424676269
Ni 0.9140752569861282 6.8235180472478945 11.295854014261883 -0.009158526570816485 2.1593566737352425 0.5568600641942603
P 0.7585232840244784 3.914343373192545 8.411627284766281 0.07152063374780586 -0.003398741268903824 0.17407911063802278
P 5.629374057888029 1.2656304735311734 10.517557931722125 0.875536473961105 0.7241357787572045 -0.8290051631687853
P 2.42208259451305 4.2401647453067515 0.14084928815167772 -0.18159624495067436 0.9649350164305962 0.1160498265084324
Ni 7.909266819920631 2.0848090120850227 0.7793436419224448 -0.6807792661484405 0.6655220828790538 -0.6769480653278083
