# total energy = -340891.3531659411 ev
CRYSTAL
PRIMVEC
9.12298688021063 0.00000000000000 0.00000000000000
0.00000000000000 9.12298688021063 0.00000000000000
0.00000000000000 0.00000000000000 13.35241346483518
PRIMCOORD
 96 1
Ni 6.270977067646796 1.9991840078339496 11.679423151553468 1.9926448020955683 0.6747142909012831 -0.638055759137985
Ni 4.689589373638277 0.3637663354648817 5.998758994685339 0.01275575700377158 -1.0506771930944228 0.10757135672377603
Ni 3.007684608581445 1.8999897699043504 4.922607795948037 -0.40097150842233525 0.10482927520226464 0.09256074224755673
Ni 3.363681808295306 4.435286110299036 5.035608762442215 -0.24561259990163506 0.5959894260955543 -0.44184870625267136
Ni 4.820367392650583 4.283187670607849 2.47956948644737 0.27757321196863166 0.8171775744062378 0.23767868976653908
Ni 7.306554693886341 6.415904839535843 2.777796283120176 1.4305571709537814 -1.1670995724509254 0.02696572995556646
Ni 5.296797144089694 4.499274741296756 11.426208260566384 -0.2592759563213406 0.3350437953812746 0.9002542884227593
Ni 5.275604445229171 7.991681896523604 12.669130399028182 0.5568086421310346 -0.8977479770611377 0.3355482458215189
Ni 1.914595672132373 6.5400869389286225 0.4123024510386012 0.6869843665178879 0.11846949169351854 0.411124280585621
Ni 2.611473282058638 1.5950448055858757 0.2684338579432289 2.039852827239938 -0.8746684695338549 0.36770760416288284
Ni 0.7421330993655704 0.4767381084005765 4.738064365198926 -0.2874411059016469 -0.5949396446748011 0.25432195475017494
Ni 8.597192791388254 2.2686040606746483 1.2943839959746335 -0.2754286548218031 0.4755275865623552 0.48484500730853924
Ni 7.018733576214959 0.7446984833171756 4.6480022372819745 -0.5440194607861664 -0.4772054884854105 0.36762095798634753
Ni 0.8976243779315864 7.652124319429914 2.5432342514056803 -0.1827234165765821 0.6389366190810415 -0.2380759252049577
Ni 7.845714104113635 4.269840740589363 3.9609801902394906 -0.42912303115588674 -0.7376299565888974 -1.2228739991080682
Ni 7.811283951078933 3.8820134391431034 12.936405637619155 -0.7451429771364909 0.40819425142301957 -0.9759789329495837
Ni 8.07276700520734 9.04911819967654 6.768338600517495 0.6163913867906741 -1.2228703995636423 0.06347410929424553
Ni 6.761045684689212 0.5264675106772475 0.2781908925671327 0.004406870818444024 0.5747418295706875 -0.4658561249108622
Ni 2.040356048280586 6.312386305756099 9.332122380198392 -0.3824467101452704 0.8145951583910424 -0.24195880519913165
Ni 0.16081819069027728 4.789705033257465 1.398064918923434 -0.6110432351048831 0.7177252472451704 1.0991525149869907
Ni 6.578668051059983 1.7722679515456283 6.807007293324301 -1.1739857580477975 1.0440301200915503 1.3946208620684883
Ni 3.303661676653732 4.128562163510565 0.3187443944934321 -1.3266833176862507 0.6015579213222673 0.7704377471475377
Ni 6.028077538089583 5.778572965925819 4.73220193373626 -0.2232200911390478 -0.10194783988941152 0.8122456843222592
Ni 5.353414401570711 2.8112758209068076 9.427551561382517 0.5153848277686092 -0.4293338616151122 -0.23691687189985003
P 0.2872801245407609 5.64056954118922 12.660091343483193 -0.8514650348341981 -0.6109157083880833 -0.8614774247648775
P 3.9661456254933984 5.969471469436981 12.829680373899906 0.5637542202109324 0.7789637823406778 -0.6012640442309322
P 2.531190996233155 8.601635686069733 1.376861272478481 -0.34678756618076406 -0.16198489847765005 0.19602887543623657
P 6.432645520727862 7.834976348384477 5.907574739364236 -0.44742722878171337 -0.6099307187669947 -0.3463952158383518
P 4.532473291082998 1.2256368149443488 12.564621108857454 -0.29675235600024374 -1.0546390059556483 2.2520300303012637
P 3.9844919524019264 6.172467053744118 8.17637676885734 0.9349621242175897 -0.21943671283721564 0.42100297315191365
P 4.905466615625595 1.2280270375450622 3.9088122135308705 0.25999432254460386 -0.8566321808574343 -0.5050903878211366
P 0.33007423208055325 5.867923500854771 3.5961920802277394 -1.633814702927973 -0.9378705561136363 0.1382217346197813
Ni 1.3932078406309922 1.105313739063407 2.4867136975871356 -0.38988259759802535 0.04496216653298708 -0.490827193033903
Ni 1.8913776701521623 6.86951800042387 4.646559893033224 0.3357711604656024 0.4239900808046956 1.6195309393154493
Ni 5.917214999754212 5.5104848691908614 9.232205601696363 -0.414207547496635 0.3858359383324775 0.5177790390323986
Ni 8.851742375377187 2.296046005647722 10.066397850838792 -0.552962271801751 0.004211209867870167 1.0235016611208954
Ni 2.23531428101815 5.534660784808763 6.995916985663877 0.05837226929130592 -0.7859798086471947 0.06483756530067543
Ni 0.6546673735561123 0.0802722505397543 9.304616574316137 -1.0538859298397074 -0.7505950013899977 -1.0517472862301498
Ni 1.5242960412021693 0.9957010499505465 11.312471981317941 -0.7049134401924828 1.0292329071777178 1.1626209678542814
Ni 4.266209791753165 6.739880354789767 1.6288609815937525 -0.8456571699031694 -0.07906707863649608 0.3071696946788258
Ni 5.854868506421105 7.8669797868703615 8.125851842112034 -0.8243139283407029 0.26012750568835846 -0.16586340759644982
Ni 5.277894314972603 3.257088827887927 4.631271591375685 1.0083432082129022 -0.9695138940505303 0.21973830323803448
Ni 0.9957831568337772 7.571413253214227 7.155318376469075 -0.510741672569643 1.4784308547066087 -0.1684543082520776
Ni 5.065109765586972 4.4207805609282955 6.976048944519475 -0.015625108131766634 0.45972738630530496 0.34664589839657717
Ni 8.148560781416217 7.173413821234399 9.307327013761451 -0.32164423414591703 0.43515123962783764 0.115789116647878
Ni 4.776102659602261 0.3806639320337406 10.633314861390248 -1.3061564013774922 -0.8747900827133838 -1.1744999786800545
Ni 8.41694993672302 7.323039931441642 5.024994167037902 -0.13735167331000214 0.02572131602550409 -0.3246732507802279
Ni 7.108047619195809 5.9137847566325785 7.181969358467027 0.6879292469296604 0.20891884402502728 -1.1004938595062337
Ni 2.281576948225084 5.351836124815278 2.8277209173191955 0.07239712281548821 -0.6826412590578438 -1.4772869709101526
Ni 2.282699075629236 5.172012927553222 11.543508890845738 -0.7112455530580977 -0.35327883033206253 0.17745034110310084
Ni 1.0591696706878058 3.222667797840251 3.762443009691775 -0.48680290236585844 0.03601575597297668 1.4965257645351067
Ni 3.593663188224237 2.124597710475189 2.382484483118095 0.8453658639149957 0.28272647403479695 0.5730173906804132
Ni 1.0729180121354196 3.4935475286050495 8.219238386501123 -0.6409253673762961 0.4823093853708791 0.3366093400961816
Ni 3.798492492923524 2.4453710572831193 7.310126343306872 -0.3110767430427159 0.8214756875609593 -0.6788493961155793
Ni 3.9834519318810053 6.862137503920141 5.898428944871049 0.9026734393872131 0.8083998282136077 0.5804504499196907
Ni 0.8860920100324964 7.482518867636557 11.4495348260922 -0.2616866226453622 -0.8030958995021911 0.09066635343832127
P 0.1007451457239549 5.817071971173948 7.893025914828515 -0.12675255763791718 -1.2483590307530503 0.9950074103359443
P 8.568026601867336 1.5119070248213733 8.015854162946694 0.031997893062835216 1.1757369364109493 0.4808777951306751
P 1.7012181285900765 3.2598439699696646 10.373637246394212 -0.08599260211173577 0.49560301715599164 0.5953893306177102
P 4.044895249498576 6.138164622527776 3.7648998300977756 0.591616236728523 0.5686241467087239 0.2002413708556874
P 7.126211486363824 3.7130374734545137 10.528672375608947 -0.3287350795544274 1.4988410429318446 0.22707237500560248
P 6.255677818404826 7.767749056992661 10.680595653949242 0.5126872263317881 -0.23499240118362755 -1.241546892927223
P 2.4317230686927873 8.745505191463806 5.94225121304863 0.7063242044970803 -0.28360013488900193 -0.7783132932408725
P 6.990379332539323 4.010893876854079 1.8183581942977782 -0.5396616980381028 0.031130402856217355 -0.7643879414090319
Ni 5.216140815796161 3.0470138056489056 0.40927453164479694 1.67738487420944 -1.1246421746176631 0.007686055790348052
Ni 1.551236221888834 1.2941139555586751 7.052384626157673 -0.4651395584598118 -0.2132768638834069 0.3594512776913616
Ni 6.939418327014193 0.5102103477975873 9.57607105326355 0.4279485512318114 0.3800231883054423 -0.81738994752736
Ni 2.7225547720826238 1.5797546793309316 9.393329412452 0.8059020014924185 -0.3904230434825276 -1.1706785480514355
Ni 6.510127049536477 1.744862498520657 2.34894290901969 -1.902634594184007 1.8072700639390682 1.1366821365013329
Ni 4.0983468304817015 6.820947217499453 10.695590195424556 0.4369818650786732 0.16386257511633714 -0.2073093334460623
Ni 8.513352540622778 7.349943620180204 0.5190313639526621 -0.4532098969017614 -0.5766164208855812 -0.1611631739073031
Ni 7.5929982405168515 3.818462711522613 8.42610759109934 0.3397645978957116 -0.4051770618632506 -1.0163359966103913
Ni 2.9512863027890437 8.526754208563418 12.498900934922272 0.14839610404962186 -0.07886987502402545 -0.1170273599303533
Ni 9.162763249054725 5.037813788406308 10.182070027934072 -0.14183207767885897 -0.7065118950278542 0.421869434917267
Ni 8.666582230705142 2.5312274881812575 5.902581728565114 0.7974412723195751 -0.16672138472137094 -0.24969962548681515
Ni 3.5448552076371533 2.806896787134508 11.483062715710068 -0.10141022221838664 0.032442951020053803 0.2548338613895869
Ni 1.035185337797443 3.0452621921399863 13.11367257391663 -0.18896245550775845 1.385354349164898 -1.8725053788987946
Ni 3.2535582319090106 8.427733307387307 8.075219264119827 0.2009787632423442 -0.060417838966424976 0.30271911510663996
Ni 5.597207983856434 7.9956139039316465 3.678870062446151 -0.5136321067435605 0.16037435945742057 0.3786646173950188
Ni 3.061592338915851 8.813681273506287 3.6884975506542905 0.6993418596419763 0.1413335407758856 -0.15653441688604008
Ni 3.4671820961009994 4.198170554516069 9.420501317009114 0.026196198779393595 0.9183581971123216 -0.7240275353141145
Ni 7.248833554975224 6.173105662835912 11.729281187947201 0.7810708013813517 -0.6389386759635706 -0.11413306910169375
Ni 0.660979568279141 9.374142858438411 0.07028987813631761 -0.3650161733736488 -0.9012945567618156 0.9276987577869572
Ni 4.710937163278235 -0.08047204395561544 1.5993116266177598 -0.753267148905522 1.7662851368862742 -0.19846730967440016
Ni 6.033423608486598 5.674114764482436 0.5584353695137331 0.762406392202629 -0.5427105121667557 -0.6739306186577232
Ni 8.042049907892068 8.692108348402835 11.707770096839484 -0.5458721977241889 0.4849799902245067 -0.5161152781767305
Ni 9.303713398600603 4.947578323735871 5.676004135095442 0.5433926258354449 0.2137391482318061 1.1092983451717409
Ni 8.042943960620578 9.168601960751124 2.258520423115227 1.302152679534738 -2.074696160171369 0.24582934389813146
P 8.49067279487708 1.7275105771979218 3.4678353019720336 0.9058726630508012 0.9262784804006629 0.9734911335307235
P 1.8466932797006608 3.3923736024908906 1.8491491878079584 0.6218197568950968 -0.7489980892165229 -1.6284009881115695
P 4.8625520846570645 0.9671187315992696 8.340345126967565 0.9308786981768356 -1.163131588942113 0.1590605257420035
P 8.404451444497916 1.631363416934881 12.47303726670463 0.023233773716959987 0.2873349193410858 -0.42980977281026617
P 6.491434049120976 7.768643109721172 1.4477623907455153 -0.7280001468086172 0.15912480332103565 -1.008624744009063
P 2.0046213081012207 3.431565954752967 6.3211799529500965 -0.751247804482648 -0.829548437266765 -1.2362193100667225
P 6.935915099996355 3.8730090509488133 5.967821121084046 -0.04339173672207366 0.9899299958130371 0.35860975562667274
P 2.408194885153706 8.381625730959808 10.226346620865527 1.1104910799282617 0.21905824645187433 -0.00912098846466171
