# total energy = -340861.991143005 ev
CRYSTAL
PRIMVEC
9.31997015804686 0.00000000000000 0.00000000000000
0.00000000000000 9.31997015804686 0.00000000000000
0.00000000000000 0.00000000000000 13.64071840332336
PRIMCOORD
 96 1
Ni 7.928601055131149 2.048874259480442 2.7857893806761616 -0.30890236109921637 0.5717925171343765 -0.36974546052851803
Ni 3.7610273204330253 8.74928033929537 12.999318101137737 1.2611348423614797 -0.6487379214421796 -0.04859359263798728
Ni 0.7275010194316798 4.155802612504298 3.3696258575257776 0.05715382350317254 -0.48297812930312944 0.012363663771675481
Ni 8.066611171873946 9.304405716358529 8.070967325882968 -1.107878582006079 0.4110875138104146 0.5728484692027167
Ni 1.6874831001869035 2.5588816614523062 9.79118495693398 -0.6797521104355068 -0.11390784046476511 -0.7169158639699975
Ni 4.563206464015503 2.6774596406067235 6.048349286073501 1.0668422328900593 -1.632458446010395 -1.2731259532850847
Ni 4.781657242401135 5.947026299499959 7.96109140277952 0.6503016663848736 0.6658552978487565 1.0425046845859596
Ni 5.566398721989435 0.9352869560703648 10.844043335391595 -1.090656818811154 -0.6955122014832409 0.6640843219912628
Ni 7.835727553419778 0.3915067785689978 5.85111821553498 1.2259402967382176 1.2063510617523805 1.3597962981901357
Ni 8.33721650275098 5.435527702317476 6.832690006948948 0.4025871896488873 -0.6190475934665984 -0.5703614411148048
Ni 3.628599865759983 8.719857193795843 1.8339948936242432 -1.3175474168232535 -0.791128956948302 1.2895308770056695
Ni 2.831835624786066 0.9986441125815437 11.200871437340638 -0.023616868087991585 -1.0037057094408908 -0.32428115754813186
Ni 1.0240410310124004 6.601316158069288 11.568434280812127 -1.173984986716849 1.1157227606408464 -1.365569710338803
Ni 8.865929084646048 7.011273681378677 8.698549878230109 2.2975956347462048 1.5318948880630199 -0.26336966677473994
Ni 4.133975242608861 2.0904040460961837 8.23636137867477 -0.32448658869071856 -0.2415949941018097 0.7387219041014955
Ni 5.429050323121349 0.06007279905979038 6.455565806186371 1.9027176408161166 1.6001430217071408 0.7645707468437993
Ni 0.9821384455940037 6.326367721141326 2.6167810434926193 0.13432291378600736 1.035476059873952 -0.48582176939951166
Ni 0.1519061921117543 1.9660570054706838 11.851314944263576 0.19977137319780433 0.11521678908417576 0.7660445031758485
Ni 1.9136880936677543 7.964044901293551 3.9091020728504953 -0.12019110237031556 0.38385747444986795 0.6366231404565165
Ni 0.2561146414178434 5.0069302388753485 0.6406938862365089 0.1715936252120077 1.9527525938863206 -1.0980058029770574
Ni 8.011446269051106 3.8092115656761547 12.386140494525176 -0.10121558970907729 -0.9673186861714244 1.0812368110488346
Ni 8.48782721902351 8.099249707046372 0.7446805202550185 -0.3788965309001668 -0.2840955864681817 -0.6252907461628329
Ni 3.799099398154144 3.247366490195144 10.332489750385719 0.8985069667143495 0.12306713836652997 1.1266466066422016
Ni 9.26255905076053 7.576203666951656 5.474061118556881 -0.05593717748725205 -0.5427539638101814 0.22377442098062106
P 2.8088805385125983 7.899177909631621 11.32901170578315 0.4296351949056149 0.16689390574349322 0.4034096855501827
P 5.121631110482157 4.639928457601855 6.21235093533739 2.5474058176689547 0.2536226146903051 0.33029856738680535
P 8.342500925778612 4.655921526235746 4.614054356703601 0.8597504147714419 -0.7247682701348808 0.6127702450983188
P 3.2024908343255754 4.693676724974608 8.883367680637232 -0.4970824299149955 -0.14532235022030454 1.3060489292653505
P 1.9502316962979886 0.0831481129471143 9.074664726234497 1.18041300173038 1.5367092787325276 0.5205877121257874
P 8.55644083865212 2.3521367654700347 7.934410192473517 1.7726265057232697 0.17876546037009858 -0.37833268797689684
P 5.181232319056588 2.4815631897817063 3.460105058927098 0.10386973950247273 1.7230947175417293 0.49734571087871127
P 5.635683379462825 0.6145849220925818 8.683721805854514 0.892545606924592 0.25284202777053877 -0.21441509125290817
Ni 0.8346788112009143 4.4193993258914235 11.947359099791527 1.1615115368401865 -0.7286688907408677 -0.15044450193821832
Ni 4.048175598177865 4.327606940707752 13.270113559404123 -1.039633019465119 -0.6341962761825788 -0.8307949080793563
Ni 5.868608071361528 3.340034952565055 11.534932716411555 -0.9649267889004801 0.47169458596951025 -1.2531968184613258
Ni 5.669803789875803 0.5283528310505059 3.0365189433896567 1.8737541637042312 -0.3205546006261641 -1.2227014780859458
Ni 5.739750165223906 5.4799746395639914 10.623282136426509 2.663542804574555 0.995476379552563 0.45862335460784887
Ni 6.665036793413055 3.024078647345067 7.204359229231678 0.37256647491708095 -0.6298917352699539 -1.8355344581014001
Ni 7.24368577492373 1.914741250285254 9.601306410780818 -0.1427864711723283 -0.14062468763431912 0.016078393619101343
Ni 6.462942562493903 8.465729569996148 12.553157154105534 0.2320628862416584 0.2148141264635397 0.8808437451066313
Ni 6.0445411463043826 2.980983105758175 0.36231010834208255 0.6615268456767317 2.237577088100727 1.7677912891181553
Ni 7.919476804436173 6.099081611132776 12.239379857887064 0.3939585674396119 1.1758266679112783 -0.5897421596342618
Ni 4.559897874641941 8.533131593516131 4.367539284454118 1.762595603849829 -2.002196964560378 -2.1610124641711104
Ni 4.056861810279721 8.471265632215571 8.247942373479242 -0.6434103385816791 0.5085760323768919 1.278169172135947
Ni 2.6311300694068014 6.441609151011983 13.078938605414729 0.5341981038203703 -0.16684042679773844 1.7563197981434462
Ni 2.9864912080673993 4.656639163930856 6.696105845626304 1.8452961654738544 0.36430706312176614 -0.05276675017907041
Ni 0.9797059334066813 3.9683686944995444 7.186871237399142 -2.0104859440420473 -0.011416469367057758 0.6645100966747717
Ni 8.963304131899475 0.15767804957385684 3.710275423436611 0.7292355618776151 -0.1450755243168211 -0.4588377846115001
Ni 6.887131680094638 2.289609086294763 4.900373157112534 -0.8237192321794976 0.7361644277869644 -0.760553141043974
Ni 8.3836579135917 7.0159802662621935 3.3308175021694155 -2.15288957795366 -0.06819491180868255 -0.207526591663191
Ni 1.1256287047358264 9.095060548727739 12.598471780565228 1.0238423322897658 -0.12995923750067295 0.37000437061685953
Ni 3.653633305358251 5.628106243798866 11.158448797592538 -1.1642037389603692 -0.8023513080266828 0.6480542651115936
Ni 4.778693491920029 6.217957829329317 0.6909825807206247 0.4614471972098891 1.1175333314870237 -0.20505421886329844
Ni 1.9280222076298306 0.7098294241888369 2.9889954840242328 -0.850199280747897 1.3020498354082868 -1.6947084530895522
Ni 0.0006868817938914222 2.5663655974156008 5.455891836912493 -0.1579510947279086 -0.1447219976321443 -0.25374885585552426
Ni 7.186796677638611 5.679636358295823 1.0950983467924136 1.5340409878717451 2.053396113142012 -0.5326886091543793
P 5.4163938037712205 8.443091362704937 0.9074025376287944 1.8959561537225667 0.0885585630666991 -1.2798627577882862
P 7.076615991513993 8.582331715496494 4.419238090409276 -1.7180221881148283 -2.137783575550157 -1.7067224468312927
P 6.921596929400071 1.7731243051267718 12.450210628746433 1.2901492273159587 -1.774788289261279 -0.33587349037142156
P 6.210511173246288 5.050007140522108 13.016805160973265 -1.404771577349245 -0.1391892407393732 -1.0308326475646699
P 2.586711092070485 2.7837818591238657 5.533711722972665 -2.8603972612358803 0.8693743110144512 -0.06571971079531262
P 9.168949271413915 3.2634434385596314 1.4941356611750378 -1.409133968082999 -0.7429246293289334 1.1226503409986148
P 3.648824200804005 6.828732747658767 3.298544309823592 0.2555504278406373 -1.3220013388295488 -0.2154517600475386
P 4.022937119238137 2.9696966220078016 1.3909710485163822 0.8832346139363111 -0.28168312037194715 -0.15285311137971097
Ni 2.7992530094340387 6.878725067094773 9.51013100761554 -1.177177782622534 0.40223597695705565 -2.1550606174630498
Ni 5.977530561527187 4.011520155906835 8.953904010090536 -0.42084459319717843 0.14828477528273817 1.1794344398671948
Ni 0.06907589014390318 0.5022233629724326 10.042460669893364 0.7569713372299867 -0.10819176391659431 0.11251507388229653
Ni 5.880006394752698 7.107586252044539 2.57611801409305 0.3205970238283253 0.9971792211762828 1.1593155576301324
Ni 6.547493330936005 5.724316294793998 4.594125464710683 0.32592769201261934 -0.7866390394977485 -0.43053842344617466
Ni 6.631922939767246 4.119920727748776 2.3939601311428675 2.2345712113948677 -2.388001535434287 1.358455467891525
Ni 0.21271340481277456 1.2197883623163561 1.1174411110325209 -0.7756843402584577 -0.4945642914788322 -0.788783596644577
Ni 4.862004704343305 4.868407523778901 3.1643600407930386 -3.4856396706592814 0.7382303091770577 0.8418959030885242
Ni 6.795982372845545 0.8702438169741797 0.8777911287339256 0.8946186874035367 -1.0335497893855168 -0.301821542993035
Ni 4.537753625764248 1.781307238845044 12.92908187472057 -1.7106868307956795 -0.84171952541166 -0.7482169880761244
Ni 8.868249757192574 3.554869582564935 10.068814749250038 -1.269883020867755 -0.6231032515932108 0.009858380851318505
Ni 1.654266726870363 1.7484916242413573 7.305136997556337 -0.1252183803815779 -1.5610457985953632 0.05917265370541422
Ni 1.0036302965670514 8.415178052356161 7.414493798327088 1.0138263428146603 2.3260430914536196 0.6371026511960962
Ni 2.4778538416952913 1.0196233652009412 0.41953286055557715 0.2910097970895117 0.985764808691754 0.5589112902963342
Ni 2.787090448497427 5.425965413029381 1.7593391374016047 0.8302128103236412 -0.6698675043319431 -0.42962028250727946
Ni 3.109319093572081 0.707860114513813 4.860610436821375 -1.107302397787635 1.900615249761133 2.140091140637411
Ni 0.8892705358646728 5.159796387903938 9.33420725264275 2.1968523566878555 0.5762374402796075 -0.32301977433720497
Ni 2.8871682870701005 2.7818899052003925 3.3471460897256944 0.9581107944199111 0.8366408253371719 0.3446172980023226
Ni 2.0551372793650424 5.894126149403247 5.004042912148787 -0.8308692129607175 0.03714215626793603 -0.7235140860128055
Ni 4.4986470313657625 6.535768808592513 5.539822827345183 -0.9926587075981098 -1.2459745896812735 -0.5376474958215515
Ni 7.464820704688477 8.539944491634646 10.417948283912287 -0.6755049051233787 -0.44172400774934895 -0.8633129353117196
Ni 6.742467104724452 7.096644607186621 6.394045615775273 -0.1509666929902755 1.8277532714940843 -0.3929496665591232
Ni 5.049466582258258 7.684119600350147 10.591281087206625 -0.5553114887602179 0.7011233770224312 -0.38426062342555756
Ni 1.9634287739119676 3.2547292665475758 1.0647599802323682 -0.5215896710277403 0.0523574305557937 -0.7215991283782798
P 1.2635735816881595 6.438785200081873 7.110455870827973 -0.7705387915017762 -3.461971637618379 -0.8081257486166148
P 0.9522027017408252 8.586805301128352 1.7547965839912563 0.6268380360452946 -0.9435925461990782 0.4772695089541264
P 0.936601071849723 0.3538913793811311 5.576898600266206 -0.618371136224864 -0.03444892570648906 -0.6599044795819603
P 2.3395082060301045 2.8324507428104466 12.32784035377201 0.19501843189385124 -0.32298429311357923 -0.2609980812187699
P 8.795833589776885 8.12068563819902 12.030267689507934 -2.1063844924135853 -0.3617058780534932 0.004656524935404883
P 7.906885524876508 5.436767258336304 9.520948696871574 -1.7147918541029887 -2.5314060998065884 1.363568363638058
P 6.892425423092336 7.386374516639846 8.449757005296405 -2.5567510063292804 0.5905877954640086 0.845904252916969
P 3.665684026654067 8.334951750024853 6.200906944092894 -2.1848843856927016 -0.013804252872943967 1.254809414364084
