# total energy = -340875.669609471 ev
CRYSTAL
PRIMVEC
9.25664009990687 0.00000000000000 0.00000000000000
0.00000000000000 9.25664009990687 0.00000000000000
0.00000000000000 0.00000000000000 13.54802846173275
PRIMCOORD
 96 1
Ni 5.12944686086438 8.260690559849639 11.3420983590312 -1.2094448701863556 -2.3648204693321335 -1.404499297524465
Ni 5.970366344810093 6.864548536781822 0.5314394533154935 2.050693626609184 1.0251376540624215 -2.162908652752559
Ni 5.132159056459032 9.123029909344917 1.9802749010336596 1.5440785746134054 -1.4254625300396935 0.7493004509482901
Ni 2.5699580604962695 7.708568995212885 3.109042572998188 -1.1399487230677465 -0.6278068277164671 -1.1189065576854667
Ni 7.433748602688649 7.213153608776929 6.543481043880667 0.8806812513868382 -0.04117030359072264 0.8592019984671395
Ni 2.6358283125493016 0.5936459271556824 9.880943248797943 2.552919291288016 -0.6151914529453018 1.47191567929591
Ni 1.9768388361710845 2.367163585794496 12.107344808894066 0.4233925564300127 0.35417280290124165 0.20937650038773617
Ni 4.44016040093226 0.32461926576691463 8.01785926471788 0.750767779522436 -1.2743415708597408 2.4627057091163977
Ni 6.567234508438465 3.3114519714653627 11.099304090460459 -1.0821588086424718 -0.9813569094320453 -0.502018176653716
Ni 4.305244869218806 2.7877020092095175 2.355378957086132 1.6269753114086367 0.05294518473846365 0.25996166953445554
Ni 3.1415278263083213 4.826847290935542 3.0474664763593498 0.24572367155820263 0.24783094770919253 0.9333377012402895
Ni 0.8888744344496373 7.5382097879638685 10.204117553021085 -0.07493145920156773 0.45537322310166733 -1.6602921803932116
Ni 4.832160602441787 6.6452957557070444 3.242842679560941 0.48625371473060774 0.7739473029626929 -0.33093337275732687
Ni 8.328893485246876 6.457432241736234 11.433113348672322 -2.001086505105018 -0.37630357336201 0.5235514227398016
Ni 1.3345483388124948 8.0532214818192 5.24669054066743 -0.43594416784277823 0.7297798644168593 0.4129104259517663
Ni 7.38011562905244 0.26040224966338693 8.121027297349507 0.10096567848180031 -0.3022205782036666 -0.2118113350814739
Ni 1.0245527133200856 0.32027975281547266 11.629560545151392 -0.4857261243619119 -1.0620142153737968 0.8350889074690199
Ni 7.261686173632753 7.794229944130642 2.3092475647123987 -0.23532458771206569 0.6746273876144318 -0.1567503895515881
Ni 4.145688161147121 3.6730070831769104 13.44094526774447 0.4004169214704459 -0.8688238378276198 -0.12752954501325778
Ni 6.164459577672371 0.5565656776230749 12.30601359903428 2.025799434470666 2.3084333487916564 1.4864632380927818
Ni 5.727740547091989 0.02262785710281569 6.056063394624842 0.8898243513386869 -0.5626972397013277 0.1571136864282778
Ni 0.6767538946911701 1.3950127129567338 5.553757365183226 2.9630182159329164 -1.4078229625810592 -1.210017197750058
Ni 1.2162484763563752 6.287739512585563 12.277019950428251 1.4829094593032524 0.0012912080075977762 0.21219751477629908
Ni 7.077877068093537 5.53304563261315 2.769148925146857 1.702578085645616 -0.08314896201535357 0.5350511958492851
P 1.4488123061175293 1.1032989519675198 0.31947997909745945 0.0021676970752801373 0.6901072284175858 -0.5266753130807639
P 0.43954323152211516 5.3680552767119085 9.977053093235298 0.0006396904665279305 -0.6627216373157813 -0.4071547544149117
P 5.146914141025155 1.4536627856110356 0.45149910807519217 0.18997829836678248 1.0105332738856856 0.3518775791091617
P 5.41157074254964 4.376928291351842 3.674821384666848 -1.5681980933694282 0.15501412358677175 -0.7927868042666991
P 0.2472680028058761 7.541644001498393 2.574558610702897 1.7260622848104852 -1.0260578518838457 -1.1926735642652877
P 7.898978085253759 1.827649565184756 9.661519219878452 0.03497574474423654 0.36729031411980617 0.6979274957929528
P 8.291367065653988 4.2475852570717665 1.3762356181999076 -0.4679168640946329 0.014402291468259066 -0.4401237531417646
P 4.102422624596268 7.287012341369838 1.1744214217011153 -1.853153456734744 -0.1524918713855503 0.6570209873865781
Ni 3.1956236319572704 0.8133282163382813 6.2708813193535535 -2.193964236506783 1.7913942732490762 -1.2643479499821386
Ni 7.817093845559955 7.126566995833693 9.03998951528329 -0.5016638786380909 -0.07582825998422425 0.2220571811791982
Ni 3.6369524693845325 2.6724753513179853 8.20127218605419 0.2546618545880969 0.013115197225719346 -0.010716872196871865
Ni 0.5388058876302493 4.076318899077782 13.341434533677507 -0.4597109312450728 0.25772840932856256 -0.07483735682586466
Ni 5.366962993161843 6.678453041099676 7.6149269710674545 0.491291020044199 -0.6115978220567724 -0.8249032251852697
Ni 2.0289074376042358 8.697168917783396 7.962826687075148 1.7662056897985903 -1.6661704935508594 -2.005699321286681
Ni 9.27182114480029 2.2515944322135373 1.8440356697637719 0.5793762430189053 0.5263760366727902 0.10219029491752078
Ni 0.6173993917134796 0.8102883356786108 8.945628250190062 -3.2101027723943876 1.269779148300039 0.42803699718055965
Ni 0.6543833721874375 5.089448918323465 2.677429505182345 0.34550484281359856 0.8687708731024973 -0.6893526096397482
Ni 3.557456442876461 0.45638106014556445 12.66322086681816 -0.23891101951174337 0.07436838760924612 -0.7515871900999378
Ni 0.43558786914124664 5.864146397886464 6.305699246007892 -0.23974868492169032 0.6851707103479168 -0.8139158729358305
Ni 7.48455830104715 0.8249295635696002 1.4426751536286087 -2.6906075220018306 0.6147466520983994 -0.774367421219247
Ni 8.038605246856898 9.003545196936185 10.59789132680343 -0.4599305034550466 0.28015999885920134 1.0588810690614539
Ni 5.782984176132532 1.0013185462805816 9.879005833992618 -0.11881427662744698 0.3315080143138742 1.1743660242053515
Ni 3.8525488775586707 7.498396978228049 9.171893861921863 -2.3719596514800765 -0.42495707270365524 1.2269240008077256
Ni 3.8789117890042912 2.9546917994057926 4.858905813129931 0.747174662854539 -0.4254720646668608 -0.19965901598965613
Ni 0.3143295844596985 4.251676692064381 7.989908839468565 0.616231464174042 -1.0156577395964441 0.45893420098004833
Ni 3.2621881320294106 0.9000805231420769 1.5372002612543452 -2.0268849542253613 0.7702901658260798 0.5471623772905222
Ni 2.221371501781672 3.3184685047784876 1.4091438999696846 -0.3619241647118864 -0.7232253511277931 -0.518019694288295
Ni 5.502748649059248 5.660889091171951 9.90344614125732 -0.046566277795313346 0.3258924678993097 0.9522507360947083
Ni 8.392282957711625 7.061298425397222 4.3439589157563825 0.2680668151400932 -0.15069004229012115 0.6820612181846576
Ni 8.921790550205946 3.370981424943869 10.8612649579886 0.8700253143348888 0.18179679099725463 -0.11326120801970171
Ni 1.881125175936634 6.132477885592096 8.242038429736253 0.13516340740943172 -0.18328674527921981 -0.3928563355143686
Ni 5.042027150298215 4.310956216256007 6.804267444114627 0.4436381940529263 -0.30070337022819177 -0.002948283995046535
P 1.436362124974847 2.2756061570344426 7.414321691785937 -0.04598315159833371 0.2503578278961043 0.24984077905036975
P 5.8166042935379005 8.114657803190191 9.244117871845777 1.893587139269758 0.22017976165082723 0.5349038716381432
P 1.5715183293349255 4.866002879213272 4.672986193612625 -0.19941527540996623 0.5990572663876005 0.25018119310892395
P 5.127530736331641 1.9301205728051976 6.781790470247964 0.3114374688162443 2.06242171367939 -1.4866043916563365
P 3.987418126070851 7.967634586023481 6.498501177554628 -1.4194721167842135 -0.18593986663135076 0.5370535709912945
P 4.056213476444395 2.3144933027447836 10.431142209253778 -0.2858123120489723 -0.4382131663826131 0.33815380176516596
P 2.7395397099638843 7.881066486360757 11.21340514089701 1.1493358207096014 0.3034032856578581 0.9267109399523911
P 6.431763578309723 8.280610849677931 4.293113116500889 -0.004734686471507975 -0.699963295276059 -0.5935419929963262
Ni 6.4454911758075655 2.789905089590156 8.308721414803655 0.029505722768600796 -0.42208155092807315 -0.20461198911955733
Ni 6.9749247151798475 3.0491928397668664 2.6475148208709647 -0.15108959172138495 0.2609255761096216 -0.1895990606504928
Ni 3.1503771743918936 6.436854730449854 5.2018337876567795 0.22927761018703738 -0.6172357370688403 0.07269408523061675
Ni 6.10639267335412 5.808310343869616 5.2008442528135435 0.2031868266372565 0.25411318117347853 -0.16766832201567253
Ni 8.633011144177498 1.9475230564841886 12.947484883730324 0.31117418785252865 -0.5363655437853343 -0.4581124764097013
Ni 9.270525215164621 8.836509123538637 0.6382370145910203 -2.153301468680098 -0.45362538717262524 -0.5043920762025313
Ni 8.852726757265016 0.1904655555464291 3.2583281130431665 0.25014468344403373 1.0814288724549825 1.2165048623569308
Ni 8.815996408734039 6.35782153595452 0.6887301358528076 0.09127493355659765 0.04367944316582154 0.03156183396668112
Ni 7.525676297058894 4.722645291587456 9.018664993128347 0.25414866239710426 0.3114852913350442 0.600733625648759
Ni 2.1561492145464753 8.169503396699778 0.7104128899856101 0.7201575108357469 -0.6325463992839816 -0.648289006830219
Ni 1.8461628456943209 2.7404376040685983 9.700293434577686 -0.5652223201160266 1.7247247969459842 0.12539244406559696
Ni 2.6051332934644433 4.157166395063052 6.468330084308191 -0.982585639632824 0.4526810209814849 0.9887848264650004
Ni 4.008819478339908 6.214806444018132 12.426645209170582 0.2937498217284941 -0.1790246275687562 0.09507836646308787
Ni 8.52996622486126 4.4485932002043675 4.549645164873751 0.25078488813119393 -0.39010114136673457 0.6098888097854658
Ni 5.935959412983065 1.327096743407395 3.8646158337948053 0.058830954095279324 -1.2844179812591363 0.17695540374455332
Ni 6.607047318174284 3.168140667040821 0.15333161750034383 0.32858441290917606 -0.2664094820423283 -0.5084531336457824
Ni 6.485507631628989 3.2615216539310663 5.191902338327424 -0.570485882507811 -0.1769857427618565 0.6217076567972648
Ni 1.472361198925696 2.8102882114311867 3.8906954920486294 -0.4827994376334201 1.185591717717842 -1.0290927820554276
Ni 2.852230048425606 5.394159002230394 10.291082762550742 -0.4737481260644293 0.06771154441436081 1.0879862139575263
Ni 8.358635070385493 2.5001074531336815 6.540473561461888 -1.3114562163238512 1.2858901949292887 1.5969731086195915
Ni 2.499792727365019 5.758953938031116 0.9221122526124846 -0.40578332798868183 -0.4434312202484427 -0.5219036027237334
Ni 8.118054990163696 9.338283821829629 5.831057611631717 0.3531903843833143 -0.3595759761946839 -0.9207048429676273
Ni 5.476959649309423 4.934668636623249 1.3401356468702816 -1.8815723741970691 -1.5939093820926034 0.5284087508321029
Ni 4.005061282396467 8.967407273381514 4.406333860449209 1.7831438603148257 -2.3995951538091576 -0.6464252141486029
P 2.489610423084758 4.391590809515417 12.365191300183106 -0.012801779750358597 2.009768606260048 0.16749477255228576
P 3.8812907455497703 4.913665319885148 8.45318424527589 -0.5289461113928117 0.918212929783709 0.15344472221712283
P 7.424936281166096 8.050139020614358 12.811138275433478 0.9039785313518818 0.5916671445711165 0.03024414359652211
P 9.282558847495837 8.181777701677618 7.8681395882449525 -0.9410762075351277 -0.5509799512643996 -1.3068308017366976
P 7.527731271195455 4.760440153747733 6.822827933489491 -0.004890752433398028 0.04825240724848464 -0.6173020715304014
P 6.35021257766509 5.17348069855638 12.107914092269734 -0.6556135655160903 0.5289178292580375 0.3234383499318623
P 8.166587555019522 2.161147800284058 4.27899581444832 0.8562699124220092 -0.8136911585195342 0.1664727590456746
P 2.7755295272744784 1.1979110720116513 3.899108852376201 -0.3185116020542063 0.8036808254713836 -0.6133898809601889
