# total energy = -340884.452851927 ev
CRYSTAL
PRIMVEC
9.11543211516273 0.00000000000000 0.00000000000000

0.00000000000000 9.11543211516273 0.00000000000000

0.00000000000000 0.00000000000000 13.34135630253568

PRIMCOORD
 96 1
Ni -0.006570403358656025 3.044918892793367 3.1235185279774442 0.6942716442079204 0.3061317403326147 -0.6344263899155138
Ni 3.204931185465187 5.445841632859639 6.1797824873914875 -0.38903516199606547 0.8209892348428441 0.8240912708069354
Ni 2.1452166426508743 8.29404950389968 2.1069199783463217 0.593729426416784 0.8841198447547418 -1.492337951706004
Ni 5.212641536959948 2.7732243277155346 8.41826184908151 -0.9420858797465647 -1.6144728080662518 -0.6298256579187088
Ni 7.411666574486165 8.265363239513317 7.460259119192496 0.21774852650151533 -0.8747430315255321 -0.7340003302561101
Ni 2.0434337293562668 8.164026982384877 6.179088803019132 0.4723576734748058 1.0629737510735886 0.5813981585449406
Ni 1.6188186776735325 4.326831205128488 9.587031596810206 -1.3729991700336548 0.5908719023633308 0.5032654187972558
Ni 2.5037265817406933 3.4879835787684423 3.2053277067555603 0.5689884720266782 -0.9575677774322476 -1.1372529214031382
Ni 6.904602440701538 4.088727006832908 8.871014416146457 2.8866124861786675 1.0187317505360778 -2.435334516192296
Ni 8.852187402970863 5.989540687702033 13.154016801312277 -0.4959514016343459 0.31530569352239896 -0.3999260978769564
Ni 4.370275353862332 7.62591568733557 2.5624609560486347 0.7941967972403483 -0.009789475286596043 0.3912887339169326
Ni 5.749440209806639 8.794659911854772 0.7453406137442999 -0.026835117914973138 0.6366403668476971 0.00890964378480401
Ni 3.653401322594096 1.4713765656781645 1.9413809992755657 0.041561625491870355 0.36567180467977667 0.12456172063418545
Ni 0.7949431483120892 8.75055945201962 12.792385738318458 -0.3154535319541728 -0.6040290085705791 0.8144522050552748
Ni 6.163955362874791 6.507124029971521 1.2339660517549398 -0.7381272079402901 -1.1404290051382746 0.18139929844851985
Ni 4.9955575247701685 7.661037446687542 7.782372961541968 0.11387878699904258 -0.39743392758272195 -2.78436948364634
Ni 5.922259684385939 8.87496686744545 5.5456282665544325 -0.27463829771002385 0.540365666083663 -1.1582704041950698
Ni 6.985848285784364 4.276523136126792 13.108789674086546 0.7470003420602038 2.0023149781954808 -1.2473719842494324
Ni 3.33558267178541 5.474227087991236 10.928545161032915 0.06061812790268915 0.6420057449246686 -0.30706016568415506
Ni 0.5888660202171725 2.7003737954702807 7.6027187360770965 -0.9719176183960165 1.2589869427805414 -0.9287174288594585
Ni 8.080119431168967 4.7539438851689795 6.732795690613285 -0.9218767517885413 -1.7241930928122307 0.1936925139935761
Ni 5.118798164904782 2.6563736053867166 3.853263549176899 -1.2657057495616137 -0.5566659459055833 -0.2422699086816473
Ni 0.18958548858814595 6.772756832794212 6.655922518242927 0.6073896975126959 0.9414808991727142 -0.6423880679647518
Ni 1.7564070077173088 1.9071397906511822 5.216470018384248 0.613058465762699 -0.31606776849940404 -0.008823511828900933
P 7.830666520079926 7.7357019498933575 0.8931008543151633 1.1506306282616248 0.6860425714299088 -0.7495534474993607
P 1.1961725592947239 5.210918720319014 3.2417493267054023 -1.7527025131058331 -0.8508397425453734 -1.2446694977166048
P 8.080247047216444 7.941865674591919 9.692294782028142 2.361375191096011 1.3963198470374663 -1.3388279234685845
P 4.105499401644128 7.40977056463794 9.659341583940078 -1.7484087708264855 -0.4852095897368095 0.8225126134659061
P 1.1174152271376927 4.916526729654259 7.390724781095243 0.6561498976355344 0.6842168310750797 0.5427295383301491
P 6.089400244852527 0.634985548232045 12.144062490038708 -1.6423625924979843 0.04744610929710538 -0.9324144180950716
P 3.5206806332183582 3.1849228123072373 9.734800952813032 1.0203011519057268 0.6704074359958131 1.1244979357303149
P 8.146853508567302 8.189914809158717 5.0651128283609355 -0.7520726143767887 -0.9584411811761364 1.1160765444358391
Ni 7.127009865157487 3.8828367450932246 4.176111183799362 -0.46525988608776003 -0.798108987810561 -0.08500195606369232
Ni 2.4701544458223665 6.568334155600511 8.318856240442752 -0.26888853971044013 0.19325876889026716 0.055231923890111334
Ni 1.7163537996735594 1.7759869555730152 9.51281374977056 0.11902150754224665 -0.18176748042121602 0.6997750905246529
Ni 6.794807062711788 2.047116363869165 10.687373619881912 0.8783505463711324 0.7771997484617195 -0.0030434148120141134
Ni 7.118131434425897 7.939167506730985 3.1406354861168513 -0.6791720695623207 -0.015031954632457984 -0.054978413118408544
Ni 8.615660174404816 6.041407495569337 8.808149839616252 -0.47637913592937314 -0.5550075843665538 -0.5625162340387732
Ni 5.7073086832754125 3.7781004318427285 1.621148582083178 -0.9997186997686848 1.6936051927230447 1.8813484311117212
Ni 5.48217574466264 2.715596566847855 12.986582723936495 -1.324722594415454 -2.467826061062098 -1.2071046520889535
Ni 3.997754995845967 1.4674022373424627 6.207733136418467 -0.4872065655621802 0.15563375944864163 0.4319831263125012
Ni 8.093382384674578 1.1452811026474201 8.589392234118137 -0.13646644249157144 0.9625382340636456 0.05581736407993613
Ni 0.4211566567961167 6.856564114258535 2.028713218279833 -0.31965959961572044 -0.40510404253347 0.37039852073148466
Ni 9.102169009113735 0.7195895184499002 6.262138592087361 -1.160424474423595 -0.26996171816996084 0.5171028389009804
Ni 0.13921361156271145 3.228895656094913 12.01563881529015 0.6135140652428788 -0.7136320510124032 -0.2412710351034877
Ni 4.35732232504345 1.2993410182476497 10.682103988664322 -0.010197252247975986 0.7877363863269853 0.17884902122284035
Ni 1.0462783961014113 4.151231523800589 0.9913642993290035 0.27418398378142456 1.117679884367217 0.09670073255785927
Ni 4.181977875810504 5.257772040606876 3.7566591127802553 0.6205745716340861 -0.31192906374068213 0.7553692828501893
Ni 4.451949624247401 5.634266726958944 13.177004097635612 -0.2509653795731162 -0.5023557624987929 -0.3278966428135321
Ni 6.700170648075875 1.7185050416167376 1.943275186037398 0.17375772274286205 -0.3911141560122813 -0.384787442463305
Ni 6.021307968091761 6.470881072488147 5.358302493549821 -0.43595702335858466 0.22850267969422583 -0.39583393008545376
Ni 1.0632148686879581 6.906607835733315 10.33753610276133 -0.5312055968509496 -0.6089858383552221 1.2190176014764555
Ni 0.7620090926311457 9.065406472008492 4.099825045247397 -0.3272214711233784 -1.96183990089957 0.6778322677049746
Ni 6.282756787643609 6.815572016722635 9.714775260334354 -0.3880118629378737 -2.1984184156233946 -1.3169288094026481
Ni 2.9021074202350094 3.4911557490914342 7.691705405982579 0.2746886913319849 -0.23276685428721847 -1.3656825817675835
Ni 2.267573085885114 6.671529960849325 4.281587670125223 -0.9323316285732782 1.1729262064350314 -0.8818163934325458
P 3.6706659507312973 7.824212794250391 0.4295036578442872 0.8387781833951489 -0.2145143358349338 1.3462558405015395
P 6.240889608639298 5.516322152794612 3.267351840458811 -0.30608906002013736 1.7631890144594535 -0.3749452595619026
P 1.5506170157292145 1.4117707560745965 2.8428698740827314 1.142327250602252 0.4652670851766116 -0.6375122279296891
P 1.3941962032506665 5.103046698473376 12.004112351573418 -0.1530839964435944 -1.1391843340978962 -1.0354868585072297
P 5.745547920358601 0.9178146134522168 7.468064663582087 0.3419086408219079 -1.3619567961765642 0.24518528255622937
P 3.4322609431809505 3.516496649947516 5.242859193916031 0.9014056284183831 -0.8286457229468374 -0.20223757535010975
P 1.5884460583740847 1.438296663085819 11.745529423830618 1.4488760238676273 -0.9093205123900856 0.27486275501600405
P 5.246031364239023 0.4776194654589734 3.3532966907183677 0.8745255161980875 0.18601108618891837 -0.2646624174442345
Ni 3.650912809668301 0.7641111112417256 12.976296870509875 -0.415739153649813 0.3003724692513343 -0.37063480511200686
Ni 1.2127991071945414 4.13317385308264 5.217337807507089 -0.8925011268399016 1.6386365497966486 0.9479595649185223
Ni 4.728174559010656 7.912276982441257 11.712816873146364 1.135555221985741 -0.1350921878518641 0.40501508236408956
Ni 6.1680755381218955 9.075652217534476 9.43687490917637 -0.8196946844011367 1.7171654965414878 0.7892597649500472
Ni 2.52964175481042 8.556783599358258 11.026604420370791 -0.011555308937767197 0.9280024050703051 -0.5496686886521436
Ni 7.5027479706566576 7.517314430932923 11.648844771632703 0.11321492816279857 0.8082057099249307 2.103326936534184
Ni 3.097451127193942 0.06008710441119421 4.036521104896595 1.6996681110876728 0.3577471505160613 1.2238165655269955
Ni 1.205670839399773 1.8274617998659266 0.4869636947638545 0.636414109769504 -0.05709083147572103 0.8353246776289097
Ni 8.02967463068783 4.848607646100783 10.920793397691902 -0.06275214352655643 1.113745325199501 -0.07479467651338731
Ni 8.980332145501366 0.5637721475672777 10.776053099730255 -0.45391875004332793 -0.2521069493767271 -0.40293454568597703
Ni 4.574451914393042 5.237225856963132 8.694001842864353 -1.0643582901259412 0.24575658167866707 -0.9168667001684596
Ni 7.781470533777669 1.2133095713844482 3.939195637831708 -0.700255115484865 -0.5838275939220396 1.274769402425779
Ni 5.367448917981113 4.253889518563608 6.160170635523911 -0.46356501488384033 0.5314143704276462 0.4926647604632741
Ni 6.377411433143449 2.29626846570344 5.85339988825392 1.1671800479798735 -1.5202351923369042 0.9078706673174365
Ni 0.8070156264033823 8.406461010862703 8.320069504436978 -0.3012523007531263 0.31763639853810455 1.114952972354357
Ni 7.8845296075470435 5.092454566532813 1.9493323905765585 1.2188396811376945 -1.0863368512795615 0.5839510068737814
Ni 3.63479672595839 0.19174584596328675 8.669720155202327 -0.8787683506348414 0.9981207591539457 -0.4468736702710885
Ni 2.048602179279072 6.835452773833108 12.909403273052192 0.38226133360734166 0.060680348599192274 0.2628647021138634
Ni 7.992520130008195 1.0142194218888791 13.001377981555022 -0.6615592415765638 -0.020494006188293737 0.4238885222298248
Ni -0.06956806519551459 0.2357086627758036 1.857823480647019 -1.056556020472703 -0.004929833201449575 -0.6010843241199584
Ni 8.343701261800067 5.806593968212263 4.767934250145209 0.7750983858480006 1.3544661442264738 -2.6419661068450435
Ni 2.862573791813129 5.807332318201234 1.8141040458679043 -0.126954132125762 -0.5019983791593742 -0.4276294773294958
Ni 3.0863303001995464 3.243352731187627 12.051687614072721 -0.848275581362623 -0.25672799308850625 -0.19196833221361778
Ni 5.573357410584721 4.16474059396919 10.475685943414003 -2.0479728852439116 -0.4199542201724251 3.6595082079483943
P 6.255255529412387 5.902488312459018 7.506847180410247 1.4127401973770186 -1.0955794529237517 -0.3077523066551732
P 8.271662002999488 2.8914059031108943 0.7343428450813997 0.29330270688874643 0.40078458922250976 1.3392056185229773
P 5.9487855913971615 5.974582263851374 11.576574892403467 0.03931216733606133 -1.7322822975782683 2.250255197789028
P 8.692731151648763 3.12556311936666 9.626815899611058 -0.06638356963155664 -0.857223020363898 0.41355962949999103
P 8.488436090502539 2.776369151742638 5.443593767337656 0.9699887768044196 -0.5169735124119678 0.38484117851937594
P 3.9213859068631423 7.441674576507109 5.401875169874337 1.4150611322007114 0.1519768794223447 0.016900118189448317
P 3.653465130617834 3.492249600926949 0.8305316177805478 -0.2551197680611219 0.4649086733959283 0.7361610853528547
P 1.9036941573693122 0.9708664274746615 7.428907502500262 1.029897280234594 -0.16598682054819155 -0.8789830377488088
