# total energy = -340890.37292685866 ev
CRYSTAL
PRIMVEC
9.08560228461463 0.00000000000000 0.00000000000000

0.00000000000000 9.08560228461463 0.00000000000000

0.00000000000000 0.00000000000000 13.29769733028609

PRIMCOORD
 96 1
Ni 6.438839111455158 1.7895365602659763 11.449609622216716 0.42278474764268476 2.5540688315114273 -0.11083691484892524
Ni 4.5430010049415825 0.11308939968363067 5.995333614986364 0.37295728259759636 -0.7169755135633394 -0.6847426216715626
Ni 3.0281040292886323 1.8249249810039587 5.029322401982325 -0.12141443325445539 -0.6761628504223517 -0.2005146791217321
Ni 3.481857176527739 4.3050399965851005 4.93927045534702 0.9359540558172139 1.4149618876186858 -0.5695939668211609
Ni 5.112086787058212 4.537595071606769 2.710469557739463 0.5925053242016957 2.1188792824464864 -0.427000071275613
Ni 7.318261809399068 6.120933888959135 2.3640782465297576 1.1109343381132673 0.6670668016583543 1.1305767949345433
Ni 4.861233309118367 4.447011617240226 11.611988414070707 1.2675769984423975 -0.50426532081668 -0.47373887009304866
Ni 5.4937820229050365 8.00538773586175 12.342816087324065 0.8090924834052582 -0.457723725611715 0.5211530977109541
Ni 1.7402744249023456 6.743960891594737 0.4327199780456716 1.4216686102149 0.4869756804982968 0.19080465092281979
Ni 2.8826253661675603 1.8140313439141407 0.22569544532791327 -0.4527188161979558 -0.4013983115471087 0.7084296808758573
Ni 0.7980674897759744 0.29676938599723685 4.606947290650972 -0.5837869704920914 -0.6421456129366424 0.19235014103306874
Ni 8.733844066929585 2.710425946848695 1.3301021859440814 -0.4004197496839233 -1.7245854431546428 1.0439301041785765
Ni 7.135186924194873 0.4826753448604723 4.888034018615902 -0.5744602937745268 0.4220540401242473 0.08414012228402928
Ni 0.9601846162853562 7.639119852624192 2.8484462390881724 1.3788232329145995 0.06177872386969361 -1.0796933778211146
Ni 8.042148082538482 3.9260886126157786 3.5331317727882787 -0.8487288668499576 -0.5805100995130325 -0.34508112501261856
Ni 7.688409244794553 4.055322218925679 12.763980996436601 -0.4690430072792761 -0.3747801947389481 -0.5828767999729961
Ni 7.761775482909881 8.52962698530503 7.1146534631248235 -0.09188017124076435 0.6184230725087221 0.5189409205509837
Ni 6.788171432111047 0.8855727421024587 0.35305014909388194 1.2936778092945076 -0.9233263397508744 -0.11853659748602811
Ni 1.6791283218043684 6.526297118649976 9.259146331835344 0.10970562945795943 0.3304772590565147 0.3629135252083492
Ni 0.22087280765712483 4.939796511716913 1.324758943264747 0.04995190643809462 1.2530366387343777 0.4658635811100299
Ni 6.347165384819408 2.1938367744943412 6.951624142150206 0.6558719613837994 -1.3833139216961015 0.5359703652294446
Ni 3.6934335959694327 4.378070067417425 0.4791156059015143 -0.1466996901838054 0.32274209519578606 0.393157154584239
Ni 6.22140247856648 5.728726611316715 4.494488431763032 0.4419937164709678 -0.7609835437131733 1.5662329992232575
Ni 5.323872175351504 2.839050817808288 9.279040166507457 -1.2435729222183165 0.32515944638802713 -0.3264270002465411
P 0.19145544471349465 5.695246167049843 12.392084582609266 0.04174520225758618 -2.1409840847653254 0.5943596038016151
P 4.1424349732352495 6.222420066017739 12.622213801831952 -0.5701835207760438 0.5147741907678037 0.8561956075406479
P 2.5968650044086323 8.82440935009164 1.3728672071434678 -0.6700533950905041 -0.6727365983496221 0.038862481393152425
P 6.431370746411096 7.525931419876107 5.708608362269189 -1.1574525362794648 0.7867593671256967 0.9526346017966885
P 4.809690687591647 1.0224845908682434 12.350981318060196 -1.2460810333521508 0.21243302782587284 3.0548392518009715
P 3.876499395571386 6.004211156938375 8.390607276818782 0.5286671466998122 0.7955725945419525 -0.5541210679965425
P 5.129667427399161 0.9731588562889092 3.899722194905477 -1.9602923539067918 0.38903696176827834 1.0986485787673788
P 0.3265392703079104 5.70662134105856 3.527174343397292 -0.4240142491744117 -0.785342432173512 -0.6278052850545704
Ni 1.6302841241439336 1.3179120334141323 2.6259362059067897 0.018108279564936554 0.4591640576026672 -0.643042413719299
Ni 1.8244071016760859 6.459672397399238 4.921198283924705 1.0756734580284442 -0.0327118884107243 -0.6342397278260044
Ni 5.8390258225514025 5.5517390796155865 9.165118525658334 -0.0358486342674931 0.6951417055176996 0.3027862208991495
Ni 8.439870320742637 2.3002110055598863 10.28267031560023 0.9926558793846324 1.0583349667499966 -0.370889087214658
Ni 2.3814090328090134 5.185498453184758 7.13459999428995 -1.6321424574318728 0.19915482265972798 -0.2980998711670737
Ni 0.1937568277617439 -0.1932761994030689 9.100996887825648 0.8389455622109487 0.5989968454633103 0.21759580297373493
Ni 1.0710925628703503 0.9856969873847798 11.21034482993831 1.8059274338682445 0.8205873714187352 0.7545912670335843
Ni 4.174252752291582 7.061366405967374 1.6552177423804533 -0.3565793554602052 -0.24326184028127137 -0.34789005521632343
Ni 5.404216155989753 7.861299169883915 8.237138735084878 1.555021446778154 -0.37918809399865666 -0.03711156014031673
Ni 5.4008635687619435 2.991988760371179 4.8691913881233475 0.7969141961715114 -0.22709551493405403 -0.10457190777581991
Ni 0.6369143456646155 7.234147303829816 6.783075317812732 -0.2399209488334965 -0.24528581268983563 1.3425272266970425
Ni 4.998380474982256 4.3818224211439425 7.137046746974093 0.3881509596188993 0.5652799128268393 -0.3942683853705468
Ni 8.118621596621049 6.904776051302643 9.444157358877606 0.14287440290044426 -0.39682689012634237 -0.4111857299511757
Ni 4.622363740537547 0.20802122328385753 10.409184601158685 0.1183368227703962 -1.1110664928157576 -1.6236663016400619
Ni 8.252379832848156 7.22959541710588 4.660191645477878 0.9439172765283486 0.1954632327407537 -0.07393952760194362
Ni 7.184394545945043 6.083855546203883 7.238175859864533 0.35241416833892214 -0.4365419493277772 -0.8631113608238749
Ni 2.3979720856987035 5.402190066689478 2.5031188519011676 0.6557099818846385 0.5659998217119995 0.6445549937090834
Ni 2.490154606060082 4.9981805917329005 11.62576491275235 -0.8032234262189909 0.7735318126918291 -0.44262106564232157
Ni 1.4405404068930925 3.580517731288651 3.839896229813463 -1.05856585181388 -0.38540065056727174 -0.32531216991580747
Ni 3.9850814279820734 2.772262555717169 2.9209193625029775 -1.9774696370170266 -2.4965020888405522 -0.5978408774819963
Ni 0.9939921422329898 3.213041462952723 8.29588805631105 0.12334944549363919 -0.3144019507612069 -0.02978802989570999
Ni 3.465839259772652 2.6633806984324497 7.4764176133303355 -0.20638245075641873 -0.32998643546302525 -1.8373170039231197
Ni 4.098497000786242 6.472364983733246 6.015359190891008 0.8095506539885994 1.3059702535086153 0.4168542410908627
Ni 0.8106319691183507 7.462868254704776 11.574474870967997 0.6435934011267626 1.3508308614667317 -1.5979884372579833
P 0.21467824404758531 5.345577679110949 8.110797075969046 -0.09545914684127431 0.6970607769172834 -0.1788528778775823
P 8.486379518626523 1.4282566726600368 7.809631167046236 -0.5045329726557698 0.9611506096874997 0.4045882792393161
P 1.7663591889431025 3.06031248924143 10.681282034264012 -1.9277535007388218 0.4362534715530809 -1.2262326311676557
P 4.244884224131653 6.306589085200454 3.8648689161396295 -1.5480758686982565 -0.19974411950429471 -1.4269144319948714
P 6.670494711854731 4.080707391593695 10.380196078640944 1.529913853077249 -0.8402568248232045 1.81977410994335
P 6.538780736132387 8.102594594263719 10.23221887490294 -0.28241897009670713 -0.8823858927827706 0.7262520537692589
P 2.2243189700208963 8.50328782440146 5.877436114595534 1.7917917657978109 -0.9290357314308257 -0.21570655637082206
P 6.817172674471929 4.1063833035335 1.5207244809318576 0.8344214490883501 -0.8174619384158761 -0.11527258202277568
Ni 5.170052929371005 2.4754995296415028 0.7201075711663897 0.23617510863781904 2.258272154556233 -0.7391296810628755
Ni 1.3626495388605575 1.0628337504311138 6.912528795696922 0.25634772693095204 0.7039287076817102 0.7599170501218718
Ni 6.745614471203034 1.0085200202201616 9.305449286548304 0.7817097205169312 -1.6017497040726283 -2.1770885437973666
Ni 2.852606536355418 1.3074272484252667 9.206926832941491 -1.0175084196519377 -0.17828774940273165 -0.59224204323798
Ni 6.526633285932982 1.8251793778667735 2.6189284808964675 1.3514224723041435 1.2090301512464405 0.05209646358492318
Ni 3.9324394485839043 6.628128548593828 10.4769095888411 0.05350157146256592 1.5054734606466975 0.09072677436261148
Ni 8.440915165000625 7.296837959309168 0.21505257086001273 -1.1395010940073664 0.20990409075643202 0.5800017924180463
Ni 7.658953722321499 3.873410290808635 8.408772121383981 -0.24913809655639024 -0.5819180356041527 -0.8233577350750206
Ni 3.05854079680397 8.751433792872776 12.282750262332828 -0.4587966469609195 -0.9035792390309341 0.7019443302618298
Ni -0.17815048878828244 4.741866666844782 10.395660682219408 0.8318097224971158 -0.08118463920013116 0.38074592540407975
Ni 8.623490342081437 2.386079032362113 5.64519176717059 0.307911972161489 0.26504216938115643 0.27885773510801004
Ni 3.6323147496781854 2.3569505915698223 11.151461950359156 1.0982477437845346 0.6600307207471794 0.7391517925500624
Ni 1.1891690496253746 3.5440753806904355 12.863114911074392 -0.6386879934053452 -0.6028776685749553 -0.30793382653836
Ni 3.1405928706639754 8.140327100380494 7.896478621770299 -1.3797349460955914 0.2913738652971498 0.09473023909504975
Ni 5.777879719453425 8.039931195591096 3.4824277523486233 0.16072762903178128 -0.8826787414328411 -0.024198451623074452
Ni 3.3168262973789036 8.548724921220627 3.704937785530006 -0.37968097447467514 -0.14822615413066084 0.24756766674547684
Ni 3.1799698707868034 4.14794084819474 9.266965401126 -0.028077732072822614 -0.04636753152094596 1.1399572077081788
Ni 7.008279232059278 6.053909401209688 11.545685323139386 0.020829020930209288 0.5735853473687412 -0.6525225852955923
Ni 0.5362122560796152 0.24249654099637985 0.45635980652273356 0.6376778069732759 0.5082361325389698 -0.10836197094587144
Ni 4.74631861194404 0.365450179035653 1.6392870474069032 -0.5616477153908908 -0.4880470591856046 0.0879695233324485
Ni 6.0388636438946435 5.906804415287051 0.4810472049384578 -0.7749325496940976 -0.09680203402241394 -1.2501135515503115
Ni 8.112279846255166 9.137026752082013 11.521470376040318 -1.1883242861576566 -1.6060868979954017 -0.060411411208521774
Ni 8.931455915723197 4.847868388218348 5.6437026369628995 0.8123675546121041 0.608535381081365 0.8134744145230377
Ni 8.078072553808825 8.743738287772631 2.5988620197817283 0.05424410605554529 0.9118229670969651 0.013287461137525504
P 8.553576632818594 1.6068614415604883 3.5077729483667683 0.2426360337718144 1.322036820053175 -0.38773289824487417
P 2.150180455714879 3.3919278855227195 1.690708830423786 -0.5208201398515675 -0.6184117596548123 -0.5258301914716492
P 4.856190799873288 0.8842171702477457 7.975732330139342 -0.9620785208184076 0.9752703369183331 1.2095808815435878
P 8.453307926460603 1.9449548722413108 12.591642567403412 0.4592725581560736 -0.6281798947851697 -0.2568673468798479
P 6.644355434200514 8.032008550434865 1.2490822364989247 -1.818518126049062 -1.4767236422075147 -0.07594987316375307
P 1.8519819044847574 3.466148170248927 5.962939808747802 -1.0945702949329472 -1.7720801463014964 1.0888503617300342
P 6.927208403241559 4.0913648030251855 6.119002289922191 0.05296883888754749 0.2004105494437 -0.8090580306228968
P 2.3236609449500616 8.57330147528898 10.196155393918275 -0.3678369306518955 -1.4344837597016973 -0.5307574535699375
