# total energy = -381166.44130469486 ev
CRYSTAL
PRIMVEC
9.26207357544551 0.00000000000000 0.00000000000000
0.00000000000000 9.26207357544551 0.00000000000000
0.00000000000000 0.00000000000000 13.55598090240457
PRIMCOORD
 96 1
Ni 6.94842592669553 0.8285758168816605 4.4421996553849645 0.8217207136922299 -0.31921274188628895 0.5351334711504461
Ni 2.5918337625666026 1.870948072143801 5.477375279679657 -1.0618200970851195 0.4681505773719938 1.5510511492764965
Ni 1.5675688606395501 5.319782954602492 8.20462148035077 -0.7182816339692727 0.9138549099253294 0.9372452638248117
Ni 5.253105288792108 3.470906403173532 0.6497529673468544 0.24892263811147453 -0.5339713325215448 0.4614309992599731
Ni 9.269853458767045 5.175081583168178 2.121158351770777 0.8610601347218009 1.3429298614521001 -0.2282833645945681
Ni 6.624383029620649 1.0224773217768366 9.407904661559622 0.5967640994780496 1.1090535761507867 0.6703123051788455
Ni 7.156285376079698 2.0984616411070256 7.240438721824938 0.04493259884663229 -1.353844708592391 0.008409049999301647
Ni 4.302816566449377 5.080034186787271 2.5686415309803823 0.12887114664281676 1.503566730542288 -0.8385542403098011
Ni 8.840852746861874 2.28386056269703 9.152252913858803 -1.5531543116624282 0.006127967274608801 -1.3054624606342613
Ni 4.468098264794465 2.437962938548281 10.306896317042481 0.6759162816291843 -2.6176355005194787 -1.0201345444208751
Ni 5.2021268372543465 3.9352511868570645 11.88275195467891 1.1895141927006998 1.1673510263400992 0.12413568884036041
Ni 1.3526980217542772 2.9587600591000296 3.841236511651023 0.260524484016461 0.10034912794372394 -1.041386511821116
Ni 3.2234608524317347 1.2446837227293168 3.0580254036695815 -0.7808759117617261 0.14095970237623465 -0.9683065040059904
Ni 8.015222269295077 7.001756944855856 3.1913353511310936 -1.1650537456654904 -0.17312317448265668 -0.48787428105316616
Ni 0.6058164701521447 1.895816739000431 7.212703443276641 0.7213024230734675 0.4163603321735797 -0.025349277398066025
Ni 1.1772743531268761 5.220261976809386 10.764125976003754 -0.4869679671888129 1.3866327016566893 -0.037721168699857616
Ni 1.134955940140678 0.5413468826205773 4.197880054387716 -2.4696924248468757 0.49741153111964015 -0.8615812973325936
Ni 8.077704215892776 4.970093376512337 9.176924298553777 0.16736338918074403 -0.47566102681642597 0.5988338375228848
Ni 5.289514499001945 0.18473946196982108 2.5016341353599074 0.2544895906762908 -1.1352366623040577 0.5273250308496208
Ni 6.665923428448205 3.488550652842761 5.105372440761082 -2.0174492627337575 -0.4224260787516854 0.17831654575813807
Ni 2.969809712567426 3.0380156204751443 1.2506698007142105 -0.8326311899571467 0.741096060760627 0.44582363174001927
Ni 4.435866249650677 5.6348045922664385 0.23329125029848186 1.0070203756364204 0.7529071944629421 1.3761942799321847
Ni 8.690093979478124 6.246786824625831 7.306917253059001 -0.14022051021736495 1.2525288458600234 -0.6428328688116541
Ni 8.576892919395544 7.641284583260543 0.8691399931815846 1.5346557386376085 -1.479787111624187 -0.393243029429826
P 1.0152251183694843 6.030915681822301 12.779371593185239 -2.5623452125876063 -1.5903162654247063 0.4493457859606648
Ni 0.8710711354682168 0.4709699447273122 13.170380206550668 0.8926667058834884 -0.379072908577031 -1.5576856238738785
P 6.845496505921703 2.8209589322870166 10.919965916809309 0.8766649311385935 0.20216249913780018 -1.077894634049479
Ni 3.7864930273098265 5.849619858711808 7.080315998317518 -0.8538759582685359 0.15114744154251386 0.35391080748910664
P 8.436442839613816 8.581199783488032 12.485410057829897 -1.2912663716395374 -0.3922919783704663 -0.7230314899494322
P 2.384002099402387 9.179677912950975 1.166148750658279 -0.021723507720020654 -0.3361969351491113 0.6205825420538861
P 8.670977060151465 1.4771802871371844 2.9513402121656362 -2.256761631448978 1.2060692688459034 5.413555150897264
Ni 8.398171952667225 3.9575635214781526 6.882615190947635 0.12869014098026224 2.1062816482871343 2.94697736041997
Ni 8.346693349170335 5.281595426315756 4.986797525739873 -0.04739108768945387 1.0590692738128598 0.03125098759448166
Ni 6.11804400551702 5.738558337565496 7.211009410066928 2.83452759255797 -0.3504842983060609 -0.06458122631549523
Ni 6.591224807145143 4.775654671364765 2.8037157303924216 0.44107917507649846 1.2216784361380701 -0.5470176241825419
Ni 8.030532476488375 6.625855699278081 11.06439127845877 2.3275029638285982 -0.6588698676698589 -0.6534217000710939
Ni 6.020514373487107 3.699929690087457 8.72277150034847 0.5302488893646352 -0.08609621756913559 1.3352026680111715
Ni 2.239245155528171 7.596965562437835 12.944361536220837 0.5849457666868829 2.9569342145223656 0.38432258701174454
Ni 1.2074316638476164 3.246458580478294 12.93757058406468 -1.9071957311921284 -1.2679865751759904 1.0329388952743952
Ni 4.346394621406712 8.908743744276808 11.84246378816384 -1.3587724849113114 -0.04903042306508976 2.4784588581855957
Ni 4.688063244004187 1.6746291661128407 4.820208022642398 1.7509770457742941 -0.9746039069789278 1.1195045962807817
Ni 0.07775140066840439 7.652704719660627 5.102552139436001 -0.2473825473178643 0.7644856433291608 0.2680812133177964
Ni 2.969429967561422 8.754057857806574 4.752997787616277 0.9900958319669398 -0.928030430094763 0.8634869989957387
Ni 3.664650452822316 3.7176572984165404 4.219583870791865 -0.031745153622080816 -1.52755280904424 0.7986041822794246
Ni 0.6672342045257011 1.540329103013722 1.576466008268034 3.5748122131608953 1.079321853414309 -2.503432240301482
Ni 4.675624279539214 9.098884847405207 9.798669682396808 -0.08780420139917781 0.09817963109623092 -1.9949063444362354
Ni 3.442916417609012 4.332946090950166 10.326037317759765 0.26667250589572783 2.498151194408201 0.08668191486927652
Ni 1.673462144874876 6.947842416076548 6.564252723438181 0.6597877514984378 -1.8255524071880236 -0.6627740878202716
Ni 2.842845211535514 8.215459032339204 8.308989301110756 0.9312137129187511 -1.110635833036242 0.22467456419738724
Ni 2.6963933082442546 1.319252675005938 8.887301118340202 -0.26098625414422794 -0.5318784545482581 0.1659107158946175
Ni 2.6457760775658623 5.727351228851707 4.668448951340394 0.6948182607400099 2.1288014266562048 -1.2073095690109077
Ni 4.736420528793188 7.55115534781106 5.83396510239111 -1.738349843928587 0.06271640519261457 -1.9242822543607696
Ni 6.597087699554919 8.20006546648605 11.294666797685176 -1.0129665659175264 2.434700482152723 0.04196631712945676
Ni 5.952567803632271 -0.011961041481807044 6.70695719186531 1.4726800682657606 1.131513962036832 -0.4314285393606118
Ni 5.67783618489806 6.159612190564526 10.110659843464042 0.06827461600668243 -0.28165740934033423 -1.5478071884179023
Ni 4.304530050013056 8.010739425809561 0.5684338160366721 -0.9629820064692836 -0.9374609793800437 -0.4832681497397225
P 6.648038364872729 6.4343901196653235 1.1234237326534564 -0.02805664902690007 -0.6025925332343687 -0.6067353517581486
Ni 1.361367322379158 4.365261464753809 5.775105552667759 -0.7630591952952794 -0.840273794104069 1.3223764627807806
P 5.458074971301315 7.422903418588059 3.5267780080447606 0.2816350407428311 -0.30309578171976836 1.3212120101590341
Ni 7.584535860046177 -0.03705940775670307 2.1898060605757244 -0.034367935956908555 -0.09944435674126745 0.3424963950045779
P 5.062667799317558 3.993620772901937 6.8479657746680624 -0.3735157262042277 -1.3586066487574087 -1.4295991779158863
P 1.9576318163192943 1.2870484460821008 11.144303520832073 0.015443588248579856 0.24838604888171417 -0.40120522169969614
P 3.560767038496818 6.382392840062671 9.452842388879919 -0.07924628452683771 0.38517722170255597 -0.6589207755124523
Ni 3.4229010771705846 7.837270054652086 2.6992265764719803 0.5760898589581497 -0.6184636959386703 0.11197745621127167
Ni 2.033201072514171 7.916997981766376 10.601508976152019 -0.19942221738850172 0.25288162275922255 -0.7287771341839577
Ni 2.723697900383303 4.791594699543633 12.759106176767249 0.15510694041089418 -0.14444174738756416 0.19716067504783466
Ni 6.126555850895509 6.096870905913945 12.315865953344243 0.7424728865034955 0.19527914175440564 1.8571808327265824
Ni 1.710232575944083 3.327168287364206 9.469529866375483 -1.824505711091064 -1.7638513306338006 0.30137031438822937
Ni 2.0393047788301932 6.206274515936482 1.2392848601927322 0.5196142924689244 -0.3559862019608966 0.05590066782236179
Ni 8.379833047499208 4.819964430114157 12.585426556545473 0.13719483601716373 0.46712316454874386 0.9807339311360658
Ni 5.433076635418244 5.407142830130139 4.847049511115588 -0.7911806361218439 0.9475456173095554 -0.12427581396265049
Ni 1.5324285544741667 9.09986662717683 6.647269612787403 -0.8980369690564662 1.626406326279044 -1.1893900084180098
Ni 1.1871940336495765 7.547469042630821 2.96425895202844 -1.0252939771346277 0.3424033210701393 0.2692199549079299
Ni 7.8869888642187105 3.607095929229356 1.131687354467045 -0.628832183657188 -0.05390137800414588 0.2630945587364824
Ni 5.305260023641153 7.591649132353772 8.005931483550613 -1.3649019948478172 0.21861678803908155 2.569888315042187
Ni 4.113675767239232 1.126907198428048 0.6432417298048764 0.9449752854792177 -0.029293863868110837 -0.6975647131368954
Ni 5.76817844803384 2.4178920256699503 2.91854876779349 0.221826810335947 1.273068360574272 -0.8753932635150216
Ni 3.0796115917426024 3.733069388416329 7.71512831519643 0.8233243107339239 -2.099096186282288 -0.835055226017607
Ni 8.204261185698732 2.068220971726431 13.091634059207998 0.6573670578720873 -0.6424569735294742 -1.2002331217801008
Ni 0.5910138245766267 9.133395332585023 8.736083878327253 -1.0863011129456195 -0.5716197390019382 0.9227912931830107
Ni 5.9399158114810025 1.3919321643258542 12.19733271765296 -0.3781395981294842 -0.31622743400571984 0.299606023398955
Ni 3.352185147393911 2.6267703031190077 12.492771553702392 0.522346860908739 -2.0342077131390193 -1.2296223735754952
Ni 8.60663343681701 2.5148196229342457 5.411547872199789 2.159789904617919 -3.4469602518112117 -1.9262332074395538
Ni 7.3547438210469265 8.097923321944183 8.93031418682519 1.0874920479299273 -0.7242993009182623 -0.22945295942263708
Ni 6.962958119730186 7.354243669087799 5.370649335053116 0.7689123116419467 0.3270209250767981 0.17567422303928454
Ni 6.441345936726527 8.59270327854797 0.2790366304120369 0.3563592690295992 0.28112030588994164 -1.3456066369533148
Ni 3.739951108890994 6.45667466806646 11.665870319676479 1.3229287357398247 0.7236997196610504 -1.4356875502018114
Ni 9.122716162050313 3.2440597034891443 11.086541526796806 -0.8546902266397151 0.054028390500313404 0.1541422625047797
P 6.531864179255333 1.6742216348868848 0.7827739381208707 -0.8500640407216133 -0.4595556366141311 1.127581202641329
Ni 8.9461532584049 0.8219682537771837 10.956133386905567 0.16654346438260995 -0.6961853162908656 0.31840567260396135
P 0.21793751136059156 6.826435159034944 9.346238703621164 -0.1931088735759642 0.7008346421374188 -0.19965130268017228
Ni 4.868840391008919 1.6803531274228585 7.851081658382665 -0.268206426041751 1.5549085753493737 0.545202425350674
P 3.661214223621642 0.37940694032832806 6.783398935366665 -0.16742381010503424 -0.8226229137915251 -0.9050601944518349
P 2.2289086817061974 4.546446142984496 2.560182479419801 -1.1400068299991915 0.03140036868815237 1.3194718875394758
P 8.155237031630895 9.223181871321772 6.452552119232983 0.3561643794099737 0.2548498022291869 -0.2082714402490155
Ni 8.446103182083636 3.590813204337752 3.474099966053296 -0.5382475912993956 -1.0634450342830524 -1.0288490414757379
