# total energy = -381172.63206405117 ev
CRYSTAL
PRIMVEC
9.24300934949393 0.00000000000000 0.00000000000000
0.00000000000000 9.24300934949393 0.00000000000000
0.00000000000000 0.00000000000000 13.52807848068850
PRIMCOORD
 96 1
Ni 1.0308543277235942 5.468487735660539 5.707361291981735 -0.2963594914371993 0.6220727534461674 -0.445365204046362
Ni 0.9721889484640212 4.5730065203736405 12.018994476355429 -0.3573820538671587 -1.1971398275667575 -0.9424898000532026
Ni 0.7931721952855816 5.9078356909693905 0.4439750057038953 2.0632514086695366 0.5923654561897218 -0.31147886357714094
Ni 6.632644741764717 7.0966807745908715 7.68953570204484 -0.7132525561857974 -0.08081645722743501 -2.803391533274798
Ni 7.224326731353862 0.39137766197038343 0.19973218535057696 1.0302688046414 0.7106814530245115 0.5287640772889926
Ni 0.6192695990859225 1.6907312390359357 8.35480590921317 -0.7400696763786416 1.286476663560378 -0.37929479477985
Ni 1.47085853668416 0.3757782353788628 6.297536671074691 -1.7969457991949245 0.1033074392410995 -2.239660710102633
Ni 6.095441048277024 0.6589951282366581 6.667489037767984 0.41723630702062986 0.2730005049962847 -1.7876564034731988
Ni 7.84059512535934 -0.004903416369497944 7.925600307876516 1.3492087524822765 -0.1977959946389884 0.4322952582362813
Ni 4.39911778868775 1.6328053005106886 3.146400738736126 0.7283788703042745 0.6625784268696976 1.2210366887890134
Ni 5.459679147912884 8.913061480407118 8.623067613219227 -0.7437561240912933 1.1824035497978473 -0.17035229660573886
Ni 2.6417352104615226 7.372094719099693 4.882162069890667 0.4692849480867531 -0.0935686146867808 -0.35098334942966647
Ni 1.8251615645363657 6.802300175246592 9.415068719241821 0.20056815806748682 -0.9250065556667747 1.3551228039738663
Ni 3.497351327159082 0.6614602387847167 1.1881749654559972 0.2397044619473162 0.18315407635609748 -0.23581206887144548
Ni 1.1635192384708213 0.19678274112153493 1.669026804881638 -0.9884487832818202 0.08306900070703759 -2.102267127811102
Ni 2.0162885083412263 0.17378428568216683 3.726106561331947 1.6264466925986762 -0.2847303918387032 1.4324932116342297
Ni 1.5923948643797836 2.7803895911567893 13.304270026140335 -1.1030981298983003 -0.20267260600499934 1.6550533005917756
Ni 0.4672729346406654 1.742390417337772 3.401202772775617 -1.719329336962026 -0.35863958042334365 0.3403564658434396
Ni 7.712875224522915 5.951749227579165 5.302141299464772 0.3794359483434046 0.00011878496605140831 -0.24745428109606413
Ni 3.154666761844971 3.2545652050523857 11.652098772797654 -0.016672575559674514 1.5531262866379705 0.42128168073459704
Ni 6.192206111372735 7.291283089847062 9.83726719531982 0.8927654362448818 -1.5205095290442137 3.23705153306909
Ni 3.2898365280797264 5.146562968962625 0.8093659473673164 -0.8500578700740263 1.1891372689772552 0.7709794785836206
Ni 8.795203870364764 8.731223760827225 4.342283449546552 0.9182895486579153 -0.5546450588208125 -0.898534220407859
Ni 6.5746541021752165 7.278370606023898 0.3255249187731637 0.17861042284947304 -0.6683073589336748 -0.07160599437276055
P 2.6937086510754478 0.6244835805638373 9.556694727388157 0.676911555662918 -0.16441047720000718 -0.1575309764713545
Ni 7.56694659560372 2.5733276995272076 2.8709156230566246 0.08251569930672886 -0.11132902399399534 -1.1054761432121736
P 0.17811371118164435 8.22444805355704 13.227984698482697 0.492312776440494 0.45376448385365076 0.0986686549175075
Ni 4.732319026584134 6.772741031891918 1.840278506048739 -0.14592013170530352 0.1357907565807855 0.4213670413595518
P 4.01605975927945 8.628700303012954 2.99030017821536 -0.8351904660438906 -0.2781779354321661 0.6211972928197494
P 5.945362308236425 2.8377609491312916 12.725660424433151 -0.39614426223702104 0.4226006566563367 0.14713214973553368
P 9.104521172542425 7.544245765059919 6.246333173125383 0.24752627198458016 -0.20473797317446027 0.03413859355492185
Ni 9.191886095303019 1.2088099834482764 12.452095081760145 0.5323605363909993 -0.49225852616379084 0.4647536358753029
Ni 5.6040919233267115 5.099423622149355 13.008329206846629 0.22212917206771424 -1.3780393035607235 -0.30412550853586334
Ni 3.551977511407401 8.190036330383352 10.853496309619366 0.3250082655221435 -0.8128920596570065 -0.04820741294316214
Ni 4.29090063721917 6.789101158138877 8.575435614016712 -0.505551129507639 0.052850825252444465 -1.3424608922354817
Ni 8.08463829671439 5.154197694544538 13.061535664885042 -1.0639289158980063 1.4489966086058914 -1.6053664748896093
Ni 5.433197926614841 4.9833036978326675 6.867907978700567 2.0368932303909824 0.826759304557402 -2.5271804917610154
Ni 7.003363353918955 1.3003619893669893 11.58748921433502 -1.2250177849239483 0.6717829761871011 -1.057391886110437
Ni 1.2277026942103004 9.087273717414275 10.981242090881494 -0.23477874251092468 -0.41308654651831433 0.12486562502784945
Ni 3.8141739527901493 3.0733744961150284 0.49523858321286696 1.2522408823059594 -1.2473082208910324 -0.9374954321624047
Ni 2.318830684790626 6.856223890797301 7.0934475699800315 0.1200795164931158 0.5721882099108984 0.261430283660182
Ni 6.452110286479074 4.777452640405545 8.929302371835666 0.42146088662493864 0.05004935124790735 1.0910741088542306
Ni 8.234643092681557 5.0953936701472795 1.7680656482353994 -0.5077555933581256 -0.8119489790174469 1.7410636433153241
Ni 4.9538092555422475 6.091318666183159 4.448261944191961 0.4683081859957806 -0.13106275497749686 -0.0991741337990163
Ni 8.946290098405884 7.416877098572299 1.772083584325542 0.03684313697027848 2.407037726130132 -1.4137514122503523
Ni 3.280602761909833 4.5486142191500685 5.858266357042943 0.05351314142679171 1.101354407734316 -0.8021355924714508
Ni 6.6536078865828525 3.8152646278732796 4.572084992358487 -0.7149456276175041 0.27118299217157166 0.8665484115298819
Ni 2.5268723353931897 2.610780372720809 6.925374539669614 0.49969595627844265 -0.7786542215200589 1.032588196803196
Ni 1.468076390921259 4.676204717857985 7.877332389642481 0.3831493926392498 -0.3437971160938724 0.11045973401516461
Ni 6.910859318054799 2.301028649111733 8.884471004414412 1.0491023924081353 -0.47330435365879137 0.7801053521442888
Ni 4.776056946019504 1.9465037890392292 8.002723976466696 -1.1002907423564923 1.066125409328693 1.0023980463730608
Ni 3.327011910997956 0.12060093516670174 7.373506126601338 1.3678304813485216 -0.867392504697732 1.629873201781722
Ni 0.2596000801043472 6.732644858073102 11.588896000332076 0.5181335941583399 0.03271703061704688 0.12906783603465513
Ni 7.138801167419904 6.9592649571256 2.9476325992429264 -1.5304969792742287 -0.44925965400476175 0.6842263441567765
Ni 1.199724105425248 8.732591726185728 8.425206212926495 0.3535793922916169 -0.4788273403595496 -0.8067196122977074
Ni 0.19118147755901704 4.039795806851308 3.9794463513193086 -0.6331778622203934 -0.4886813503354939 -6.273491713537582e-05
P 0.5643541086502992 2.7486583406450333 6.184158223280517 0.7248482314431969 0.6208964737498791 -0.6413992216889212
Ni 5.726885300270689 4.344269772219134 2.1863811361572716 -0.18471447886468187 0.09560827082462889 0.03538557858814551
P 7.430362648964566 5.791872897808748 11.019877869250015 -0.058754849441705254 0.5458997085280147 -0.5346416191156921
Ni 6.656362303318216 7.9933635810710495 5.113356534185889 -0.4760078686328835 -1.0131108048048745 1.0731028690877906
P 6.498787482833389 2.949897136491799 6.813186591457704 -0.039121134371177785 0.24333588805231643 -0.4512306616882035
P 4.506253508082379 6.88871306806174 13.038564938473211 -0.1775750396064232 1.6347526413612106 0.3933700419259935
P 8.416018661802497 0.7860005444635392 10.039187200943084 0.6113502248223406 1.3256808445636652 -0.4257006357378992
Ni 5.8292608699380954 8.988216388042156 1.9168337295744067 -0.05363295483410763 -0.506942867648843 0.9096640117724335
Ni 4.953430292165906 0.05133105147597895 12.85446083304261 0.4834023613247417 -0.8948999660893814 -0.42593409190494386
Ni 0.29487232743260566 6.3955800423398665 3.6381602532939903 -0.08752497959586217 0.31155342556881827 0.8673989324556353
Ni 8.764369191743379 7.974646487483428 9.77758046354596 -1.0265592170002964 -0.0898518279568259 0.5966730824261401
Ni 3.959400113011736 4.274965689394449 8.209283972697854 -0.5392089267714004 0.835771021137709 0.8326867257854305
Ni 2.2748432041074205 7.340807133028534 2.375435797304184 -0.15808144965818582 0.9805853213733434 -0.9282484596428402
Ni 5.2421726559109505 3.24027551286154 10.623207660223695 1.2151421776814493 -0.05551525945848503 0.07590385041716605
Ni 8.479943313284961 6.213104555126617 8.552477827817732 1.177717457176088 -1.3261037910336968 -0.7854380772111118
Ni 8.379139055177996 1.2809978851368322 5.742804534979806 -0.9374887472941854 0.6220696681223739 0.5565268492245576
Ni 6.638819071896338 0.6747378214704544 4.122262859047911 -0.2690399776866399 1.7524649431737305 -1.0813761648401765
Ni 2.6831069195470514 8.160107466661517 13.41162850205618 -0.9118903299997908 -0.7994014813697394 -0.3242600745022093
Ni 8.962012457019485 3.9938303222037805 9.38904132969447 0.07504330218908366 1.1948399757889874 -2.0470447170026875
Ni 2.41456053085828 2.577718128887267 4.530634717694936 -0.22005763425066618 0.24383416784497364 1.365285603439481
Ni 7.794167490252859 3.6157542747430003 11.18501531984516 -1.2054758582362788 -0.30036578438311495 1.2010548463504478
Ni 2.8392768026366597 2.8070279436108763 9.41331069889596 0.2958439852533615 -1.748063728782241 -0.4981347824389098
Ni 0.8713514155240123 2.5777643439331626 10.611208385707425 0.09457520157442423 -1.7723056320487414 1.7717867834307934
Ni 2.875472426581908 1.0422417150322114 12.172388683788562 -0.021358925291750312 0.046482716942571556 0.3247298150497762
Ni 4.381574557265871 5.360963809880389 10.408354836157073 -0.38027284242240317 0.4246793935622364 0.2163210500263694
Ni 4.648623578467633 2.3617182473815226 5.610283815175772 0.501990151629258 1.5214909191208763 -0.5342281857273573
Ni 2.3835040200165967 2.477459208321868 2.3310638074391288 -0.8478148396761204 0.9288925209847423 -2.005874670522281
Ni 7.588713882220436 8.312515445015242 11.905250005397765 0.1751129512191758 -1.2771091063025488 -0.7759985290647667
Ni 2.8093941539607186 5.9351395400843705 12.155180973599883 -0.04803849146546566 0.3890392757611235 -0.8999817514876629
Ni 5.735998907321255 1.9692415916197474 1.2047107088773576 0.7168443873021138 0.6804113412860604 -0.2713629693928617
Ni 4.218888352705016 0.1487671570380893 5.221743757023364 -0.41632793627374753 -0.8607708856161563 -1.5676262800263583
Ni 8.022386629893337 3.03548740149001 0.22410784915762685 -0.4938045304946722 -1.201977615275033 0.33859577439859107
P 4.165925910108931 4.108961244538308 3.696669425698437 0.2922344135252322 -1.14650606457029 0.8374651210106802
Ni 2.3581412028292212 5.334630476729212 3.3176533642041446 0.832623733757979 -1.814288147128114 0.5420736499137051
P 8.129106413874908 0.37872120950147947 2.132985196430688 -0.033329210279749055 0.5393410814738905 1.7254205374614286
Ni 4.773579819559513 0.9955460326595373 10.412521584694998 -0.4779225691570931 -0.1380165605875107 0.08733446085161088
P 1.0368715266991704 4.21157713244437 1.8136013329560998 0.32641800138547655 -0.39802939507487584 0.009200949772977701
P 4.848790185249626 7.530048502960863 6.199309363926852 -0.9422961959851578 -0.5306283841912409 1.1401464409008493
P 2.0382776271782395 4.713999382391212 9.98320784015095 0.06130718354991377 0.37027922154480103 1.3530484379433407
Ni 8.465561191002324 4.366212676010252 6.85818063584051 -0.9926273401395421 -1.3797148914909336 0.5033386952373525
