# total energy = -381166.2016098187 ev
CRYSTAL
PRIMVEC
9.25284481260275 0.00000000000000 0.00000000000000
0.00000000000000 9.25284481260275 0.00000000000000
0.00000000000000 0.00000000000000 13.54247367512759
PRIMCOORD
 96 1
Ni 7.27754764613133 6.3262904106435816 9.343602451270373 -1.8301148297477257 -0.7015134133719982 -0.6768305659133377
Ni 7.871173169684706 2.7005630990220566 4.2788125424026955 0.7823905486340397 0.43959333455959126 1.1116491047921047
Ni 5.593983246292494 0.7103020483819718 10.247468465258407 0.13219635436130783 0.3740278899539558 1.5911503312902275
Ni 6.788340478356054 3.6482672420314013 6.299105552045791 0.13295662956610005 2.44220064718451 0.1917284482886698
Ni 5.709893635555432 6.343750529150739 2.297710883023996 -2.120484679260393 -0.3122064857717849 1.480618606386547
Ni 4.518737887860434 0.3354045276853549 3.5438081737353184 -0.32530111417221397 0.27337845716099374 0.4901396800485753
Ni 2.6419740845083717 8.40339681384566 5.069801249717426 -0.7564666296794262 0.3124389134975651 1.6051469026796357
Ni 1.755533028216512 7.843248083487248 11.495123009782528 -1.49808025350642 0.8834205046948721 0.7061519405852742
Ni 1.4672328838360003 3.8172056859655235 11.261271231780063 -0.559046787432934 1.1237564295786 0.5349342106554464
Ni 2.2092925468127085 3.803678026581599 8.790718129518197 0.17820495988093826 0.7747572004584979 0.6967877257615548
Ni 0.9098211450273588 5.650009222742329 2.103565838752195 -1.0879229648197586 0.6488186540814438 0.8598020939449837
Ni 0.3252375016039214 0.3551889608554688 12.230032074146449 -0.3003004783628183 0.040052902156827795 -1.2340446710129072
Ni 4.276544670094213 2.4080066459434573 7.166501477482705 0.6700901618657105 1.888022500697787 -0.27390579041937346
Ni 5.8173006602671915 6.965810045376345 7.0899045760381085 2.4461269788221096 -1.0770996489520095 1.9217900840665354
Ni 4.98400794563146 4.739501516616279 7.467915679075826 -0.3973488240680834 -0.5014749025557363 1.0450860721598902
Ni 4.5223742559438005 1.8098287226521252 0.19847537572985588 1.1735463565175337 0.25832259126913576 1.1602684084617052
Ni 8.697405963588608 8.643267567517924 7.509003862564373 0.3798725216601909 0.08418434525840339 -1.1424054121383551
Ni 1.9226671673764446 3.391149185286884 2.3220329113800715 -0.6367013019926195 -0.10481436280392918 2.2168270000375694
Ni 9.214556723251333 0.8693630802830304 0.9963426480144982 1.8855053907028883 0.22930486388054702 0.3248843383497695
Ni 6.311106492005401 4.288721414108744 9.855562364890428 -1.9221477245162701 -0.9166165318308667 -0.12504945890388142
Ni 7.569650709805133 5.935255928274213 0.7672570104693908 1.1003856160631436 -1.1306577846841237 -0.2551976724869089
Ni 9.042583346158574 7.5766458606219915 9.571482443112522 1.163581531995338 -0.2594819016845596 0.5700475094188119
Ni 5.243624270524855 5.208787309115501 5.228694805124061 -0.0746568653839424 1.6093557985546605 2.7827831129958267
Ni 3.97282003310563 3.6408649660347256 11.940263503265097 -1.1663056157947203 -0.7444616347987502 1.3477026002503951
P 3.9937777270212167 4.332450359559104 10.053553816827002 -0.5035788362726165 1.8998786287054248 -1.7706480418406605
Ni 5.445965484893974 4.437331357586997 0.7898469062422446 -1.17277888222389 -0.7811008832883386 -0.08359890506857862
P 3.919292324804671 1.0234664378353158 11.901085106983693 0.47142102059314933 0.2598711667031782 -1.4137614395526812
Ni 9.067649303252315 3.4932080655910447 6.670426848151514 -1.5174306330085738 -0.14538971312313026 2.148996670657157
P 8.083868317604175 6.504657503628469 11.47528305954244 -1.1245033350469538 1.1149673705320606 -0.3567091961698502
P 2.403556027500456 5.132451337899788 6.745167628889945 -0.5062504695675087 -2.237665534049475 0.7659570856683647
P 6.702113215839783 7.097515041047191 4.4795113767850525 -2.9324899654370724 -1.6144764076106775 -1.7565116024392782
Ni 3.201937757966867 5.762385025216856 1.684941223174218 1.2555095257549023 0.8929695818358879 0.7330258821579827
Ni 8.443248817242761 7.636104642565286 5.174524949380391 2.3946015572493082 1.7332786000532665 1.9615072001504994
Ni 3.8145501194517157 7.019328500832307 12.054589805464747 0.1428170672999476 -0.557269383817537 0.3270864882074109
Ni 8.743096512178086 5.229023281121413 4.852674914329448 0.0608883508449403 -0.5349804905123495 -0.663366984209264
Ni 7.5767383890719495 2.0017512335559244 10.236823992375188 0.8894176028185714 0.4531805863257227 0.9405342189887287
Ni 2.08928314721661 6.003181063388704 10.37276308991613 0.6952190957228543 -1.4185969132681115 -0.6650970795264932
Ni 6.614673830629055 4.876989540409527 3.5782463375253504 2.0460514998514827 -0.9759110558261258 0.4857626340268021
Ni 6.152114856441811 5.362763902691344 11.93657994567225 -0.9512225519405102 1.0590129666536279 1.37020283823544
Ni 3.537020286646367 8.807912691373975 10.258884625414277 -1.1155571815972596 0.0038070324509160247 0.8002481456407509
Ni 1.973761377443496 2.8161773972451294 6.782260433909285 0.4545810662176752 0.4250817712069776 -0.9091019686213762
Ni 7.3460557104805595 1.126330315654115 12.99512762002481 0.3059520202216408 0.3778362079564525 0.8731561466543865
Ni 0.46149767286622084 1.473552576968162 8.508817252736812 -1.1568902360180915 1.0736466574064025 0.027871529599287483
Ni 7.506703605298405 3.5129813953471634 0.07243034534296831 -0.3110366338333998 0.6145409638454965 0.14211721301944558
Ni 5.37493139386088 8.405839564924564 5.554878872771057 -0.8039767594452476 1.445150495386924 -0.36845450963123644
Ni 3.917885892365303 7.110209944381488 4.037228161837201 1.6166348487145772 -2.1363465859933144 -2.1027764633473525
Ni 3.6685309725722997 6.719073680717165 6.681477520930051 -0.11360573584331403 0.8852202769077724 -0.7055911829857977
Ni 2.5334104541721327 4.95101230037628 13.283826562024641 -0.4062448410061326 -0.2190983556611904 -0.4954325530163983
Ni 1.1942461979236108 6.946813954599877 6.436087445217767 -0.5629582066721982 -0.5074997685935775 -0.31741656921781464
Ni 4.639431997986225 9.052104523659297 8.31612212927586 -0.2077731604563583 -0.4873806292461993 -2.4844621269568825
Ni 7.603951006204727 9.067575280492349 10.946313640966522 0.8740089815729851 -1.7904877022744066 0.23586477648625184
Ni 5.919405804796331 8.72264772473727 12.5485242517484 -1.7883112634483782 -0.4928128560053641 0.4576031408734506
Ni 6.734211335130366 8.620079937958339 8.693766819651742 1.5703673331066053 -0.28977643890304283 0.25052546382222013
Ni 6.539984865822602 7.931538730437593 1.225444940680598 0.3590270456697494 3.7338956217210337 -2.327653373363533
Ni 5.648362216333069 7.415581587779332 10.599856589933633 0.5516494665275983 0.766351492893306 -0.1471889711153981
Ni 0.525200734809109 5.867034702119853 12.490765217430841 0.5726857183726073 0.2976409292527842 0.23699631898753376
P 0.9582153749246228 6.8785372113755425 4.060494440579252 -1.0555576611151756 2.1074643557413255 -0.6761667070770936
Ni 2.383662410759391 8.062003844878996 8.187644525939564 -0.9485360062472824 -1.6651947599011516 0.8936151858396868
P 9.161732231170058 2.3888069925770807 12.502560744231543 0.4625602277684098 1.3930558315742136 -0.30178734732098994
Ni 6.064342368811234 2.8874057980231376 12.029942076964817 -0.011824760549069958 -0.6548867146523947 -1.0835358914956565
P 3.8706593715065147 3.1183660619644034 2.0802051809911872 1.9206986507745698 -1.1996322549713083 -1.6742563558827874
P 3.8058339394656304 0.6987285898611699 6.184251837681377 -0.3742333210965426 -1.1415590049776598 -1.2441863874325991
P 1.115337935799052 9.125248263351445 9.812077694547959 1.0543055338756293 0.8053926659561678 -0.1904200138898914
Ni 0.47782154200788907 3.711316127833083 0.745869059261497 -1.3909500980851206 0.7180947147694472 -1.1843665870614892
Ni 1.5369715765696776 7.309812316631838 0.5578040594364654 0.8273889677216009 0.5714053089982869 -0.3832146986595465
Ni 4.25529088513876 6.3663644823205825 9.116861484647211 -0.42252943709876906 0.06717546940523268 -0.05850031022873796
Ni 5.775653604940897 2.6213957572376145 3.2057471542516565 -1.8980343764078345 0.2802314755270851 0.5816048752391081
Ni 8.584326944894396 8.16006549614495 13.620208190141557 -0.6332138576646514 -1.939430679966434 -0.329490212552897
Ni 6.425980562628806 2.0922533104602756 8.180371789772831 0.5235838186396338 -0.3543430099305188 -0.30094531103566885
Ni 2.886804363098408 1.0800383321399067 1.8819028334627537 -0.22850165125296132 0.8092508633599933 -0.485952381440105
Ni 3.375363831723974 3.055511485907634 4.756076137857335 0.42992470112157566 -0.7575110117835406 1.2729989407889173
Ni 0.04544997461958639 5.098807993494899 9.229128103550789 2.216004504136274 1.1543453581090508 0.1509443243927723
Ni 8.187028286462843 6.047381903933852 7.071324863286454 -0.02591826252765859 0.02976771818073583 0.5391042828727362
Ni 1.8892088798714721 8.411372766232079 2.735593444891823 -0.43633806084708726 -0.9092701187681244 -0.08361613145975923
Ni 8.2116130956168 4.298955060674148 11.605466887495968 0.5526547678636611 -0.9634514899065343 -1.7406424966175056
Ni 0.16099302593619086 0.9409033019373985 3.3534142328248326 -0.8257974548647649 -0.09471609802766269 0.25682698056021575
Ni 6.948757052049005 0.37805089027120053 4.047696830665499 0.9481788800181798 -0.15192751424164802 -0.11704818586595972
Ni 2.268751328756003 1.1356109191849466 4.1418981949991895 0.7240964408788368 1.1958925854232179 -0.5742245236146368
Ni 5.994029999687815 1.7986790444321332 5.633899094320065 -1.8316567203135485 -1.6509487915050989 -0.2552151559884056
Ni 2.406008031424355 0.21532388118278847 13.215978225523617 1.2313792083656019 -3.420990824330644 0.4070521673987764
Ni 1.8526138779129089 1.6685932966355606 10.889435477492569 1.0416096835755158 -1.2076271002513268 -0.6989227698266867
Ni 4.185145067225266 2.296297048308631 9.437425374243732 -0.42325011731487755 0.2220522960831918 0.9931736995613153
Ni 1.0693327904797152 0.6107479132181859 6.00757709004623 -1.6649242798485844 0.41150428963285907 1.076077121224766
Ni 2.645702981041697 0.970789991273975 8.060114413930844 -0.4971400226258083 1.0252602956832149 0.5110957134749521
Ni 2.0271502930695164 5.241681173075729 4.536105477917633 1.4391955633550697 -1.4182372159358478 0.3785707721296319
Ni 0.8906390720664744 3.094382687735175 4.78572040265502 0.6811307359505883 -0.4939302574392591 -2.15340894079224
Ni 4.239033636481062 8.294305771344659 1.4886430418718841 -1.040967936226459 -0.23384594628401015 -0.4765030631017471
Ni 7.710719584611773 2.311286657201898 1.9153527934072299 0.5720686536138987 -0.6407201933440255 0.4755862077144326
P 7.897210675503011 1.1158468422738235 6.289571420562074 1.1594649387238032 0.10045068651859476 0.11342138774664984
Ni 8.022975344686525 7.967837641356289 2.847440909917087 1.6844916604575504 -0.6458593143428037 -0.40350533058778254
P 8.329133479909016 4.375402066029812 2.43489633878588 0.7264592846840585 0.0073111889494325705 -0.40206062772145595
Ni 4.265894645503997 4.588994739913878 3.450446042442751 -0.5636125524267455 1.2639183186438876 -1.8786562289915387
P 6.105082645327935 0.8565118038683024 2.068572504262412 -0.30241443938202756 -2.015725338064115 -1.2196837743055444
P 4.940251241646113 6.492915643328743 0.2017221990388976 0.2562644231885264 0.21232478438278274 0.30644335803576256
P 8.041101668033383 3.6215172671484153 8.928742818321204 -0.28252695642948117 -2.1539725266051937 -1.9257017604161157
Ni 2.0616634049040155 2.274691655243335 13.382997629405601 -0.049734391110649825 2.8580364743131876 -0.23425346613507397
