# total energy = -340892.2832581166 ev
CRYSTAL
PRIMVEC
9.06756926912909 0.00000000000000 0.00000000000000
0.00000000000000 9.06756926912909 0.00000000000000
0.00000000000000 0.00000000000000 13.27130418932064
PRIMCOORD
 96 1
Ni 6.586990761572514 1.9904584450009617 11.491158507608919 -0.4885628224797585 0.243644934652303 0.4767473179020693
Ni 4.6673318990062365 0.4102467658769464 6.098854480690995 0.1558340483849058 -0.8028727277477915 -0.09785438654632825
Ni 2.6824137389524565 1.5628590714261086 4.81071556154763 0.8946989058221688 -0.7483787104649692 1.20930577350533
Ni 3.2077615114317553 4.346448750543296 5.032863759547609 1.6503684935215965 0.6709090582225801 -0.9574451358114542
Ni 4.897131312126399 4.262265435568447 2.4885554509470946 -0.09014107706247056 1.2807857838231878 0.3390729711453257
Ni 7.546539098202031 6.295831105837659 2.7486731893526843 0.04742168381707317 -0.28938665966379196 -1.0906542477079926
Ni 4.958745446686297 4.816747308760174 11.464854395328592 -0.04794027532470453 -0.6468255349108151 -0.4605524533097617
Ni 5.612689489412613 7.957862184575262 12.445949090536658 -0.23298514094561165 -0.12428095616897307 0.6119930006126622
Ni 1.8860000446874918 6.408495656522977 0.5620115828809898 -0.3000924761170703 0.4675569096520529 -1.6159308806690171
Ni 2.6818152793673273 1.3066186257265988 0.41328984219163395 1.2679032714335647 0.37297322343719636 0.29651581450940545
Ni 0.6523998356452924 0.011229278033698038 4.763058229918503 0.06773237034996722 -0.3469204922142025 0.23580538400322615
Ni 8.500474609328593 2.4375440253704026 1.4455501116574083 0.5909387510455242 -0.0764779777530812 0.4552678078720546
Ni 7.126338861316048 0.5252217332636424 4.798518773851306 -1.4336309247830987 -0.04792304893352392 -0.11215100567465845
Ni 0.7965832578140848 7.469972541583372 2.517539936763241 0.20823390214286075 -0.57445875111263 0.6017327563372347
Ni 7.564919061521076 3.846345091473086 3.75461121139919 1.011532147463845 -1.0232507214523539 -0.6245705801673567
Ni 7.618381451125956 3.9765825917944726 12.548509648559708 1.5855604959072758 -1.262507040118658 0.06661291203354336
Ni 7.825747697373243 9.0415908851191 7.126106731537574 0.33197646930986047 -0.1956072145177857 -0.5500605247739236
Ni 6.8835818914208895 0.6871204659092081 0.556972734525591 -0.3274135325295265 -0.28157127738443116 -0.8841064750183031
Ni 2.097528305322269 6.5830735715607585 9.1958329621028 -0.9392363261129114 0.1618512011132632 -0.4008444959261677
Ni 0.19127584421983468 5.014619809770638 1.454733746018301 -1.0982819394565795 -1.095527516639894 -0.5129186256163037
Ni 6.433567486112104 2.093728993713645 7.200319347121391 -1.0946481993587343 -0.548299576218759 -0.5785167232320875
Ni 3.223212649811456 4.162050657767712 0.3330164631729631 0.617353236483311 0.8678488755088601 -0.06876981047554608
Ni 6.256369043497015 5.578305265976096 4.573504317141335 -1.7266022164743555 0.24757383739306393 1.019402294240541
Ni 5.184274034585311 2.8587054246203807 9.457715249527574 0.7111697055148397 -0.9006934328427068 0.03587614507131886
P 0.11426225642622394 5.635031980590773 12.44978376566622 0.3831853880835078 -0.3243284658462995 0.6736112876450915
P 3.736863257672319 6.201646261735575 12.680518951955857 1.3620375288158286 0.21651491120473038 -0.16538055442276037
P 2.463957855241335 8.336460412725291 1.4448600696206155 -0.14588979268800034 1.3031890912190522 -0.3031721434836585
P 6.347316765297719 7.755863939455195 5.814437469615263 -0.2648943309493825 0.1989535052821993 -0.13034773118834325
P 4.804297535875592 1.1509919308845773 12.770949822296677 -0.3240291894383258 -2.5260386648470883 -0.6105562681661356
P 3.9785774570782366 6.333062546088276 8.16133481649142 0.20578055550636173 -0.7337154520258397 -0.1455087551994978
P 4.947048282067862 0.7120771373660452 3.8676167026966426 -0.12504174559439757 1.031320900054998 0.10211830402900478
P 0.32095659577566144 5.487937868621578 3.721844642356416 -0.239386159375949 0.2349090974412019 -0.3848620044549823
Ni 1.6150157310270703 1.1655363123171123 2.708739613399514 -0.8599103373880739 -0.6773136761973433 -1.0255148348961822
Ni 1.7741515752546224 6.648423544742979 4.9036808175557764 0.3719440108417336 -0.680786465237292 -0.8941849423002277
Ni 5.994298150627231 5.739009799722245 9.16134083458957 -0.06730531011487763 -0.9900924895328304 0.5390536321404588
Ni 8.683113593626675 2.828102377653544 10.035508030317033 -0.48690086139630345 -0.4354903681348113 2.071873088900277
Ni 1.99871900078964 5.127501982123277 7.053167202707578 1.2471920070281424 0.29401978756042907 0.31290608294197075
Ni 0.47978051561338864 0.19109993337208456 9.129184512972238 -0.15665808694809796 0.19197810240563065 -0.3241873122827449
Ni 1.3700916120281865 1.3033361655778595 11.253190121151741 -0.5440659977533855 -0.32155527397653655 0.6304062130125272
Ni 4.078583680781124 6.716375910363564 1.661156058283589 0.6451008389102244 -0.07047033810642056 -0.5871538300817952
Ni 5.68464972073967 7.831913644613969 8.14141427311914 -1.03510427835683 1.471019649844202 -0.9443373947849026
Ni 5.194502252949338 2.795250573457736 4.963003577310188 -0.08252341261621272 -0.5430344711650776 -0.5304998290331767
Ni 0.953600011056111 7.671064029756274 6.886068218970018 -1.148325377167216 0.2241531444762785 1.187612861912929
Ni 4.983744735719652 4.490215064516392 7.085071445893597 1.0259182409821879 2.1824240970776674 -0.08719253595710791
Ni 8.034999998070635 7.398293404909937 8.811854038228292 0.08420954206938401 -0.34079021094674855 1.3381303831809277
Ni 4.726923965573956 0.3517056306109921 10.511921757385595 -0.12001472469345138 0.43259582019583565 0.3689052240154098
Ni 8.296544971911063 7.115294561699572 4.981052574343518 0.35204058704958724 0.23470700873272482 -0.20529204590571742
Ni 7.11495906162912 6.081582574361385 6.877362445520282 0.08502509599214389 0.12022067005667038 0.3465669655295257
Ni 2.307233984493243 5.11289412770444 2.623352125198829 0.6618407773727246 0.5663322653507536 1.0257038109785368
Ni 2.424124022552353 5.296983923117987 11.213787904769609 -0.7429950775555526 -0.1748697248601182 0.9420074611001453
Ni 1.1608030410529084 3.3189208455847785 4.004111732710418 -1.0406252081750593 -0.004030204205315639 -0.9896512882303538
Ni 3.7315133916840426 2.3476662767673546 2.915068529699244 0.15374168463225135 0.07896757694415432 -0.8923370904582115
Ni 1.1809602479883983 2.999180210875266 8.350358276454497 0.28168517725447617 0.6768326227958665 -1.479785054741658
Ni 3.848086064811644 2.6876729292460166 7.197161112674412 -2.1310128324852267 -1.412075567209826 -0.5480915739730109
Ni 4.008681787724132 6.6332807037253145 5.9085706285713595 0.9437380706380069 1.109773742146263 0.6413747962088889
Ni 0.779829109701307 7.386868267375651 11.305081100967183 0.06299048478960764 -0.33392125174105713 0.2423344433709955
P 0.21582719532128883 5.908410132591711 7.904972865360992 -0.8267101964870214 -1.1129732229201672 0.17579120823312305
P 8.307144960623429 1.7802631170785184 8.208208710118196 0.9955514557648724 0.438764925121025 -1.248802803158688
P 1.8747381234036957 3.4042285391741127 10.354710051399929 -0.35723395832506866 -0.37451511400301957 0.4721309021759804
P 4.109658241360488 5.987551878940319 3.821499044363803 -0.7122657667924959 -0.8513004842318758 -0.786458033835194
P 6.806380604939216 3.9414729628002227 10.309109244526974 0.6013383491122934 1.262047583983736 0.5250321210503861
P 6.377693123027764 7.781389147517905 10.341000793115734 0.15294644242446562 -0.04715248931608653 -0.17419738138344196
P 2.5926810714609547 8.550273700866924 5.828491295539381 0.15485805762488167 0.09075171406327595 -0.4313442071769216
P 6.797739211232728 3.8802578012970774 1.633763837666665 0.8474641412049212 0.6142375736724648 -0.9627742613338515
Ni 5.296439868949688 3.030463325552477 0.0448817486138527 0.7162836297026374 1.4234915223562516 1.3756970285807921
Ni 1.6516849819704449 1.0694019407786222 7.018754869805698 -1.0796612390315987 0.947437373866465 -0.43349570630228573
Ni 6.974248518567972 0.8095544159432878 9.60936672191322 -0.6944194826396944 -0.563755762872829 -2.463901272086395
Ni 2.9635990682684903 1.576052385007367 9.364949480047803 -0.8905499166508019 0.7091878991981205 -0.17944628848720706
Ni 6.22807822674545 1.992879486049894 2.5529079914874324 0.5647168412345177 -0.33696132411896157 0.48590661580383415
Ni 4.197813151763921 7.066873740720932 10.40885704249992 -0.013470266572292932 -0.29105067762977616 0.13084061166436178
Ni 8.072140762626535 7.38840068661636 0.15020338154102442 0.027596164450713764 -0.7344690423624125 0.37091659801848376
Ni 7.590362661458541 4.04969440444443 7.92864919600843 1.2375639970200751 -0.16048311712114294 1.6857412165939354
Ni 3.043937733787357 8.375423758744994 12.263415290044446 -0.042661543424268464 -0.08633250194965778 0.5093625328339293
Ni 0.12080541455697046 5.287499245450636 10.095362149642481 0.25038765269277524 -0.7895469571731628 -0.5956819221574644
Ni 8.470143589445906 2.3961324355933526 5.785744959536103 0.6299503564220312 -0.9879335342082985 0.316771479434648
Ni 3.580039643660039 2.518970799225868 11.508543758556923 0.19583604269914015 0.815148459791351 0.47266646296447623
Ni 1.2417673688653195 3.0009211842138237 12.93267355085144 -1.3440326075979758 0.961947394557182 -0.36185474492653164
Ni 3.0129266461942956 8.640106111622615 8.148341896195486 1.5334275226574623 -1.463577334633544 -0.4165130557013601
Ni 5.49605334329871 7.610891638742369 3.5897020456890347 1.0797447998843406 1.2490658270120876 0.09197453072678353
Ni 3.1229706693023056 8.319739814619558 3.553577755670907 0.083475749227153 0.09661305794005942 0.5002654556286674
Ni 3.5875929290299275 4.36783007935746 9.208984564864489 -1.1273351480687939 0.9068807926003413 -0.27322521941258104
Ni 7.296745694396868 6.0210837508465 11.337105036070227 -0.8029359768855591 0.729663393443653 -0.09305722226800103
Ni 0.6947027675014062 9.029948125917494 0.17706696285775067 -0.21608759385932463 -0.08229612709675505 0.17262206647652206
Ni 4.658082978145149 0.2206221260579002 1.6576523494397413 -0.27517514405010024 -0.7106212892105374 -0.44255267429823136
Ni 6.1735821342208 5.46784413467239 0.24178764671863823 -1.0619558513320355 1.5094041631596715 1.3578330038161777
Ni 8.112962960387929 8.897552544061854 11.369353846896171 -0.16510441794323824 -0.07992042777572687 0.7146167835231757
Ni 8.984002751404617 4.691524174356613 5.767987938239761 0.15043498885652157 0.9070602556009991 0.3361797087579307
Ni 7.969042497733814 8.764168597133803 2.5868025661724805 -0.6922404727105046 0.4387438420751025 -0.37535997850181807
P 8.692960974072893 1.503294207566804 3.602017618545437 -0.5595856906555395 1.2551601128352834 -0.043088089438725795
P 1.9678348591691817 3.1533923648797093 1.7913210180492019 -0.62145028937082 -0.6063579138140719 -0.6584744320036531
P 4.778364287186657 1.0564987894204565 8.264319736765747 0.7486995841394977 -0.8988864615409552 0.5039907269990547
P 8.462816993312808 1.6460358861896034 12.533380408896253 0.7916069250259852 0.5847089680857285 0.34185361921425644
P 6.252207029109525 7.519209443814462 1.387846819810635 0.2125968070972468 0.556727652381454 -0.009491227319886879
P 1.870177135959453 3.1763333156429976 6.057806500449757 -1.5507266760575422 -1.3468698199364546 1.7191920400532135
P 6.753190242418484 3.9388252325144992 5.912312814492311 0.781997426960679 0.09217096300830577 -0.1290513809744229
P 2.1953673799214304 8.62211605379085 10.215188266696513 1.5641892293203512 -0.4117711701410005 0.250878990506897
