# total energy = -381161.9483005854 ev
CRYSTAL
PRIMVEC
9.30330910999374 0.00000000000000 0.00000000000000

0.00000000000000 9.30330910999374 0.00000000000000

0.00000000000000 0.00000000000000 13.61633327537437

PRIMCOORD
 96 1
Ni 9.151748716316632 6.916135672441832 1.8106723145624797 -0.2469544586415102 -2.547474209013045 -1.5664502574403862
Ni 4.197857658386599 1.8476836684467304 10.421519207508966 -0.6031977709185354 0.676549287227493 0.6938044747635148
Ni 5.168043926004731 1.7723454727966632 0.7581926975442211 -1.1380036835262337 -1.6332814561323228 -0.03042952013445082
Ni 5.955001524404772 3.469352749943259 9.957665527968745 -0.8976986118804411 0.5211281580102896 -0.48468122803716523
Ni -0.3068705751218864 1.808619074283402 1.5073007139261438 1.7299803889179688 1.241202622213927 1.0251656790868797
Ni 0.24801226089618672 8.889851266854414 5.42642193370177 0.24668166459609775 -0.8687258787971749 -1.1007774521849236
Ni 6.815427353361568 2.7529421430984717 1.9312041242936653 2.4853378446936163 -0.2937572779276618 0.09938702114077078
Ni 1.4525535319130602 2.1391749435897176 4.1228487998723695 -0.32536719152345894 0.14473382470668622 -1.4966728316359321
Ni 9.472443078165666 6.182588370562787 12.792232112555855 -0.45963071282644063 1.3992583608404996 0.6420448256927199
Ni 8.203155428706381 2.8472590889493463 8.178201163184996 -0.06974348724272504 -0.5160851962697434 -0.33726368585072886
Ni 3.919735238164475 0.49165661825351115 8.516294573379886 -0.4764974066747922 -0.7958806127006745 0.5409086830713266
Ni 1.8901625769844195 7.724109445696593 0.1769200954381039 -0.17323861701459842 -1.8394042254694514 0.014849406308006683
Ni 2.626500871540054 6.21518716502535 12.094054130536335 1.5920648726846969 1.4220313928709574 0.3275307748336811
Ni 4.60435643842291 8.142665314095769 4.257854697624348 0.039824588196105605 -0.17066519986046735 -0.5157918333990408
Ni 2.8211447008053923 2.6439538790776593 8.552596084793391 0.43542943298988884 -0.2146014962321014 1.1506581390654504
Ni 8.107182493867397 0.6568973396709811 6.524470088150702 -1.229372205237902 1.9692899294197117 0.410484333008777
Ni 5.619775394019631 0.6498044969488753 11.898197149787572 -0.14910547141182062 0.37290894585816425 0.7461017415053344
Ni 6.27315608291811 4.319386782834219 7.294786857882027 -0.0722773094081723 0.8324314152415146 -1.1144433797077904
Ni 8.523626511141288 8.914244542847804 2.065515995200065 -1.9496857820355389 1.9932536393241607 0.6638927748057468
Ni 3.064928607796546 7.390902133347517 2.6899475777260666 -0.8206079402440254 2.703704464395105 -0.682086157885322
Ni 5.016865156022809 3.9097713943090513 1.5974134944751828 -0.5892364236424369 1.6203902019919512 -0.9203160921696408
Ni 2.1388958443220587 4.476761556558168 7.369649654446182 -0.2664166811311799 0.8349323272864976 0.1674711184032019
Ni 3.591235400129914 9.199567724175528 0.6021064321059642 0.40663616290728033 -0.03334926488440708 0.19530665255823138
Ni 5.810697899716184 8.77730913882541 0.22518938344882375 0.6946241424513326 -1.2290593019831737 -0.5400586763662054
P 5.900912086332472 1.7464636673757583 3.5941268685428605 -0.8300971106813833 -0.92493713588142 0.8394268727227413
Ni 4.287094997566081 1.4079069523965535 5.689516719022245 0.688170159295873 -0.06482393845392061 -0.12228038079917651
P 7.07539901787694 1.8945351321777428 10.62422528428608 0.054189341558209904 -1.2594402282678763 0.6550301822087945
Ni 9.06597220805612 3.0236591294187125 5.770234087890992 -0.1768178497254245 -0.059462417031691146 -0.030741137837598666
P 0.8823797773508466 1.6720371960000433 8.1552033835299 -1.2543728410472976 0.604072974434637 1.1929029066672745
P 1.7911474601279531 3.8366380828734896 2.6596783318175636 -0.38708678002044306 -0.6695882825286275 0.37454673857190335
P 8.606081738116657 4.768615660749113 6.949967155336556 -0.5446792058573522 0.5834072185551695 0.3264845929573538
Ni 2.6240075847489677 1.6676088209531883 12.909508694495246 2.764688974498277 2.060808346445683 -1.310640405290775
Ni 5.231585525941746 2.3482016884484125 7.80900772159487 -0.010961384107510155 -0.6469119239770342 0.29297926211105674
Ni 5.944702761428158 8.91446782226193 9.929206705976457 -2.452060056477093 -0.6686256615050421 -0.07857959747711628
Ni 6.974299959821954 4.79948403975219 4.771653191112134 0.8882994300537281 -0.9010798696478483 -0.5047905971925307
Ni 8.254128258289823 1.5864653605358154 3.804539806430928 -0.4952934563353728 -0.7433072094793327 0.4673998152488983
Ni 1.813838230588624 6.6664534675941525 6.320320137828901 -1.1124623447220197 0.8937483689834413 -0.032718573278943654
Ni 2.2173506484609837 5.194958398715973 9.756320525286917 1.474089032798145 -0.25424045077996216 0.9596372583667667
Ni 6.505989995308112 8.987573223770728 5.049099260775631 1.1014407968005353 0.8063699422677726 -0.41727255957520387
Ni 1.7517758567701998 4.411777943738248 5.103115202707449 0.3942599007301146 -0.43537646826476634 -0.8890306517927978
Ni 1.032425404306072 7.646129110312687 11.247417666063676 0.864325435736634 -0.9654852325071115 0.6448496421313669
Ni 5.528323867316721 6.196124685044245 2.604695776088754 0.3001634385643218 0.18451676103157902 0.7910497669709343
Ni 1.4428966972520614 4.389254632838172 11.923836138845614 -7.24690288575999 -0.06421201590153457 1.461361815039464
Ni 4.225618732209741 6.4779405189083885 0.410072180993237 0.09727074612871635 1.9011878344351516 0.8295119276018746
Ni 0.4242532147829872 5.877895700059532 8.763594200812651 -0.4119030677331745 0.6526328856212116 -3.124164677669671
Ni 7.378212419977957 0.48476937865858094 8.714017797898395 1.8800559375525427 2.3362156611112472 -0.155810394235822
Ni 8.805405131769744 3.2388632714015917 10.523165300128566 -0.10639404858622321 0.14219974543092287 0.5550029563808635
Ni 1.9970948097334777 0.0421505017327439 7.179538397287625 1.692306271405963 -0.06202272155969963 -1.264002393717262
Ni 6.0589194850631145 9.018209020050755 2.459586484847523 -0.08215163109909078 0.42256029033670445 1.028741569363596
Ni 5.986456011869935 6.451919163853654 5.888968498338454 0.8845916421848378 1.6321537702857827 -0.6798459557008938
Ni 1.4431106733572665 0.06471567752296843 1.7162158190777754 0.5732163940650966 0.3751990274439216 1.1940298211828664
Ni 1.3128271352140777 5.1911719519847335 0.9336130995841044 0.30477651185630095 -0.8108362055692422 0.1441149601757647
Ni 3.8634781291133566 5.900679503609423 4.531093810993333 -0.172412007348245 -0.24555346452892549 -0.3928735619055492
Ni 2.0053003282026505 2.1774766664214447 6.381948047120668 0.2974321556760878 1.1217715379380875 -0.7864804024326971
Ni 5.6096068773679235 5.083607094228981 12.813051057261427 0.4512918539434421 -1.0006468680099088 0.45745196000756705
Ni 5.799766511732876 6.595748319787224 9.440925328199835 1.1887112371834303 0.24699199674766498 -1.806023850236793
P 3.124237202174069 3.8347495111623306 11.458743258556987 5.793575253878912 -3.7519625065250737 -2.994496746157172
Ni 3.4338420197881208 4.451326309965518 -0.18421295930203177 -0.4021855833350945 -1.7894507763694603 1.3133781159369124
P 7.515566472901838 7.896360210386762 7.727922872023705 -2.8223824725550037 -1.364937990292075 0.12478823482269476
Ni 0.6122823914048087 -0.08925222447375722 9.913942767028189 0.38307174532377897 3.6064699492754926 -0.8593858323431716
P 4.002599810732412 4.3141583232200755 5.988966974947973 -0.08471065007551863 -1.539771462597619 0.2643536279545641
P 3.588035061860758 8.211119061143583 6.091280114817275 0.7843962662101588 0.05540958711855619 0.8578177165251032
P 2.083987715064625 8.038961329542632 8.824323410462558 0.8542410549174385 -1.7506479445696495 1.2390320969251694
Ni 8.000054891630977 -0.05892157672636904 11.214071815894679 -0.3080184158323663 0.6525454681137278 1.9708953262336186
Ni 8.357041461584592 4.1738830312946975 12.93806241023854 -1.6861389662529864 0.5866084991012864 0.7406049800568213
Ni 4.499470933636684 5.353886825029891 10.837933454194307 -0.09929137610317094 -0.7183821641028788 0.1948662225867031
Ni 8.257561179282028 6.898682664904227 6.002433514612516 1.657033307136282 -1.1342910105613366 1.7131082957529786
Ni 1.089110465567601 6.019482758542908 3.535698367189355 0.5112353243766099 -0.1091718684416765 0.45621680204888526
Ni 4.188358979977274 4.894563856934665 8.584212449833794 0.8292396477770945 -1.4512342396871587 0.03089437558601131
Ni 1.519918791817004 2.0000160487349747 10.788519859186184 0.6940942380897918 0.27016020733401214 -0.5957893942696062
Ni 5.421875406631606 7.477199626907659 11.639159537487966 0.13933347962672132 0.33194073097591864 2.9084349813703976
Ni 2.385107914941845 0.10711922925838975 4.835472959985917 -0.26654060830355386 -0.651280228248059 -0.8073598169848677
Ni 9.016962376655213 3.9165162932774753 3.3501215427993634 -0.4615762665885857 0.06470078261249503 -0.2336546562088105
Ni 7.434432315793388 5.045277461470488 9.250405655779602 1.1147974206130995 -0.08222696442171645 -0.27844661571252044
Ni 3.677300310967006 0.9112460842739176 3.218492746186059 1.5709681999153977 0.3593515188887037 -1.3564178686362058
Ni 3.2921712315244474 5.3065794991617015 2.322197079349738 -0.14595535581861316 -1.022347235801478 -0.9909111287793837
Ni 2.6012423878169213 2.1138420333952084 1.4528624017692697 -0.03642199027245985 1.33062893259756 1.1155756935400207
Ni 3.8515419837664764 3.4238037494613214 3.588162517192989 0.166725498486429 -0.8729702558958256 1.2733293275451425
Ni 0.12491925021878417 8.542195915749527 7.873303819885457 -0.282398658381733 -1.3580700595276483 -0.34842124512944506
Ni 4.065508785662734 6.280663853218135 6.853917003033518 -0.4958004778787784 0.4378295577909492 1.9822724577223088
Ni 0.9599805377307358 0.2997144698991114 12.808448710337732 -2.398034237079941 -1.2002238658087199 -0.6617870413166538
Ni 7.714731710303252 7.083892938922693 3.9206730117038093 -0.48669928690845854 0.2947299262535763 -2.2005460034893587
Ni 6.782493639777814 6.507794837238972 0.6713732883535576 1.138666256810897 0.4617945532469789 0.060354589828657344
Ni 7.276341187282449 6.318342254352091 11.94423364365702 1.138088529930556 0.05235074568757436 -1.1358203027216698
Ni 6.272151325554538 2.809729540758142 12.696835982870033 0.15767161581427686 1.081501120453815 -1.1735720675491466
Ni 5.506470394659027 8.766935949377421 7.230681477424339 0.21954855582473154 -0.38921488210703936 -0.12483425756928179
Ni 0.41600304043098923 2.4739359085287607 12.975316580485654 0.11739991277842361 0.01621003410095918 0.031176939823436632
Ni 8.298532951774359 7.422579900226805 9.8782952782319 -1.4128219584575474 -0.22316146998697053 -0.9459589895487257
P 8.59264776003334 8.3520455846935 13.422776899374481 -0.6479100262242455 -0.9966876262518447 0.2758737127790217
Ni 6.693479580012459 2.3135003461694854 5.5743361725829725 -0.7464663239336048 0.3167537388228352 0.16488870238800638
P 9.00141654744661 5.483128392573819 10.690209933146004 0.27404103044565703 -0.28319415769983486 1.7325586911681066
Ni 3.890262355499692 7.542266969507876 10.14084581998044 -3.557766570532518 1.3600971172600058 -1.2378362768448552
P 2.8595301534174173 9.097454605448048 11.815654471708335 0.7158007765289478 -0.7673850763641429 0.03140628222542333
P 0.8278921576566858 8.135511069534777 3.549587277078956 0.19607181285903008 0.3013083508020424 -0.9852261625794644
P 7.567404510215024 4.848075222251611 1.9252137236788125 -0.40381591984966586 0.8895232751585003 0.31349949355159556
Ni 7.671917882644372 1.1159319051896242 -0.11502145985670628 -0.4902954889001491 -0.7901192847368651 -0.3727641927501838
