# total energy = -381168.56699255906 ev
CRYSTAL
PRIMVEC
9.24981162015925 0.00000000000000 0.00000000000000

0.00000000000000 9.24981162015925 0.00000000000000

0.00000000000000 0.00000000000000 13.53803429138750

PRIMCOORD
 96 1
Ni 7.5067494760875375 2.1210188340002945 7.146565506386016 -1.5988222460131885 -1.6535458628083135 -0.9224462511387661
Ni 7.727986473573927 1.6465127409300422 4.670838591241434 1.223046005909558 0.46164800036678555 0.9318665160114015
Ni 4.78372514382624 3.227573813902325 6.690726458412649 0.11789227903380986 -0.33268198001731736 0.17989083222379343
Ni 2.2108530057365523 7.961396223326061 4.760311095338185 0.6079401706995272 -1.7860924014201887 -2.184578681526825
Ni 5.974111167637425 2.59616316408144 10.947572150047153 2.2441308300588445 -0.19190919684090818 -0.9502365338781571
Ni 8.58803397028287 3.254268770618845 0.7853376921685203 -1.9120463744162102 -1.9267286590187334 -1.8909414741167951
Ni 4.581052518526287 2.549248118874861 2.1372633533993075 -0.5267262209233574 -0.22062250561520066 0.5407947832012816
Ni 6.9726375960868445 4.172691829295201 2.3361093315774224 -1.248772721251701 1.5568556717734157 0.5236804921184981
Ni 2.1623284932851097 7.05381394402315 6.977380899553314 2.008285593956619 -2.496364534821423 -0.7202431285710177
Ni 4.605814264586621 4.032205688404521 9.07055040033043 0.1029330866208163 -0.8371321631512938 -0.16763592611584033
Ni 0.4025971315283615 7.540465039923891 1.251673426518155 1.8574322866157558 -0.36366223044891566 -0.24338036813700667
Ni 7.514547067394546 7.8476605380224145 1.2756184142007796 -1.0734525391177256 0.8334097199943841 -1.903204093534232
Ni 2.088551994750473 1.8822441934319503 0.664019936171688 -0.7336087512446462 0.44756324013894533 0.38217880119586434
Ni 3.8359246830252594 9.07476831448938 11.722110686995112 -0.7336259776358268 0.281224949788606 -1.451403161164855
Ni 0.7937762954299483 5.376813823558233 5.060178892566706 2.0880041901341846 1.3276652219835456 -1.7956548482976429
Ni 7.61385304636494 1.0325842353205998 11.99192307089758 1.3246215500612155 0.6842697958002022 -1.382167209686168
Ni 4.230974893145094 1.2683619368812684 9.996430657241318 -0.5540290225033685 0.8416243945946925 -0.5747749968014683
Ni 8.491539934085111 8.562615487588138 3.6331207103984267 -0.22869139866626423 -0.5279117565910263 -1.4757011144802714
Ni 0.3117880296334339 3.325446072051145 7.812204159614319 1.4908788506619743 -1.1484048242548996 -0.37097393361898046
Ni 1.1613601145331391 3.9581794449525782 12.7305852879839 0.630385901297553 -0.10618733189205583 -0.3357539340744217
Ni 0.1272829595957526 6.01643830621497 7.111583643320802 -0.35919519581649756 0.3501338569451776 1.2941125828390807
Ni 0.8598578755680248 6.555526584938286 9.723950627629545 0.21886232839098435 0.9996760194562073 0.49934217248344964
Ni 1.0151020911091577 0.2096331086433977 11.152239959742028 -0.6590007368207682 -0.8795808192338077 -1.1517058636036746
Ni 3.7226884875562245 7.398221434800314 2.918001114183516 -0.4085238668482964 -0.8202485000220776 1.2982204343598673
P 1.6377624190125688 4.854023713142093 8.848323672986567 0.6863284781014438 -1.1874657948121032 -0.5953258243696263
Ni 8.638528692637507 5.449979834517232 13.008697527971513 -0.4855307205216541 1.8549012926637862 0.9007613099661649
P 9.099650308102492 1.2811821759696593 3.0266031539647558 0.7010287604260959 0.3397124045015375 -1.5909708682895696
Ni 0.29759419349985816 3.0532981106812755 10.389087941060888 1.114026860995662 -1.2354752328118463 0.4132804076966753
P 2.126180228957958 1.359361584898289 8.024399466113044 -0.19717121657079592 -0.3436598191850598 1.7890121461701447
P 7.992003850413714 8.70754153811982 7.681846562592173 0.8651610442640518 0.27364996565482547 -0.2580917062052523
P 0.07789543970784059 2.09448112408356 12.453488677326664 1.570390987255689 0.4080965495028907 0.12244261740865363
Ni 2.2717722659357893 2.5337731838136213 2.9146711819527646 -1.1383831783528395 0.14133765454094369 -0.45177419289649934
Ni 7.124907997149681 8.545984326057887 5.567679064156648 -0.5592301070883337 1.2611140164258732 0.7535934218966892
Ni 2.1092160742046326 2.320981264456886 6.14335682322769 0.38444265752937656 0.4974066460236336 0.3742957989033618
Ni 8.770865749374599 0.8739397889794003 9.188507699717729 -0.01257526556184931 1.6057606250042347 -0.27094259402599147
Ni 4.255190900312055 1.392744155511567 13.429622236505459 -0.689275990765542 3.7076171476404793 -0.42426750283579834
Ni 6.147452639871514 0.4772921363699804 3.3766160306636843 -2.0661654969925385 -1.6484188259943935 1.2707919058352695
Ni 7.97389271900313 6.433623315857545 5.09394255542417 0.013608334812053985 1.04790862921035 -0.32987973468183185
Ni 2.555306745572477 4.446782251133008 6.844735824084878 -0.1642479834802139 1.4844068697843855 1.2749023284592174
Ni 8.661791969194002 8.26985894563462 12.591333071980948 0.26483262447351164 -1.429421000466809 -0.35774535074384844
Ni 6.138693068142289 5.658322594421214 9.842124372611844 -0.09928674811748062 -1.4435769802522171 -0.5245662371575611
Ni 4.834229115992629 4.778868992656395 3.2674312527420626 -0.5211366426507219 0.555353911962379 -0.6907440906706361
Ni 7.077733957214044 4.4246382017985155 4.663839258688631 -0.11556465934189773 -1.3645150438220435 -1.0729791990257327
Ni 8.283076926628352 8.069258278167135 9.968474026201813 -0.17562742896174913 -0.013298259770802902 -0.2549737294015609
Ni 7.553063283530232 2.9754331953522164 9.199297605126537 -1.9335839913776702 -0.9666139467949157 0.6730656995542666
Ni 6.582647032995401 0.7837328498295335 0.2842198906875172 -0.39911645749146746 -0.7854146801723441 1.977038720127195
Ni 9.15233723584237 0.6852547290109514 0.6691147324847369 -0.2832399233361057 0.4474357134221456 1.0924254806758025
Ni 1.5213997871713287 6.434095056256902 12.365017927842663 -0.34196880463588203 0.13840762537834228 -0.5677790250996092
Ni 5.590373477290392 2.647000129470904 4.469717159372306 -0.9856249406797799 -0.6735171852693885 -0.41623769055278637
Ni 2.340313371018746 1.906460200598911 11.84027055725978 0.8481519113005652 0.3749887112053284 0.37608117293855875
Ni 1.7755568646833917 9.238082990784207 2.550227673939407 -0.6110494057524702 -0.47435079264543467 -0.8849680516876499
Ni 6.345565107977689 7.7160634662254886 11.744190912628516 0.9425797886638477 -0.4503156060731019 2.1364594574220948
Ni 4.038514060019444 0.09923845534460349 1.9031496929728393 0.5569680505270342 0.69467479318361 -0.42626345021990464
Ni 3.3045137480561753 8.601760690922966 8.960161296918686 -0.14066376840237066 0.3497721027303847 -0.562287920078051
Ni 4.633554450031126 6.1332079297733015 7.739342467461964 -0.584691998804864 -0.09805210437943114 -0.6584075833214595
Ni 7.843276127251926 4.08147018579613 11.358180543533994 -0.8762183305194781 -0.13550022192356018 0.2743973853438113
P 3.149338906103183 4.329337391316775 1.684307471749065 -0.01759020227793745 -0.2209104691692647 2.019281173736174
Ni 1.9694791680658719 8.83521668973386 13.239872523204346 -0.3267702425185727 0.5566764874285445 0.4684791643560061
P 7.788868734526157 6.275516283579143 10.900798626960379 1.5109707363158429 -1.0016323718516298 1.7355524836891079
Ni 8.559045060251833 4.897618075929674 9.090032353842671 -0.6213777842616719 2.320791099026061 1.1840146030387093
P 6.924649572717024 5.658831334067579 0.9141588954586448 0.9646167138592291 0.3982433108578948 -0.556297763932887
P 6.082694707795161 5.851060921899427 5.920426185209494 -2.208279110467558 0.5487045249666614 0.40641504803540973
P 4.816950467639733 0.9407891034928999 5.752906544492168 1.4127563953269346 0.27990803074939535 1.2133246648567362
Ni 9.047638616620512 3.5502812463090963 3.2950632153890687 -0.17501087842367277 -1.0286731780195058 2.260803148508203
Ni 6.30153600403776 0.20891717321378628 10.45685946180607 -0.9613858656267572 0.650600428572215 -2.6441654284892073
Ni 7.473218908486227 4.3918938681961315 6.941491629955221 -0.29020529891034536 0.8391047134966323 0.7766505608264688
Ni 6.000898622471466 3.11176617076621 0.42118832816887886 0.06287915602272397 0.828228947124393 -1.7456890579024773
Ni 2.6574431669390095 6.899610332304127 0.705695888001886 0.6886257587760527 -0.6598558857322119 1.7040217600706782
Ni 1.3061104186415307 0.9208576091295053 4.62254809902732 -1.5432596782565358 -0.3400309641832208 -0.670191206219949
Ni 1.699634409822271 5.987208901078379 2.7670663859376794 0.8850408139071145 1.2502477631353306 1.3505048455858806
Ni 3.562287501963304 4.680672991096252 13.220540416642486 0.5680317645403636 -0.16440353522147166 1.9219826596933156
Ni 2.5174380162594376 2.9243557348571985 9.787457060175843 0.06555927395804839 0.5461326504744272 -2.009174167209159
Ni 3.71552913326011 5.785664752812179 5.130982501604223 0.3622879758092083 1.5731153281653876 0.6627293506252651
Ni 1.168778463558312 8.58315006967777 8.13156593511036 -2.2360722214204265 0.5295042978891268 1.2491303617014358
Ni 0.16336462527828907 8.165243574718529 5.658627838209032 0.8345759723883432 -0.48180802025442826 1.8668553797018688
Ni 8.339167785093 6.125160593548987 2.6715278552939106 0.7154009699873679 -0.40875603746376055 0.5000240290418227
Ni 0.9203516444266663 4.317904623991197 1.6259587342357322 2.4738624970641654 1.1748509342615703 -1.4566626097915816
Ni 6.14140326298565 7.515166804781937 2.9224151243516108 -0.32064253235428003 -1.0956265041116036 2.4390623586658444
Ni 6.897038884637047 6.8103311492729945 7.776490636439515 1.0096611556933772 -0.24485335313810735 -0.03969603303804131
Ni 2.8817881011740996 9.163178015215816 6.434627845413822 1.1307035503203946 1.8773184840167216 1.0042852360934447
Ni 4.165708221422376 6.878900003791207 12.281123060232419 -0.7151248335078458 -0.5440485142518888 1.3352926566218164
Ni 4.780237964795703 7.367743305077193 10.126327613638209 -0.5064777550869665 0.2728408394899688 -1.4131459174558694
Ni 6.058312204016663 5.330666512727077 12.492288862683138 -0.3186784666493737 -0.3212801659382789 -0.02818263308180308
Ni 3.3628615605883323 4.898746552963428 11.10523611634263 -0.8498647802266137 0.6788758784781406 -2.9497821768586165
Ni 3.0933035465090466 3.696012030463209 4.672178888964312 1.0322966337047061 -0.24848400791215916 -0.7404057195618216
Ni 5.011723753703405 6.498889987580264 1.175061860681504 -0.7551419973307317 0.06597167890511864 -0.9666964792063932
Ni 0.2683805130432454 0.9871491599943543 6.726115313194954 -0.8494480044041693 0.3254988320053169 0.3811768422939113
Ni 3.5573203530524333 0.8978200279797603 4.112164761114252 0.23734727456904925 -0.1930379111287127 -0.5171190368508964
P 5.542570450155612 2.0176891869177433 8.470558586087854 0.9551524831225356 0.6726766916459641 -0.27747473871755435
Ni 4.885713568204739 8.004676092514073 5.243335340050933 -0.6875857475473125 -0.3821147807271484 -0.26012082082013915
P 4.307822329181423 3.1129871459174856 11.806831562794816 -2.436161897189598 0.15772483764971548 1.2435968334777165
Ni 5.814755410772491 9.03693658442335 7.75229867878311 -0.9434418795538267 0.9031416372728832 -0.08846523202194442
P 0.01637216680119196 3.6421411268190607 5.676809268188933 -1.2055511915589046 -2.0756248426332253 0.14090596632016378
P 4.865558228396943 8.774759920122227 0.03671157786285354 1.1898800606805509 -4.068597974602489 -0.12260254002528562
P 2.559358163119891 7.400367391126799 10.698905760791128 0.9242817616856083 0.578301779007804 0.3902788045951795
Ni 7.052713216424652 2.071874584161462 2.3410783304506433 1.4990557300458118 -0.9746668990063795 -0.9881245671731823
