# total energy = -340865.92519957514 ev
CRYSTAL
PRIMVEC
9.32989108102496 0.00000000000000 0.00000000000000

0.00000000000000 9.32989108102496 0.00000000000000

0.00000000000000 0.00000000000000 13.65523867692348

PRIMCOORD
 96 1
Ni 3.8574527971947448 6.3518738167409365 13.5049352362306 0.29976208936084503 -0.6628303949795036 0.9553581713754384
Ni 0.43788537602380756 6.699244321456501 2.0585816886363753 -0.4004981683303425 -1.878316329153617 -0.3512756838591047
Ni 6.343542224005896 9.00248654286865 9.197882451771155 1.8751605571334546 -1.693182503363329 1.216015581425338
Ni 2.708812586688944 8.666582474291232 7.004467976204238 1.8252924686584178 -0.46380592725005276 0.26735770488821053
Ni 8.229645015201221 4.361229595986687 9.399064759121892 0.632837191051523 -0.3315069858726097 0.9042184152768299
Ni 1.444080541466347 -0.007837108507764126 1.6168757222150327 -0.7180990856448214 -0.1251895840261715 -0.8321527076588313
Ni 6.218894879168125 2.885128868331475 7.805211476137526 0.13972454441755291 0.1153923954300916 -0.0973746186964323
Ni 8.630643733848485 6.964651733028365 13.602816056547033 -0.49737939233012407 -1.0793812458973346 1.304157882890225
Ni 6.64616657109856 7.353344325340223 7.162445423938602 0.5647998878666273 -0.1927895425633325 0.7990996338586045
Ni 4.043042990571464 3.7910519623736048 6.3564725200545995 -1.6613339913941647 -1.4365416706719905 -0.6983298734376941
Ni 4.281766913652607 5.8171497692344065 10.778338944152788 -0.24945434224522842 -1.6547558239560147 0.5994915257115416
Ni 4.818431578503917 4.050133707792774 0.29542726911303324 0.509144246175536 -0.6573750282918872 0.46967884109106206
Ni 0.5118910050648026 8.052190486846847 7.788033280679794 -1.1062330759828563 -0.3243719174897252 -0.21306526209323304
Ni 8.413733096113951 8.570381967358427 5.907638516847623 -0.4731873684649528 0.9190747635633719 0.1785921680170279
Ni 6.262185573782441 8.170932010630555 4.949136821620369 -0.21269348057611115 0.8936118434055771 0.024173769032726108
Ni 2.4663846968487735 6.843335159306393 11.73165228695008 0.12704257807451022 1.609908328624021 -0.9694737848412143
Ni 7.0182612871779035 5.976355030634986 4.765281987984655 -0.898936340942284 -1.0747103227842265 0.24411081854512795
Ni 6.486737392312044 0.6538620916611659 7.158253503876057 -0.2997978276947869 -0.9044086769107651 -0.6961400648752268
Ni 9.054398056841508 6.024870464254478 5.737098370773135 1.2255158076062893 1.206879680562341 0.8463148580918264
Ni 0.8355281328493545 3.83544358413544 10.95117331044401 0.4842276854395144 0.8218469548574492 -1.2721980421541768
Ni 1.9642686186691907 2.933149817723692 13.520802581991497 1.9994870218283824 -0.8318161502550191 -0.27902922768886784
Ni 1.6748460674556778 5.35722345852162 13.18799697024197 -1.5749935190247069 -1.1097729708153146 1.17338257724616
Ni 2.4881046832845772 6.015932428599195 6.244349621003521 -0.5282133469918452 0.9590389626611354 -0.8021245367278572
Ni 8.313940581115089 8.56500795009596 1.7667968090012363 0.09223704035955081 0.7147682214993755 0.07085394669808444
P 7.707171114683612 0.6152745951406162 4.125916681084637 -0.7917421650522688 -1.8039849654298932 -1.340353873194808
P 9.206624559713745 0.7880249924121151 13.509865150677626 -0.15990924689554398 -1.6497547711969973 0.37139996541280557
P 8.22255429797991 5.812111628050843 7.925978519274847 -0.7961125262058225 3.118603895752442 -0.01962574465072749
P 2.7746256383720014 0.5151629978667941 3.184101496055164 1.4666441464843256 -1.11111611510677 1.0552298454621116
P 1.18155606623841 8.946152660523556 5.679378066613453 -0.5579957204606003 0.0805637177866806 -0.36775774067452793
P 0.9138824241230504 6.658836563186111 10.247410296337875 -0.24555295030829324 -0.7029516884804216 -0.6626709865835039
P 1.2186703729573216 6.026251288134418 4.199941902896901 -0.28906347199641835 0.267596560371894 -0.028619977729537806
P 4.166421470222264 5.462427310347272 2.743910703945322 0.00579835184933195 1.3004927753338118 -0.020574738827558114
Ni 6.970828120923769 2.8053303099184914 3.2452496021978856 0.7369740681724533 -0.7977179230197294 0.5191558647752672
Ni 4.57049905292615 3.025105224214791 11.833384486304615 0.07034615382373045 -0.12248272661796972 -0.44374669460633254
Ni 4.749922188298545 7.227008270216849 8.94170976639094 -0.3168979777101833 1.1829871902154594 0.4215457330292611
Ni 5.375108859723268 0.08873659406826738 3.1759079857081183 0.030717483688514843 3.5647088061783054 -0.7684947644885539
Ni 6.350576961880723 1.4091307694781512 10.873147431336355 0.9762301297284413 -0.33187208252151235 1.0738078655746153
Ni 2.7899266597443027 4.522384804623127 4.087272272228495 0.34595324320492676 1.030217125467858 0.9605384300247973
Ni 8.792722601701911 4.345172853436851 3.809934728931776 0.6581661567346149 0.5228813932559705 -0.08384007454510721
Ni 2.5848836434643836 7.290386220327852 2.936326645636661 -1.4003978737615816 -1.7808108413062747 -0.16529596512875402
Ni 6.114073552876779 4.954134844272286 2.259477568330936 0.14523339005092406 -0.8352722271244196 -0.12617483075757627
Ni 3.6874621817049085 1.437624256838522 1.440736708503034 0.21169383566700317 0.9395960234451755 -0.5073233909167134
Ni 9.239027271436917 2.730112728026117 12.677973809371517 -2.530602372958371 0.43101279197943193 1.0605893100018122
Ni 6.937483090201449 1.5890857086421444 13.353635191542672 2.679431450780353 1.5868236788904155 0.8709941060060613
Ni 0.05732285079964618 1.6284391892204173 2.624727876313499 -1.5365550125428504 0.38961725975178063 0.15266979172431128
Ni 6.432754642519279 5.581747287377982 9.667335514266416 -1.0945003609269603 -1.493479264399299 -1.512548622325924
Ni 0.4201063355804798 8.066847745734583 12.059828406745378 0.8851254032011209 1.7448747895312982 -0.44462035546053746
Ni 8.30784816223941 4.0752964240373455 6.850177701424958 -0.0804513605785324 -1.2283206240449362 -0.3934515458962063
Ni 8.107871276816295 4.069120036141941 1.352892985011187 -2.162363064661734 -0.08926150267099467 -0.34674360031670604
Ni 3.1629823546049556 3.4908720467440775 9.666215927336735 -0.0006286347229344012 -0.3601781285550571 0.5691789907709295
Ni 0.14220153490605586 2.742372204906119 8.69979315458199 1.3604537292684762 -2.5692594232089365 -0.6492773388854173
Ni 8.136728629928811 7.309652445409438 9.92148641224945 -0.665232576663093 0.051237715129053694 -0.9819804019486571
Ni 4.657948122025285 3.0736299877253637 3.54489958001403 -0.7348948170459214 0.33165559563533203 -0.822168599862926
Ni 9.114939720063985 0.054321424838994124 9.95978934709204 -0.4564345744866462 0.3376457517804959 -0.7925410068044801
Ni 7.318068007164204 8.621248533530249 12.34160511221828 1.4016772546946377 0.33572565193964765 -0.5878284875513167
Ni 6.978627909867211 3.6613198268968663 11.298030671150139 0.3698380202423244 0.6871643437391779 0.9251929606459679
P 5.314511217154305 3.457200469833934 9.71941683225694 1.206670135654696 0.38183992979920695 0.20783383849096468
P 5.974554361656416 7.187813397786948 10.798549354211737 0.7475515865779836 2.6150469138566965 0.8662481066806437
P 8.481048260260998 0.6329454088474082 7.972775386957279 -0.15005240870612221 -0.3367173264289556 -0.4678189050641879
P 6.3566507209742396 3.751371935607509 5.525114848518306 -0.3093070527368028 -0.2846082644385421 -0.7205215790433849
P 4.195922585819348 1.0229852374313158 6.956702665827632 0.5795765319551696 0.2100570713945286 0.30821844765831435
P 8.5066308216042 2.0656005656963647 10.693895032970737 0.06383843461219973 0.49340780927688577 -0.20258698826972854
P 0.4152911787937452 2.5351273343311616 4.657774586051184 1.176862308264644 -0.7078488686717229 -0.7883889323093196
P 7.407308415350828 4.955758245320323 13.11098151833835 0.2973331682043783 -0.8142711993927202 -0.1574913814826707
Ni 4.553070816387456 6.043250349683401 4.933459805637517 0.8591467197491719 -0.7360638976533581 -0.13880100416201901
Ni 3.858208518372279 8.157608926167356 4.432286046457082 -0.03960527309644792 2.335295206179507 1.7201744585711407
Ni 5.690701755418064 5.120887987557129 7.01884720433777 1.2604709835252357 1.4482682150802992 0.9704988836716189
Ni 1.1108261619558388 5.287566491713325 8.255096958069291 -2.1699745584604044 -0.48424311205848214 0.3686802524887973
Ni 6.269640156755897 6.522190978418596 0.23973528327428847 -0.4589681395417773 -0.018954172504999613 0.9903794246456299
Ni 1.269023795119706 1.274425802055415 11.227869890223488 1.3383844081732628 0.12575239850817696 0.7241861723791657
Ni 2.549150160625411 1.4243384919396458 5.413128165877004 -0.012619488536223428 0.0979752283949087 -0.25198585041783056
Ni 5.183958051262469 8.068779033188282 12.596274752145401 -2.3824893473668065 -1.1452302831816599 -1.277285226869097
Ni 6.263043923761862 8.86354580489529 0.9119203480287853 -0.8365168981647981 0.6576521932126739 0.32264927837166374
Ni 3.7023713476518214 8.336994741975428 1.3188388825667356 1.6135425829424985 0.5562743668941195 -0.8506651646407222
Ni 1.4387251839860413 3.917835852268851 5.85621309020007 -0.6825271020774826 -0.04033598061488537 1.0863160253439548
Ni 5.595312949009278 7.3341434094962015 2.700214159068997 -0.5358335825412642 -2.23992527661793 -0.2254368962847085
Ni 0.2764512036440553 8.237631401966276 3.7864476611252935 0.34268022888060984 0.2377378251392486 1.0472010616203642
Ni 2.4735034037433263 1.235361548100643 8.775088174570334 -0.42246978750542724 -0.28954786783200454 -0.04975290305341109
Ni 2.069491130277005 8.177033759397315 9.450626402179223 1.8431667778356775 0.852772440791712 1.1289161194026687
Ni 3.249190548190361 5.524331137667529 8.443894767999547 1.927797980823512 0.07675565689450008 -0.14170583651363983
Ni 7.919659384045908 2.091948178108181 5.603235892514984 -0.3948551111119522 -0.05112330103837648 1.008229308342857
Ni 4.8336393009654115 1.2706658559499042 9.240704785853222 -1.9767805813698023 0.8240506473769872 -0.9499076897838286
Ni 5.004805482731412 0.8766496277874144 12.994584596183216 -2.1902582484101054 0.9469830599378658 -0.4024308665766811
Ni 2.8008986116551724 4.24235745372785 1.7127898014916607 0.42046664103246945 0.6932866545868318 -1.4189270429140206
Ni 2.1981223386062236 2.5666716960749123 3.1247008785118524 -1.0236214745282113 -1.1558970188668867 0.5502055349922201
Ni 2.836510805910096 9.404343611495339 13.016623664893977 -1.3033785815220391 -0.3694137882207122 -0.994562609489042
Ni 8.740102016006924 5.804694364641709 11.576555909581428 -0.09853161511901096 -1.3209261034874993 -0.04107594410470345
Ni 5.535153811321107 1.6394298009134485 5.17843475574271 -0.5772846505971994 -0.21737057433680626 0.7250240948994288
P 3.596253166500263 0.23474192556791304 10.88196884335313 -0.8665000747904497 0.15286185313045933 0.011934289543740737
P 2.1997457396542606 3.1944893967843835 7.782734835535079 -0.3872682999036298 0.43415185182904587 -0.7467982533517268
P 5.758464754336982 2.037097748444913 1.6210135289093108 0.07423340469327859 -0.034487749364224475 -0.6226389103622825
P 2.834887404862059 4.257873062595007 11.648546282148997 -0.31580654441821737 0.7824527693305428 1.6622670447313952
P 4.361182946531284 6.978665229431534 6.923396820647851 -0.09783587460356699 0.3913650956808228 -1.1288780670758816
P 0.7166895781984082 3.9152794621127467 1.4068720028475206 2.6111234104325742 -0.7094234122476943 -0.06399270080187688
P 7.5565586829683316 6.412937953863932 2.7646398559483583 1.6595730428389999 1.003258337490827 -0.7702212602613573
P 1.8190115444342148 7.408381352825105 0.49927605933462654 0.5307073170582924 -0.2075661866518748 -1.0433930007281835
