# total energy = -381169.06733412464 ev
CRYSTAL
PRIMVEC
9.21638306910393 0.00000000000000 0.00000000000000
0.00000000000000 9.21638306910393 0.00000000000000
0.00000000000000 0.00000000000000 13.48910822790753
PRIMCOORD
 96 1
Ni 1.2026181813944496 7.910522993791347 2.811076105985019 -0.8100476482296759 0.720905701855681 0.8894453707327133
Ni 2.441834620073666 7.524135348763252 0.6936222270899925 -1.3726405011426552 -0.007314531383542241 -0.16377978559454373
Ni 0.0527462821119236 0.735644325828319 6.7115867574448105 -0.33462496267630115 -0.4179469599344093 2.230488556685062
Ni 7.95030090324515 8.032833613893622 2.676387883381246 -0.3201949032939002 0.884492140492496 -1.306327379737718
Ni 6.669831933816345 6.427726766197726 10.328300089062589 -0.1987028227239739 0.671182880709257 0.46503080079608944
Ni 8.588526216444045 8.970416266519994 4.718881231981656 -0.15241062452565365 0.5390654592150006 -0.5698027403978574
Ni 8.080454665364384 0.92277192498683 11.975684329308644 0.06223200935702831 -1.8112347050137712 -0.4822785321329436
Ni 4.884683042288184 6.464066964755729 5.811431836582085 -3.9973483351278833 -0.05805036717551292 0.028170291786628904
Ni 9.117205600132303 5.102392443844658 13.086808710767796 0.3218285822425812 -0.2766666409939622 -1.4471760104573852
Ni 5.761419133697223 1.2529488494962153 11.525013333805727 -0.481393558424829 0.12423364787080539 -0.14838453408539606
Ni 9.188337644887739 7.406893739365238 6.331517864669156 1.6626326556009299 -0.17767094175433917 1.4679348402712913
Ni 1.893708668047241 6.895338395474283 11.985234345475474 -0.7344770127822124 -0.09872290519421062 -0.3367368668129813
Ni 4.395486643794571 9.226152464741528 9.55956894791009 -1.4048800779026513 -0.6803462923760799 0.8330191694241846
Ni 0.24447654298990387 8.755610025639598 0.6956590477547957 -1.5379992011885448 -1.9429788023290084 -0.7427204837379273
Ni 0.3636840069028625 4.782556301171967 5.08509697932172 1.122692249980144 -0.4872937259593479 1.5522780797050622
Ni 4.8760196421754465 0.9974430608521486 7.297782823136857 -2.375807050250624 -0.7465910224369272 -0.23289875187939243
Ni 1.6560181479328784 0.2901842733293832 5.167893278526814 1.3434461389668864 -1.5960392839514126 0.723556766325283
Ni 9.054488113145943 1.8629075157315296 0.30942623796275914 0.11105211618352488 1.0166638122634555 1.2001163936965782
Ni 1.6276224716059164 3.4059328068748735 6.877677962180638 -3.196905556977823 1.2334139794074435 0.17133702911651139
Ni 3.5551829147745244 3.143754356867379 1.4232086243075641 0.3883985568533311 -0.35460989043866026 -1.4487397554000792
Ni 3.9175618818306175 1.6254013232791398 2.992491390898982 0.26216099117861946 -0.6003489886158305 0.9441710444103674
Ni 5.963110461428232 2.559933353099856 1.2698360282478842 -0.042299017878527155 -0.4343984206222132 -0.8998472827923277
Ni 4.26676142105563 -0.017676101144914167 4.689650551345955 -1.3327071552828273 0.7662591902898158 0.93852181654439
Ni 2.5856101964127145 5.153939674515447 9.073894129398475 1.1657605419245278 0.1499534212344127 -1.497684560729898
P 4.21159215182707 1.677602917149933 13.018837885415202 -0.03585686179760921 0.6902689508064305 1.0271811668550117
Ni 2.299478366731811 8.861976302981198 10.394599062521086 -1.4984965151082321 0.5685058759633048 1.616723037553009
P 8.981522008153876 7.746102719311306 12.199388066432485 -0.3115331138538441 0.3981283825465853 0.10991671702750101
Ni -0.022437284653680348 3.4751201947964914 8.917703163387227 1.7524335757151623 1.7641464932767166 0.7044568122710384
P 4.8466746783893235 4.625407752956766 8.747889461517852 -1.6281227947495185 -0.9069646105633992 0.26385046306590043
P 2.320242877853085 1.4326498871538285 7.188845174910733 0.45752832177145725 -1.5871244979602859 -0.018530968924651958
P 8.12783609087458 1.9141782549093582 8.09975100665804 -1.3815262336680594 -1.249664379828035 -0.2936125248196814
Ni 8.6224609390133 6.596285196689063 4.379036321601779 -1.0592700769697565 0.1680676143366202 -2.1045111866502726
Ni 3.715455816860169 8.999106867106114 12.187166220805357 0.7682546234532898 -1.4313336441084898 1.1053023366384704
Ni 8.520748935136522 4.036333410823009 3.045462552758513 -0.23070354400028656 -0.6050458798708677 0.3933381602467936
Ni 3.8136195132439643 3.7344599988095997 12.488823047815949 2.1036596372832546 1.6779165783431942 -0.2780306112210244
Ni 2.5610301026885964 6.106176376268683 6.614154841879048 -1.6586315048613371 -0.37610431286701035 1.291693174764311
Ni 8.243953301534559 8.44074151345708 10.159025545604486 0.18080691628015957 -0.8104171157539527 0.8419910339054918
Ni 6.379008965138225 8.212009317714614 11.862321895556855 -0.4079962764796006 -0.05287833605627023 0.08927744351059463
Ni 4.941354581961826 6.481550443493882 3.4810131501497725 -0.9898595475864178 -0.4594425080750345 0.9269366828099519
Ni 3.442402034796259 8.18663661504401 2.672853400462911 0.9255475157719093 0.42636912255983345 0.14139678991365326
Ni 4.825172856620156 6.952996088139481 8.563911100464152 0.8665712943480173 -1.4498864674100127 -0.2998029699011095
Ni 7.578677903941104 2.4354015846708035 10.183885817374803 -1.127471159426026 -1.6521839494637804 -0.1654566590763344
Ni 6.653555801264117 4.9851139689142485 4.890678299493861 0.6645244948524749 -0.5308471850702663 -2.113775128450702
Ni 3.889516428061404 5.909093240087003 10.904649371052031 0.6106552556378452 0.13660631050354538 -0.30180714481533183
Ni 6.758032720070492 5.646057666451334 2.4495008075351286 1.4702945987527194 0.29052642969518994 -0.7352583710329273
Ni 7.041233739926023 0.33263862043503656 0.6147336743187285 0.2112922293532103 -0.2121625477733056 0.4929774066076864
Ni 7.374424421708669 6.986350178573521 0.14067887161789971 0.1381001214402525 0.1847623013834818 0.4649282137799542
Ni 8.026806099347102 6.777092200318514 8.53256249499238 -0.0049892256844752784 0.4073486155932727 -2.0125222577457857
Ni 3.2559177391780345 5.484153464557227 1.8935197321937187 1.3672273005468838 0.44937355387480676 -0.10502416482189007
Ni 4.876010425792348 2.508349256896673 5.213446173630236 1.5217829964399985 -0.8321221115312121 -0.8302030401316283
Ni 3.1080408723600836 1.7138417354938522 11.01760720558579 -0.12032017174901213 1.4623971982825137 -0.2191693181084419
Ni 0.5841444988142861 5.792321666227019 9.895043449424584 -1.3220154798969361 0.6639711934521662 0.4648353969558317
Ni 6.6800621190558545 0.97835593145483 5.910171556909545 1.530127511749952 -0.16312312584715133 -0.36559698557778325
Ni 6.9189968508885356 4.612302056190476 9.018534081039773 1.5705966755085918 -1.2387143085744343 1.400024292472247
Ni 0.2690805993100785 2.8513553866793893 11.552166641690992 -0.8492592854321309 -0.6708571219387222 -0.30966057942147956
Ni 9.178282570927104 0.9880976483901104 2.524041070760447 0.6947760946481647 0.6227204143324953 0.9577973769445505
P 6.080204608696668 8.378217570515792 7.550649961299779 -0.32833784411600875 -1.270163014002019 -2.617582021573724
Ni 1.3568912180828683 5.525958978292735 3.067126582870216 0.5796775763094081 -0.3550441497626014 2.312482579160366
P 5.902070356165827 7.825050256934403 2.147655044671015 0.03677757383966569 0.5922986075075284 -1.0511171088453188
Ni 5.802662448063713 5.700646303544679 12.270718263424541 0.1474738493456686 0.21954187095651223 0.001939126004241822
P 2.224383277243954 5.08742503769244 13.567884554113183 -0.435483940376908 0.2760511188971504 -1.0321678214363255
P 3.444374340779372 5.125295155844822 4.614623663093028 0.18354874069135485 1.3436991355179568 -0.5589791674197921
P 1.8518386396300426 1.6179176202030305 3.6305259249677353 -0.6008179578324491 0.4518515831016541 -2.288919447128445
Ni 5.0504212595513325 3.8548812603766516 3.0724407493649015 -0.08268616344632211 0.8897652159659775 1.1515505689727328
Ni 5.322157098832133 4.827052998772282 0.7301762457358858 0.004088568247076829 -0.44832994310164076 0.8163373378931296
Ni 6.243611081035856 5.0869089202389155 7.034300254920904 -1.9734008662642917 1.9177781346936649 0.27093282383397854
Ni 0.2651295358756843 2.376582627735175 5.14918402083654 -0.7866950895466646 0.18039399711245707 -1.7124254107533412
Ni 6.450988917138736 0.30813778760556687 9.0954761337006 3.0341033048052006 2.3038123050798776 1.6349408461126167
Ni 6.836722198966826 7.08448622580802 5.988989143530951 3.548914005237894 1.7274403961049345 1.0053944099972234
Ni 2.744943027422296 3.1867395676395156 4.917198441860246 -1.8841401349242455 -1.3855656938447558 -3.114457477684236
Ni 7.070606352861443 1.7068280679557741 3.1514472718398285 -0.8005397087392406 -1.3441169397816657 -0.2283201313697745
Ni 2.0577418544371375 0.7247837399848616 1.33100977106522 1.429144606876971 1.013136001615855 0.31650614158840334
Ni 2.688253054982457 7.308877505111021 4.6944928390259895 -0.23543051716231067 -0.5196402606108534 -0.6686703987000484
Ni 6.279324565543152 8.571945943249561 4.312306021414264 0.5908479911039308 -0.6675468266185666 -1.2429741122920528
Ni 9.16952700698338 6.311849181498312 1.627973615801975 -0.5413413997333709 -0.41963026117410307 -0.7284120375350551
Ni 1.9326571030221653 2.7552469437265943 13.061854431889873 0.1669664108526415 -1.848888253700487 0.11237392031874197
Ni 3.6830970958007843 4.013458347972143 6.638287019384572 3.730137183119866 1.400705891920304 2.5436880024977353
Ni 3.4656181038217757 8.352448563371947 6.85157716524524 -0.5842235438088776 0.09307393443854937 0.5783472875337589
Ni 2.2078767351142594 2.7843891470845477 8.95644422974243 1.1731771461035732 -1.4151488068185112 1.8742095060740949
Ni 6.043311427152744 2.8651799613273745 7.2242941492230965 0.4865306225410782 0.05963262406096827 1.2054488616530852
Ni 0.5508678259982753 0.9586144388575067 10.08577926256622 -0.6153883994474563 1.795158625387515 -1.1802106559115868
Ni 1.0192398068804722 8.420815693197785 8.413803868936327 -0.014574041159432964 -0.36465339071759134 -0.27522733744427436
Ni 5.6883516484910706 3.6258633567581247 11.002687724625684 -0.7556197082980987 1.6656619293455572 -0.28170908851387616
Ni 4.859752726006317 2.297939230754335 9.322538320825592 -0.15529334539008738 0.8864564633077185 -0.3450276460668638
Ni 1.3119152685614224 0.5096641420791097 12.311509053380886 -0.07732464202409264 -0.3457447267385465 0.2938760628937132
Ni 8.111753502367423 3.851950450551278 6.861464501033479 1.4319987884963143 -0.4717190114495425 -1.4140180356481775
Ni 1.2976667402908988 3.5752193316310046 1.5080011920918281 -1.5343742028414478 0.7429883926873333 1.433309536887938
Ni 4.648900313475243 7.297651950496856 0.37888366590916756 1.5485628356370038 -1.832479216214844 -0.7373314515118721
P 7.771632100494586 4.186809297674781 1.0087515629142005 -0.7837552901920503 -0.027595907340397637 0.44560843040541964
Ni 7.207626320389176 3.0534522352667386 12.679275917996454 0.10677225786124837 0.7660920685843323 0.4295470060671828
P 0.3064097157745687 5.417620394968023 7.590348609858934 1.0789045633712322 0.4025388529094551 -0.24972405096684733
Ni 1.8468986582891624 4.378473200594452 11.336988058933407 0.9576899048324086 1.2209857809464197 -0.6300804542419922
P 7.2636895787783065 2.9237316431531424 4.766255284385371 0.016187151282823737 0.6473821787452334 1.1603028612440662
P 2.9316577326179867 7.494338782205295 9.199072887921053 -0.28725521514308594 -2.6750855151068316 -1.8571512650402275
P 8.141789694885945 4.468600210916217 10.867351590290076 0.004048716148076898 0.7332320846315178 0.7068492237626148
Ni 4.666586552641566 0.1885708847517607 1.128099115850259 -0.13476282953690338 1.9634810360474189 -0.38649799739650853
