# total energy = -340857.5314825008 ev
CRYSTAL
PRIMVEC
9.40843613331474 0.00000000000000 0.00000000000000

0.00000000000000 9.40843613331474 0.00000000000000

0.00000000000000 0.00000000000000 13.77019730039917

PRIMCOORD
 96 1
Ni 2.4408776778545147 7.269992832327797 12.098385418891354 0.6534538388606101 -0.6281888936462342 -0.7704063796889701
Ni 6.408170656564498 9.191270797287476 12.831317662070385 -0.041245894023664444 0.6387455861161581 1.6458523508187977
Ni 4.608788392625432 2.9452639492125834 5.468517191306523 -0.17782289395117118 -1.7831844837447741 0.6891358656432518
Ni 5.596796516373331 4.515757774248477 12.003990577247343 -0.3627600303496204 0.6395801662023114 -0.6143707568162193
Ni 1.1417325648543992 7.95926428589921 0.1576590491774189 1.5148448745592684 0.6189424353473018 1.1052506574649286
Ni 5.360315469356262 6.950510560055722 0.17578722428752383 -0.3222129621651934 0.590046321138242 -0.3791965786390889
Ni 6.344579035446998 4.688440214548906 3.749735119672443 -2.2854520574051347 -0.4966196313459641 -1.8644737668435696
Ni 5.073057091495703 1.0438001511523634 0.6709532280475528 0.7843358452858685 2.1123180842892006 -0.9904169627517846
Ni 0.49564207063805016 7.85050276198764 6.069434960197904 2.061360362294411 0.1363826245285135 -0.03216732876116395
Ni 6.042972792191531 0.4238218311111157 6.88135290800863 -2.1739032040908497 -0.7596946496984207 0.9914731719304408
Ni 3.0339855037529038 6.475450384721214 0.6488989124592214 -0.945595949782352 1.8197661395235498 -0.7761026587427989
Ni 3.4335806113283542 0.8835678946401856 2.1003816630516012 -1.3072861441065615 0.43515483917226344 0.6471816326986531
Ni 3.342619848942795 8.243897710025225 9.855839460445203 -1.0014454526518042 0.6539500617707382 2.8291683851285856
Ni 4.383324624544389 2.2384175365869474 10.930286652081092 -0.16341751715911856 0.21407339164277323 1.199909677002411
Ni 5.4070753978891775 7.99070728009579 5.000592374080539 2.6871535020149593 1.489670689286486 -0.9978657057203459
Ni 3.6594677590440017 7.286307060914533 6.031511435060987 -2.2230565258870487 -1.208507703084067 0.8900372386804414
Ni 2.335606683819345 2.8579724769935915 6.428698923780991 1.8522204033975134 -1.979143939395656 0.29417019709536435
Ni 7.141520634316336 8.053565043179978 8.568009873812601 -0.004270859461211999 -0.20827169735933163 -1.017362638102693
Ni 9.280067619318395 7.203757440603103 11.704171936893536 -0.07535517700254764 0.8639963345319894 -0.7070307436458017
Ni 8.95969154559549 2.9014488612492455 9.886892004534316 1.7815055533804545 -0.2046346148273766 -0.3227966025828054
Ni 4.797389907186966 2.8417241074611272 8.574399142920589 1.213717786530097 -1.229543954929076 -0.4993979654220496
Ni 3.6737497653846387 0.7415804778485366 6.720999282667865 1.218358627736218 1.1490743395180987 1.7888794772470225
Ni 2.4627522923090472 3.456076182580306 10.160959754667884 -0.7845613310331133 1.3500425612374813 0.643894220196633
Ni 1.9958868650132056 9.083167863918623 7.932459650810624 -0.6202277298176286 -1.2969171421674117 0.48771770087064387
P 6.404021536145381 6.8353230741344975 2.8563241189495336 -0.3836111627670168 0.1599483276635955 0.07125915255630308
P 6.368542322765577 0.3849320595636698 4.045146848451839 -2.0633784211657042 0.7396819540219197 1.658111370691809
P 6.077577020993153 7.094177382731299 6.656279590035054 0.8877669545890259 -1.3385538438715914 2.9086913203555778
P 2.571758435565055 1.353977479899478 12.919708980495713 -0.7914976531416303 -1.6909255890083523 -0.49682917625360884
P 1.088593716493452 1.0169578823184786 10.299750184796457 0.4705393893191444 1.4290538469353775 0.39740101746225753
P 1.0541776564183205 3.2981461704367403 8.104698012916534 0.8040045273593897 0.266298924606393 1.3910143756641526
P 4.570947661728171 5.018967991065979 5.251443866739695 -0.9197795029398803 1.1304970907365435 -0.2913296423227757
P 2.3864780990260805 7.212808356347302 2.4915929130182626 -0.2628256213458119 2.223568689636777 -0.7395917083009584
Ni 9.298762182295235 9.381848083477163 12.44290165853574 0.2043929311302157 1.5776183582420635 0.06043095159254753
Ni 5.759741225077871 3.686959209984279 1.0137082084119857 0.13055264811029774 -0.019110752687521926 0.9133823411642851
Ni 2.1760960543732586 2.033040780058776 4.0989329972319135 0.8135196659386765 -0.38626171301598644 -0.5327048071042955
Ni 7.093067187245005 8.440797465424994 10.877809216793759 -1.0090723730694426 1.017138695017345 -1.604425965353211
Ni 5.4148561747295645 6.6211212043339165 10.103965329101143 -0.1063786219672555 -0.6450846409603084 -0.1598645097005376
Ni 7.8992949127666545 1.8944827383074183 12.29382592581719 -0.7219369713336727 -0.9368202604722511 -0.29416891154378366
Ni 2.4787842678060468 5.878861437382749 4.001178402976412 0.662639104904304 -1.742829219856179 2.14668730579769
Ni 0.9776682522272401 7.0023228188949105 9.621567514277134 1.1506835929867472 -0.6052096591422416 -0.5085112405772275
Ni 5.9942935426484105 2.245718483174783 3.1862864484435023 -0.5405240460383981 0.4619555043048754 -0.24903062444424856
Ni 7.934708267092186 8.862238962146003 3.269003538921508 3.314088211539118 -1.7019358240759268 0.37873557984227035
Ni 3.6051246308335148 2.994837000206533 13.755531883319804 0.44454862168233766 0.20659893764259904 -0.35298675301294047
Ni 1.7228070006937142 4.568219215194057 0.27617806240115933 -0.4852219310319837 0.22316224131791892 0.06860037477721734
Ni 7.984234275904513 4.269219108800485 11.710203685421193 -0.07594447384711438 -0.6492891659599592 1.2355261406544398
Ni 6.965234762903612 5.360785891172489 8.58058236727307 -0.691403578631506 -0.3109384176926387 0.16974577336999153
Ni 6.489243152372975 4.177910234270919 6.127104911492745 -0.017412281939176464 0.707841155362239 1.5471027061517098
Ni 0.9209692515610908 3.743231067641295 4.9736579025706735 -0.4767038662586435 1.3851144652399499 -0.7963313270848479
Ni 8.437833807982768 1.7099833019833792 2.206027112852487 0.5658357853303093 1.8099296130491023 2.2197254046312866
Ni 4.417354938730214 8.195143192991509 3.12354911334427 -1.3747326077849937 -1.0474193482787575 -3.1068912353012044
Ni 8.818536775418561 6.052729340660068 1.8786953821548564 0.34243674541123603 1.1847118862160502 -0.3045415130273594
Ni 6.770668299712326 2.2879717707082485 10.296555079820646 -1.126841753372143 -0.37599684075486856 -0.795953632030455
Ni 0.6014700441036317 3.998632480106994 2.461657150320872 0.27793959416911485 -0.5639768777446996 0.5831156554566796
Ni 4.50938826285677 5.686280154255938 2.081145174142467 1.4617400243144891 0.15315161645673625 1.1426280696721225
Ni 4.63578119644051 8.120411983265765 8.128713046634898 1.6544076965879764 0.41003130463175835 -1.5026143939313477
Ni 0.6375984395898281 1.0624100382022843 6.341451671212724 -0.33709810680714203 -0.008042410688502278 -0.22640774483841009
P 8.092007914002007 0.40579997133147805 0.7590039610779343 0.5594211400532172 -1.066793381929995 -3.2015661956782866
P 2.3128853100956044 9.196398395084346 5.514454822504674 -0.9909334973768871 -0.9223603762931792 -1.1458190658055942
P 3.1649885711356633 6.480399222227917 8.653619117616767 -1.17904954572395 0.0575456596249525 -0.37167455923043086
P 9.207048745003714 8.94862722447784 7.893105102508746 0.6969558759083029 -2.232404285650536 -1.728062860180282
P 5.157836511216046 0.5448528968335058 9.763097681063412 -0.021193860468795754 -0.20771325375270036 -0.7927389817478993
P 4.930698041469236 7.8530900819768865 11.760327129940128 -0.6565337633375146 0.45359864769974784 1.2097701147362585
P 3.780723686394548 5.099325445713792 13.047703229941886 -0.23973043008924522 0.32864663360567914 -0.14406019567842931
P 5.721759367635742 2.5884207762957985 12.942815159265127 1.1294951318345903 -1.718400911610486 -0.9002123794412303
Ni 0.913063342517588 5.115837251463343 11.475959023718463 0.47273613986014706 0.2630670479326566 -0.6543364985758795
Ni 7.120690356293825 5.486548459522485 0.35713671613011 0.6138642494934461 -1.1868417880748594 0.09755433880740617
Ni 1.8705382678614886 4.976498309497049 6.792466705832629 0.29121857066620815 2.2503783536304534 1.2737887836800643
Ni 3.756421695368286 8.744605282780402 13.639476939569459 -0.7304627494164968 0.3471961144730924 -0.578397424045404
Ni 8.275980477891872 7.674386242428757 0.1810399542875091 -1.31771633830095 1.589693801349359 1.7194337237503743
Ni 4.116021540128158 0.616768161567318 4.5305054981871775 0.7381315788156644 0.49258197094148076 -1.5195265963056541
Ni 2.6811597331466936 1.8770206804890899 8.584768180593855 -0.7807599550091522 -1.4978316278307238 0.44620081257377997
Ni 7.722228141138994 8.37188066934781 6.120728814195611 -0.12797331741889575 0.9078357003144429 -0.4383597192628063
Ni 8.441042084769432 3.197475901764266 0.24550844167045552 -0.2740477153138764 0.9123389875014353 0.7732083679141394
Ni 7.069828349523415 6.778985357423211 12.332520001889085 -1.6886694459843241 -1.409430416277495 -2.4278490064485285
Ni 7.3038914284050795 1.6765927614676213 5.682671078081849 0.5769097837562838 -0.4328483025262739 -1.0585643091519834
Ni 0.8884790984015903 3.0938984262675127 12.496013222431346 0.02854824395133793 -2.04653383880454 -1.8094727280173417
Ni 1.1798461404050713 9.34217270749662 3.2533328473793706 0.2869651947064929 0.06509313295490725 0.4678343316831556
Ni 9.00463564591777 5.998122776232495 7.810442580961422 0.679024745351179 0.41966368551519984 -0.9138199429223359
Ni 0.5019993510625352 7.069386153016161 3.5068149388348653 -0.6915676150131961 0.25644311485823573 1.3969556808492523
Ni 6.396645322066949 8.940376025821228 1.6567475467282895 -1.456370018251827 -1.3171018446454026 -0.36386123383359914
Ni 8.731574598470928 3.2953424564120306 6.899158373752803 0.5359335984542383 0.6620469798462598 0.09367814368145157
Ni 7.443757242805546 6.2259198365220225 4.908111208384935 1.464478763401891 1.4902476448358786 0.7757470751755929
Ni 8.053311015399215 3.465428168286889 4.613057941029504 0.7359708237189196 0.5792538585084281 -2.516742327146827
Ni 1.117016602629858 2.1248294848408933 0.8218109186059688 -0.15540904503234526 -1.8932212712899075 -0.3051873741414744
Ni 8.03477639583989 1.2038941036505706 7.942292407613389 -0.7271416554630639 0.9370328907036894 1.0902917221622515
Ni 4.518410953291994 4.99691461632128 7.6608155138742555 -0.17817590641521572 1.3525223902365415 -1.5504309991939944
Ni 3.7641083878454276 3.858983059741991 3.431037510989834 0.7200032446460697 -0.39139080671243565 0.37763026259323346
Ni 9.039625620608698 8.966747872838885 9.92707355438912 0.47252788050408306 0.37201960127467537 0.8459289355073172
P 2.6274751954789237 3.0415781118667997 1.8952476441806025 0.11860935970549251 0.07716626206935742 1.3460437244907333
P 8.437909075473364 5.706066095846426 10.314236354205336 0.32241067999829637 0.8729939100449094 -1.9440023584975163
P 6.9576609716623645 3.1526070689325816 8.093378723174492 -0.565659150543129 0.14621683701011592 0.7487386649075493
P 9.394671782187498 1.7410593671633028 4.288604251003547 -0.0564007473872319 -0.3041375927207214 -0.32647045188996676
P 0.20086258877966195 6.091943703260711 13.458192365937512 0.7719138174724319 -1.632232446042518 0.7624752977673513
P 7.848856285630847 4.243026022072993 2.065364403895332 -1.3265920435240248 -1.949990971980784 1.1150910405941183
P 0.405019071116542 5.818647444905755 5.429354575105664 -0.7567054851631096 -0.2306248682435512 -0.7273329455382636
P 4.484982779030938 4.560767733625029 9.800965696426012 -0.3730950937270413 -0.37467066574427726 1.7070602897866858
