# total energy = -381171.61754175444 ev
CRYSTAL
PRIMVEC
9.22050620499835 0.00000000000000 0.00000000000000
0.00000000000000 9.22050620499835 0.00000000000000
0.00000000000000 0.00000000000000 13.49514285406250
PRIMCOORD
 96 1
Ni -0.07377603400399163 1.4253426868725134 4.57525837303194 0.5196104358141825 0.9098617296055362 0.051282195213743935
Ni 5.770533762383127 2.5376676388310124 2.4846718590150645 -0.18975409817111835 0.8134211926875992 0.7072148346321497
Ni 0.2675431217756142 6.499562283318425 5.1477623516501705 -2.1198614438540972 1.2143981004265731 -1.4138210891460232
Ni 2.3958193757840816 7.070311599660404 5.44572207834903 1.8399750103712569 0.7372939134057174 1.934402373513907
Ni 9.094000577088332 4.029895875634781 4.562397611377114 -0.024615998776467283 0.17688032753224375 -0.24631965327098868
Ni 5.029961168038132 9.065168055081848 8.022173931224135 1.4920805842795593 -0.24875448796472643 0.8129200846814646
Ni 6.060011545687755 7.262835763234242 5.2140909830239615 2.1757723960891044 1.3293222979709942 0.9922064505520396
Ni 3.5501529527062963 2.2911389720937665 1.1657550176031977 0.26894587531093683 -0.4912573385927862 0.2703124166411603
Ni 0.11952449616816556 0.9075190745015025 12.47300710919234 2.0597842760565426 -0.5864544900219254 0.4626761845209838
Ni 8.731394961345767 9.044615547389984 10.509193331045994 0.4085866017654318 -0.4895606676166536 0.2122597354728022
Ni 5.951403206476249 1.1028554923804175 0.3542850312019013 1.2033863226971016 -0.0032470461823879567 0.644418211020903
Ni 4.733715533389482 3.239615533884301 5.058600059420333 0.6036441144273346 0.7219305435757696 0.07435681764502032
Ni 1.3592224389324756 9.469920603376902 3.2688067335710067 0.5437654357938313 -1.5636940348514876 -0.28266373911766157
Ni 1.7992618633768156 3.6086386217459925 8.316111673241437 0.41372443721262936 -2.2695695818469237 1.6071765315151547
Ni 0.4817511491174876 7.0288008820162755 8.173711101890001 0.7059701635917712 0.06839880028937254 -1.4757993306210324
Ni 7.371370338398401 1.7405180201714077 11.660666707032357 -1.3258639071087488 -1.2939696295033134 -1.049809959998121
Ni 3.0393922478686934 8.244552248860202 7.579384951914961 -0.863795788485409 -0.41844858216117614 -1.2421187062702932
Ni 3.70813710111023 2.090362455723062 7.194827155682138 0.9626922431430066 0.4066233073914739 -0.9838585928079767
Ni 5.122636473022838 7.731680048167311 13.1359153821876 -0.45201381971113114 0.4536644679406768 -0.06699034997762011
Ni 3.701664305955592 7.8490663090130255 10.107011459800958 -0.03796285239701849 -0.5823003586442358 -1.4925426115176423
Ni 9.205098452897774 4.757559761694173 8.878575442965243 0.13509630161692218 0.9549205696173876 0.24422651818738583
Ni 4.8989931019747806 6.666637850557789 2.554130852148114 1.323554542249282 0.04486446461285822 -1.5855275857868112
Ni 6.811547321569592 4.695321346745733 8.831720520090876 -0.2531708718648672 -1.7160154420974447 -0.6879572719541185
Ni 0.667185665690754 8.691184335036118 6.293176011147034 -0.3159050176692947 -0.515858424970918 -0.024083009091132715
P 3.987094287162092 0.4047156662713815 -0.03047653821171479 -1.2754083215613583 0.22051143395863315 0.10202523009456622
Ni 0.8859135850337718 3.742474265149932 10.934263264131996 1.1758773186435556 -0.32428295732034473 0.5122277701968663
P 6.365293276136326 9.37421175194508 10.036445083907122 0.9508991071628203 0.6506868176384342 -0.5788100861027903
Ni 3.225720231465442 1.2184345340661482 9.14734489202799 0.7195972674569027 -0.7267994416322967 0.7533077723354704
P 6.565507341646015 6.101457719790455 13.587719250133082 -0.2502171885531819 -0.5520873253959653 0.027419015442901165
P 5.8529374237748595 3.3351491957036745 6.9826835996153696 -1.9491630767628494 -1.5455559304898803 1.1737440743506367
P 4.185289061875676 6.412723558579996 6.993762959526784 0.23625224173265766 0.3656170401824413 0.337391983898477
Ni 1.3627538926991798 2.7809783490027753 6.20391966975683 -0.005296472512248943 -0.058880062165659885 -2.1412255113521703
Ni 4.222558346797393 4.05186834123806 8.894270588139353 1.2045998833892286 -1.2703252506114961 -2.3669519138528394
Ni 0.2853516069061941 4.119463870125023 13.605263106743807 -0.7923713139958354 -1.5121192480979895 -0.5769257245958839
Ni 4.590640943055419 5.785240469322795 4.554367472772877 -1.529769871300217 -2.830292985651332 2.110646095903417
Ni 5.081144196390545 6.052570597411696 9.504979733030005 -1.0410923776194652 0.14216812086203903 0.9157349005568617
Ni 2.426615865551161 0.8610089985484781 5.5467871216687845 0.5147389666544941 -0.8795448237895498 -0.41875660031989814
Ni 1.7241516221664477 8.707476968993731 9.307531819295802 -2.0422110430594698 -0.014857119617490542 1.437992544185904
Ni 6.824972378186618 1.8121705716624177 5.07959883959864 0.7920239579587456 0.8145213677303134 0.1268235200851687
Ni 1.1465238084094258 6.58006652049099 10.355133429960883 0.14354648926680438 -0.14482587019986026 -0.604456840136617
Ni 1.1294935339783494 1.3677145248832183 7.895292393383767 0.5004302633413059 -1.2693723997799238 0.8021145094255282
Ni 1.5267590314677548 5.714500747917695 12.395504146696176 0.7011115499478893 -0.742737710129108 0.71762034623619
Ni 6.56332208174338 1.6602535161527172 8.057868353735008 0.37151077995905696 0.053465833128624046 0.40406788795947185
Ni 4.49970831368927 0.3698778287603169 11.339738700091043 0.7323352838488614 0.7603289408483099 -0.13995645792270092
Ni 5.822897015493079 0.284270041561979 3.3223013427571333 -1.1535367461648263 -1.0375398843815165 0.37896055136888285
Ni 1.9874431686631397 0.33587813523722454 0.7766330709408235 -0.9608202229312743 0.8177347324612884 -1.5145913637875656
Ni 6.574478893904509 4.855278683416181 5.890845689756714 0.3861961498853736 2.42226559882348 -2.203261602648309
Ni 4.960586081508939 0.5855722016562181 5.548149912443508 -1.4795780809371746 -0.9405013088682642 0.4687776694330314
Ni 7.061911718768845 8.968776886212073 6.501055083226595 -1.0921611712708224 -0.24098461421132047 -1.855302384756947
Ni 5.938227103519017 7.5051783202845845 11.007393862721706 -0.1603882434144915 -0.43189853701849484 -1.0214805169258083
Ni 3.735042537379792 4.517669859218094 2.528004548628647 0.17944474582531034 -0.919368383544391 -0.023728968185823648
Ni 2.866470879877135 4.328234565126883 13.501620009969301 -0.3224628733924705 -3.0585167006525587 -0.12403310182422511
Ni 8.915556126051719 8.742726963119342 1.1378427020873585 -0.3020735111028411 0.40787697729291683 -0.39615840330440805
Ni 2.463912811990632 4.650740200630816 4.387122248224617 -1.112633065971929 -0.18203256115714456 1.3064870452440338
Ni 6.389285032535709 6.668297541623081 7.764767833655085 -0.4793107077538713 2.0470305759353002 -1.8345037028440405
Ni 5.807876811352189 3.4024773299190083 10.57341692091864 0.6999527537530977 -0.2737384116035737 -1.6948771174569326
P 8.056334061550205 3.908388048643592 10.500651454363293 -1.591461434772743 0.20804389761924172 1.0257408348640593
Ni 1.37809681454721 5.008403625201177 1.9173894528983608 0.0076006951653933615 -0.37306938269542844 1.019893632054663
P 4.349644579869146 7.927873973096627 4.244101136824879 -1.299811175885755 2.2611703020396345 -0.6360042759255949
Ni 3.467666306761299 2.9623457004154856 10.629611294237641 -1.9713601816851791 0.699675331721995 0.11876028346105998
P 1.5465646781802356 1.4022822015708771 10.565845963509135 -0.9982444292160033 0.32671419246965666 -0.37505658832878636
P 0.3634483699834951 7.382849868266669 2.757557341919734 -0.5049335505282981 -0.3430808067531381 1.3872225127218882
P 8.616037211802077 1.2414765783559478 6.649177900550921 -0.7402069732874542 0.7354887418761785 0.24642146895617564
Ni 0.5044197629175968 1.9433322683500536 1.8984966362717903 1.217821010065193 1.7029814917316222 -0.4665516083159901
Ni 3.153984695421167 4.431541113435373 6.695520163296233 3.4066394407049776 -0.2613217831067758 -1.3747683461189355
Ni 1.7570503872828966 7.292627217856228 1.1241198231291716 -0.5488194532779709 -0.03860202864291416 -0.7596344858844466
Ni 8.153933116695274 6.020317267709528 12.048314294798397 -0.0812939110844858 -0.9529086813936815 -0.4738116323125131
Ni 7.756944234383418 1.0934229148260097 2.6314715337401156 -0.39326359825511625 0.49697624335443447 -0.7504967852492365
Ni 1.1308212868305827 4.979183841946125 6.385429016960682 -1.7900637273631106 1.1407105409344356 1.9198057066466547
Ni 3.6261207009670646 6.190592350502539 0.5383438482921592 0.841637250110499 1.597820030000919 0.8251292251531468
Ni 2.2571982898085508 2.21499603422055 12.501967796231089 -0.2755878061074866 -0.748090232690273 0.6092064390064604
Ni 8.131610271867102 3.5565243222958327 6.985571462068977 0.9653692757545373 -2.086636363252381 0.1117979932106139
Ni 8.027870359780453 8.426454389616172 4.1475569075568615 0.6147386816785992 0.7166890926711721 0.03801170335708293
Ni 5.0676545962320905 5.1951096495405755 12.11705869872278 -0.9403838094537933 0.7195743846387672 -0.6418566209413139
Ni 2.8757651498427683 7.934715588487996 12.185196393357739 -0.09753711241622556 0.008496467506785366 1.2381864610954225
Ni 8.18345717664563 8.87259778897842 8.342386426906188 0.41602814564514157 0.4357130256685786 0.6784452186986252
Ni 3.6962795304993126 1.7721166939533781 3.6692486953492613 -1.2280753408033493 -0.14183901965739443 -0.6545843529206274
Ni 2.6297067289073555 5.65854149749961 8.549537079018204 -0.5815503678520888 2.9617882001805573 0.8706608910363586
Ni 7.644103682955419 6.222605947050831 3.5974679788259873 -0.6437175854094528 -0.6436057424219368 -0.6413089759679601
Ni 4.761137317990468 2.606968961312859 12.330174096113335 -0.07175588968706352 -0.45055240467425633 2.873072542710703
Ni 8.546560699707781 6.205538790596082 1.070698055939799 0.06615191323672477 0.0992569233208097 0.006957919375071888
Ni 6.447540188927449 7.8809877005021365 1.4849108433070164 1.8782407387206748 0.6346541896556038 0.2765357718430527
Ni 5.1312576460564365 4.164570585077285 0.8338509204167549 1.8547318569654574 0.49970546936013943 -0.9594613949105347
Ni 7.826153351806082 6.77182538207361 9.63253621190359 0.14759160587045547 0.2240976086479947 0.8034052032124938
Ni 3.554919954266051 8.965051801821085 2.256509518016455 1.456051201459828 -0.8549601924716502 0.48361036357048964
Ni 0.6001756389296015 7.6674407834346034 12.346746111400273 -1.2406626905500568 2.399383552018984 1.1072651167917964
Ni 7.45944461092988 8.345636655242384 12.347623903563694 0.6860937363828183 0.7981334132905932 1.8091919635521292
Ni 7.973930400158472 4.1018066012915035 2.4555627218310314 0.106163677742972 -0.9632159768569605 -0.9452563070547462
P 3.1005795251424475 5.249160255233575 10.762767386355403 0.0199738720187656 0.22559450490849534 -0.038339261899830744
Ni 8.684268955597402 2.061742005352698 9.495600634409923 0.4098004195678749 0.3379627688002825 0.12350653989679374
P 1.6545091409656243 2.886728331379612 3.706063409329207 -0.575132380140887 -1.7230798051433938 -0.557657363284575
Ni 6.946968891991476 3.7630452138536303 12.494761048805355 1.3094695249111254 1.2156926508682804 1.9991180685247378
P 6.119769644544173 4.551361587843516 3.534741799114471 -0.3255047455425878 -0.525851788738204 -0.3506658181892477
P 8.121080454108418 1.857286507120597 0.3691484867421803 -0.8415650021116667 0.9143020247650769 1.0148077328913232
P 8.284089778237817 5.784761003015044 7.101211359093769 0.19183309218733413 0.1993671957808502 -0.6360693248355755
Ni 2.693401983790883 6.659067815198876 3.2977139416754286 -1.2886718714394838 1.1484261644111384 -1.8675107538976805
