# total energy = -340895.02782291954 ev
CRYSTAL
PRIMVEC
9.01764723039095 0.00000000000000 0.00000000000000
0.00000000000000 9.01764723039095 0.00000000000000
0.00000000000000 0.00000000000000 13.19823823943305
PRIMCOORD
 96 1
Ni 6.2776532888138785 1.9148523420361976 11.40443924467999 -0.019041590012483334 -0.3142705673896652 0.0629218363352013
Ni 4.614898298134971 0.12860698225254957 6.073301675267127 -0.6736855925264525 0.14192335184108462 -0.9615763843710086
Ni 2.7088652152784647 1.7225600283882194 4.780520919529438 0.27385359702519935 -1.193601732506512 0.21304495037825888
Ni 3.3092150924644583 4.403362324886319 4.73997577318616 -0.06179749292277099 -0.5801105500817687 0.08310396771003106
Ni 4.988968348535713 4.548961260178021 2.4733368892961876 0.4658658951028751 0.1317376695573344 0.030006316554103157
Ni 7.122967558245573 6.15337207203014 2.4203455859796907 0.020164904983649142 -0.20306829878152122 -0.2696508717977614
Ni 5.171494550024587 4.742425867990988 11.266993164423418 -0.6044460415033396 -0.9526734254544238 0.18662095185877536
Ni 5.560849512807307 7.9721233454794636 12.296495587764044 -0.21965628504718945 -0.35398228415699035 0.14517785422264032
Ni 1.9719611031660347 6.283108965504791 0.4800328182094049 -0.3194040319614886 1.47441479156868 -1.6573752638567327
Ni 2.5881820398165023 1.5400338268993468 0.6340866997249084 0.5386772226376465 0.24803252219703734 -1.2173083320948326
Ni 0.3998100232049432 8.845527586633793 4.861162133374327 0.8316220319663419 1.2985893876635117 -0.14868998114095683
Ni 8.609147994734784 2.581427821896678 1.7333243941170504 0.6064134496423556 -0.5201228566742269 -1.539199392144233
Ni 6.7436853076343395 0.5780095574602622 4.694587248411992 0.09364137690624517 1.0781792551694334 -0.10324804675807378
Ni 0.6610242161068837 7.354721097016583 2.2606340324709997 0.7404910801867762 -0.09312767049462027 0.6255815379303742
Ni 7.693117334211951 4.174656750944281 3.7478902742977747 0.1340488341890143 -1.0392838636558166 -0.07766351342075012
Ni 7.397708222282008 3.684764037042572 12.632364178386746 1.678917765914199 -0.02440002611091927 -0.14027090383932617
Ni 7.975477910320818 8.920437183776624 6.864602040164557 -1.0111647368220975 0.301643622654274 0.4352355718115279
Ni 6.801695833506475 0.8138156269831676 0.4563488690176468 0.20827092602838324 0.3549814148454661 -0.9870166788209841
Ni 1.8363988094561277 6.5070081333703715 9.345329793288633 0.06679288925483336 0.3753088135489085 -0.386760764139592
Ni 9.173742899888596 4.993368960478136 1.3437394813250432 -0.6163939578938352 -1.0507265582751195 0.2501662807105885
Ni 6.0497773384347555 1.9791391505147398 6.950812553057888 1.8239084438266975 0.008407250227088747 -0.12107736163001083
Ni 3.583297468239015 4.47733408669716 0.35153675302015824 0.055950547223690736 -0.6740977403632068 -0.16171621819729567
Ni 6.0101628133055325 5.521036599434778 4.722553678364932 -0.7552656673927897 1.1165689106912253 0.31895743134237325
Ni 5.171512585319432 2.8678192864036243 9.26763193956261 1.0748383637216585 -0.36948012268227337 -0.16079910569966502
P 0.18114650143315425 5.4287770486501 12.341158191920663 0.7478958572912796 0.9451544913695593 0.747828494388454
P 3.9532013655303326 6.241871263839428 12.320780112274175 0.012240250819933757 0.4275556866687669 1.0236140183290436
P 2.4704115644721676 8.533769479925956 1.5382681715339241 -0.09896510311200375 -1.077728797895576 0.05038770842393258
P 6.362833986371503 7.737403000706287 5.689364515056143 -0.3514595177351367 -1.2475288215422708 0.7943526060919223
P 4.512385682230347 1.038751824302393 12.617463417784986 1.1755340763715239 0.5117801411364863 0.18711357522447775
P 4.021023091798689 6.077894363099659 8.18230035926147 0.6087405551136356 -0.28214720449255926 -0.12617740186073756
P 4.7242913790233425 1.1683624707131222 3.8766523600859997 -0.19018372950936924 -0.26126059085153713 0.5650006910235237
P 0.3681986601636289 5.643595445560724 3.530528900813866 -0.7422144906357862 -1.1796277868249232 0.659176086056368
Ni 1.2997766466084504 0.9588284151923747 2.653307489505383 0.17811060039491905 0.18336053593994872 0.6333624674273738
Ni 1.8774832111153 6.516224169036675 4.829723909163533 -0.17128097906759535 0.20483747486680207 0.19483691201066447
Ni 6.254315617283162 5.514778352123218 9.21041677019318 -0.5934198655961651 0.437549307546369 -0.39602959103602764
Ni 8.636327184067696 2.2300010841750804 10.312733991180277 -0.07763497417565984 0.6826991088789727 -0.14764508481621025
Ni 2.4154309681341575 5.194922398029531 6.869590602718959 -0.9378864969532363 0.054410970650712744 1.1761316007462066
Ni 0.4184278580744618 9.040281718028249 9.455310824788981 0.169590735849366 0.26120916878831146 0.10008970363475021
Ni 1.5481406919326208 1.1589931350406286 11.451213781863071 0.09583195679966076 0.08194979950092983 0.27264157899496916
Ni 4.119153131055738 6.805465210129288 1.452175789821834 0.6482391274288901 1.2765858868092272 0.006181960440995805
Ni 5.769057974156874 7.739720536093997 7.903989608610271 -0.22928712326873413 0.0029269438388078626 0.686870723758159
Ni 5.273303789430217 3.172561663416369 4.50384597012077 0.37523219467470215 -1.2109739052363724 0.38194534502881966
Ni 0.7102199916230412 7.415518075942426 7.084656083168972 0.3454199964092761 -0.7262816214556137 -0.263709566612662
Ni 5.135027183845988 4.419179278466255 7.156836940201605 -0.34774530210834304 0.2675975888131585 -0.04937752199186335
Ni 8.208232407955782 7.127115676060152 9.051747656726588 0.06938276146919664 -0.4758818845779804 -0.25089750244965825
Ni 4.566230054993059 0.2962919396126546 10.308840171023027 -0.11034660547606802 -0.518243637373643 0.808226535860537
Ni 8.076096820266613 7.094381615914674 4.454973026382355 -0.5216102398530307 -0.3568503497334048 0.4018731943009982
Ni 7.349211314441132 6.030587784718619 6.851879041415451 -0.5030928977751336 0.7559686069970851 -0.014346241419343035
Ni 2.3689540133160336 5.397152159137651 2.6314775686237932 -0.7089860675999595 -1.0749990576692388 -0.6119955717158234
Ni 2.2183142131148768 5.172197926523579 11.43347606938204 1.0645814618803406 0.6418440225358236 -0.478538348364221
Ni 0.994592404871979 3.315211828000751 3.605257243243496 0.7349956042898438 0.4736673934251649 0.5484569277322296
Ni 3.38905734274767 2.739200581209425 2.6476065328045646 0.5173000425134511 -0.1569239390149749 0.21890192337966816
Ni 1.2347684263360683 3.3033085334023955 8.092434092102856 -0.9202317599859506 0.1161758105633354 0.3104884746394136
Ni 3.6819866016362885 2.4274875627387043 7.085223293191879 -0.8905442602238469 0.5763045460721172 -0.388392386205744
Ni 4.125267096008529 6.612532643514277 6.05993120943305 0.7557446639117371 0.8931850402808037 -1.0261720088642068
Ni 0.7949029150429169 7.5265162980720905 11.538282774791073 -0.1920575494933144 -1.3269046896684376 0.3380854104210758
P 0.3496782158862786 5.478662674194117 8.029108564839605 -0.19742318468060194 0.11736751687859143 -0.4600922258438914
P 8.377637932444195 1.7721841421569695 8.058501586614863 -0.06956016758732536 -0.7744872346265629 0.008726324129404326
P 1.7235970578418642 3.2409785544146437 10.35174794099113 1.6330981364769228 -1.0798610137472306 -1.0453015306048061
P 4.018994121128515 6.1575562604344105 3.6599772295709814 0.9591284370511483 0.8106068631672556 0.9638273851887144
P 7.017893930472818 3.7839401234006877 10.420893457901181 -0.7873964864890632 0.5830855735496926 -1.1120003174839364
P 6.616870131924738 7.769749302012576 10.301476360137407 -1.9199221776198612 -0.5079887924148542 -0.9682273140286227
P 2.2654133856051875 8.434413040619381 5.898517124090897 0.7097337443992616 0.6762448686131967 -0.6309368887050166
P 6.943146650983599 3.9735361604691892 1.5352851337663969 -0.5167408275758714 1.2302348103485135 1.0509088494892547
Ni 5.326877632770239 2.8899485931796582 0.5003784343251697 -1.133933113001286 -0.46301968390333165 -0.7514138977468672
Ni 1.227779749583246 0.8977852544918843 7.408619575663834 0.7823321845922785 0.033107838297562336 -1.7438566326794291
Ni 6.87549626001628 0.746431256614826 9.26983585259279 -0.5645088389887697 -0.35486700075478883 -0.35608827475639965
Ni 2.7396785165228437 1.5534701215596118 9.145666454637096 0.08379739423262987 -0.4239350591970441 0.9557497503869024
Ni 6.343184532636794 1.9800138623147703 2.4119916374070267 0.5690751182032134 0.620908300824421 2.4210661791987405
Ni 4.148721996955743 6.845873288231735 10.177531501602546 0.48436909611338513 0.4933306761820472 0.4910876457841413
Ni 8.087955026627855 7.061521308705275 0.320563839416392 0.33200783676842827 0.17853046154115704 -0.3528851944380697
Ni 7.717392841074657 3.942497418039235 7.989368694411202 0.1725009675176255 -1.2446067627994695 0.7573022382068442
Ni 3.0607248000763665 8.44656882934558 12.541322911768916 0.1321421040846047 -1.0062804121466025 0.19326082577279619
Ni 9.211617019065182 4.809679482471696 10.193078827524536 -1.1400777924464431 -0.6146425224203672 -0.8587597687233985
Ni 8.70690831044749 2.3461844535729672 5.823828459309928 -0.26063606989366084 -0.3346704712022559 0.13935481978296
Ni 3.848804061314302 2.620474235238253 11.352465131992806 -1.1685113651967876 0.6944346521483459 0.1407900095675898
Ni 1.1227692453424516 3.302460874544634 12.367660155932107 -1.1528924277126078 0.2631459807997081 2.135587853450419
Ni 3.099906478129286 8.111085292267841 7.847764576927888 0.3673476497203028 0.5569320550827763 1.2581294798762526
Ni 5.522208893599767 7.800589656199224 3.410741177741007 0.7063671419198738 -0.2321808998767614 0.5988137829182268
Ni 3.159837762902521 8.34473253699768 3.751507252679138 -0.1748715246323311 0.4670542589840214 0.02406835380311339
Ni 3.299097292055856 4.255175324784218 9.161992905296433 0.1283085892711274 0.3415260606715086 0.206123026447445
Ni 7.360474356072455 5.959375423019216 11.372447336917425 -0.27856128691351384 0.5104562801187402 0.039658752042202663
Ni 0.5372074081654298 8.964073579656505 0.39691896544113053 0.2653296187145882 0.5384111134604533 -0.12785993176948304
Ni 4.624177457333235 0.4865958620038618 1.8476086469676547 -0.9863191385333272 -0.6745327710180963 -1.475872092840497
Ni 5.979647094426112 5.597641514293134 0.256557479772705 -0.2999670062827995 0.303639055817748 0.019490247514127725
Ni 7.878889888773102 -0.15114929728055626 11.57897310525786 0.38769664569030005 0.4127322485026892 0.22906677972781198
Ni 0.09803355042962214 4.752182962502671 5.876607847911984 0.3542265389573125 0.0973548212020904 -0.7154881303845355
Ni 7.997535075917468 8.896765859291259 2.4853078162502156 -0.8241370364432065 0.10413379179713678 0.13589231515565628
P 8.493947548906004 1.62027285366917 3.7405390881185476 -0.32077571549803463 0.0969825254643362 -0.1496042654251101
P 1.890306305750801 3.4903435586027665 1.3280595959859367 -0.8425124536266007 0.25292661706454506 0.7251009708839512
P 4.769983798515666 0.815071785269191 8.257688793482464 -0.43597193575692017 0.36199846959324755 -0.6172825311463755
P 8.619437130444423 1.656208178649811 12.584559825867958 -0.42717722028342553 0.13869301782924504 0.27145141534160994
P 6.3314796262817445 7.924582308265426 1.2450873202822035 -0.7714839290238649 -1.2120756229409835 1.0504643057526684
P 1.8278320444042808 3.243106719206471 5.981151238016268 0.033323810963110344 0.0022517721486541866 -0.3908619307921591
P 6.821480551952529 3.7556697987295937 5.948987093187924 0.7974703257852975 1.3845148839827381 -1.0329167837872082
P 2.3249569115392337 8.487012978037718 10.40728582793988 1.1306292454390336 -0.4077077987049043 -1.7972219356744465
