# total energy = -340868.34129930096 ev
CRYSTAL
PRIMVEC
9.21790254918504 0.00000000000000 0.00000000000000
0.00000000000000 9.21790254918504 0.00000000000000
0.00000000000000 0.00000000000000 13.49133214059941
PRIMCOORD
 96 1
Ni 2.510495709495068 5.671600185914577 13.180666610473933 -2.2407133197368636 -0.9795537947850356 3.378876411659097
Ni 0.2732177043505154 8.212597934340137 7.075691353753203 -0.97600772930499 -1.206765780692296 -1.4519032407297252
Ni 2.9187381694991714 7.44382487698053 9.715580602346211 0.560980257010221 0.08695188070121153 -1.2587383171048452
Ni 6.179580349523368 4.720819646329966 1.6170440700979465 0.2582115196125682 -0.8760926035748912 1.3934096153692066
Ni 3.7527371040035806 6.2981041381508245 11.590902000639177 0.9398423351280265 0.9120908760463712 -1.9353166577980607
Ni 6.468017732471083 5.769411347924683 6.335529743548734 -0.342924483680932 -0.42372114341402506 -0.3810518866802728
Ni 0.27947481647684275 7.164964894591527 3.4059273543204975 0.390641844361553 1.2094862649472524 0.07082515034267801
Ni 1.4432377556083473 5.751344259286495 11.188819864786552 -0.05056588587300969 -2.1764673652736004 0.14465669161184763
Ni 4.791106151873935 6.211041050299967 0.49918628475122423 0.44121750042657565 2.774196142657764 0.053829644225946
Ni 2.2449463781231795 3.137386813630705 13.957322817937303 0.25130707918325107 0.39368268807040585 -0.3028646395455687
Ni 4.148987073028969 2.08948645471347 4.190839115143236 0.5575000117711044 -0.24654693879044634 1.2250902900330964
Ni 2.4199298187449707 4.276111164564297 7.188221662262011 -0.3333640936860065 -0.23232308188158052 -2.773960115387558
Ni 0.722704746702938 3.064270412060244 9.912512790292691 -1.1328167400086553 -0.08586199007114245 1.2099320942354195
Ni 9.277081299614565 1.8286659072555558 11.678946795092058 -0.20063217853620285 0.7741460492370603 -0.8057765316581478
Ni 8.128899380853023 2.5697022963945977 0.22333779106533194 0.22572614539035318 1.4957516053732434 0.014986960327135479
Ni 4.461520052762511 8.55609384812249 5.055337323207425 0.5598942230348939 -0.30622815670116293 -0.2417885981698546
Ni 0.4405198669303672 2.68746099912564 1.8870733020199162 1.8336524105873386 -0.03277050956280163 -0.10837996866800044
Ni 2.38628447510753 2.329658900870599 8.561747187643817 -0.05210546244598768 -0.15441171411608248 0.0034938720858714023
Ni 4.434732828485689 0.39007305264964875 2.2764467158799535 -0.7158501417096446 -1.7268181891399037 -0.2320914254867487
Ni 6.711480969773024 8.235449114306496 10.506077490212764 -2.669351440836532 -0.4762716638172313 -0.2860529673048687
Ni 7.308930093750309 3.5253959779405113 11.28294939659151 0.36129347310642296 -1.0769384407837967 0.01050295641385288
Ni 3.850465304892388 7.646342191970824 7.419665676668374 -1.6042963817538822 0.3902330389589086 -1.6278785399491966
Ni 4.812381070535637 2.63446727842108 1.9476220155039967 -0.2743233375727663 1.4865899934786333 -0.2090204025998981
Ni 6.9493305045338145 0.7572322435968455 12.13510206801635 -1.2698452256512842 1.9403251667562453 -1.5287982514155671
P 5.156070560267686 8.605022473883459 0.2902947902745491 -1.1942609633570658 -0.2390740274521689 0.27248139926802106
P 8.218893761656403 1.3622492654169622 2.507525701352607 0.3116112753899472 -2.675718263594824 -0.6074490899957216
P 4.325039790325265 6.175985367600464 5.547811131455421 -0.9552563556902516 -0.17049807815498377 0.8088549134731554
P 1.7106122316487875 6.738452552097175 7.830855100059023 1.22851628499551 0.4426897140967279 -0.2866823733587514
P 6.153023572805706 2.7348778888985157 -0.34222476504602484 -1.439237729446915 -0.06044792087341202 0.37519799900265705
P 7.075800125001127 6.617642723682847 2.1171816423733856 0.20336500408633365 -0.3130531500427964 -0.5120308236947118
P 0.07429905844407232 1.1129879675265413 6.773080524126877 0.40440058870854223 -0.9605248031780425 0.3634364875913547
P 6.055037270650638 4.01488502940226 3.9964022133673467 0.07426168682805276 -0.5435031832713801 0.15209566438839614
Ni 1.113439644742496 4.896005880803818 3.292371093278307 0.5057015390425742 -1.7043135802794844 -0.7244052303685072
Ni 1.4853727873252627 4.925014619550949 9.099714109440816 0.7618821442680427 1.4533795681649357 -0.4827395309297622
Ni 0.49753812380810797 2.7053160760094 5.279792324039567 1.004713581880115 -1.296804013628315 0.13963969801323048
Ni 5.60174692178183 4.91921655896247 9.924466566081467 -1.1646025170606846 -0.12906012272517126 0.5274224756594336
Ni 6.6244639714339995 3.7981905805724083 7.974632254009529 1.3931594470316138 1.0850212177919312 0.6821596914357348
Ni 4.630392024115365 3.021296551227984 8.763645059595088 0.038682247061546285 -0.961845064651363 -0.7411266568882462
Ni 2.0054099672293337 9.27874052204052 8.099102511453564 1.0736705686658026 -0.20484261707312462 -0.2225680593773457
Ni 6.812914767413133 1.2917138765091 7.607492420657302 1.212277968759777 0.33936427713349937 -0.2551686190211863
Ni 8.475225190661869 0.46548194653863834 4.836602030793648 0.2927416921789539 0.15330228310198757 0.44862896239929834
Ni 8.829017501387517 7.7898833676207495 1.2178950707783185 -1.0170029407704293 -1.7917334017560496 -0.9831173437665779
Ni 6.180815548440468 8.133895483935625 6.816765085231588 0.6516108721146003 0.1233116502771683 0.04902605218971557
Ni 7.753398910054451 3.7995456122202724 5.73308728185956 -0.937783652826785 0.34959006862656566 0.42683809177645193
Ni 6.3668512539996005 1.3586081939822254 3.438940349855602 -0.9902534405907266 1.0489452980049805 0.5863932977666868
Ni 9.163774843726504 6.976274433150866 12.29949413881912 -1.5702840293641795 0.058111045210119276 1.1195295359814461
Ni 0.16355047631671799 0.8030037377973145 9.408908364937242 0.6330547063789678 0.9286438953090458 0.589778412188836
Ni 1.9419723631436168 1.3391676378914412 3.9919499665243645 -0.9973010914661274 -0.30471197716695264 -0.2546942504879291
Ni 7.004241548930591 6.3528308245002725 8.533428869783933 -1.2111389700593271 0.6250498337966203 -0.3491159572036246
Ni 4.452228407177158 4.108068804424421 13.334023008563625 -0.20965006576409698 -1.6770339186279248 -0.14253270329030937
Ni 7.663570451493667 5.827788323611234 10.608530787854601 0.18784402563259908 1.0643868293710315 2.730107894089298
Ni 2.361939994957809 2.3368857363258737 11.676869079898667 0.7284549749578486 0.10399032424073704 -0.5870162760626665
Ni 4.654773375874551 9.119897628462335 11.649926994862087 -0.6831241122315332 -1.1613374731561676 -0.25082216912703253
Ni 5.224863765628295 3.535913604540599 6.207348358611978 -1.0318279215984036 -0.2316026587757882 -1.1130380147198315
Ni 8.049348883430799 5.477508033687193 3.931212286041773 -1.0381939730257475 0.7362575017214029 0.790540945655316
Ni 4.887212001946252 2.607504913999295 11.249719780350794 0.6245741797117824 -0.4774775111998745 -0.6812662330871879
P 0.7033425427822684 4.7522434754970995 5.451105195939049 -0.6092660885998024 0.42567801003007977 0.6122462542740489
P 8.592246461203597 8.742876203773301 11.104310135891193 1.9767494710215505 0.40701180107914414 0.6722090079809262
P 2.0594268750965674 0.9104955408726364 13.49497495820325 -0.7125329044109535 0.18715445576474218 -0.756772076734987
P 6.153124969731736 0.7718573674914109 5.420911956737834 0.2487002376880233 -0.27127452344411346 1.2492907985387
P 2.4250549724607016 2.9659707012247187 2.667047032544962 1.861983139211232 0.965626386070666 0.6250665459671687
P 6.390329251326877 1.474633931068381 9.753598918866283 -0.8239202924467102 0.44109023082009197 0.6031412066489871
P 2.924158296090628 8.71570182759709 3.579250650726096 -1.2382538239982481 -0.3379123751783213 -0.16517203795638005
P 5.190914231212762 7.586112417908622 9.000310093901794 0.40837242887209674 -0.8330878178785911 0.42144725977818387
Ni 1.3259768196050912 -0.06274626140823546 1.745791434240001 0.5118066234990476 0.5527532411147383 1.281584111354767
Ni 8.77449360889013 2.8241164017078484 7.780950298437451 0.8300839980552608 1.066749416065937 0.3132027882467832
Ni 8.779342225534869 5.176506649814044 1.5295394447237378 0.4873235507560188 -0.18509037414686186 -0.08235706224167752
Ni 0.3094108762020353 7.118939908075982 9.533433929795473 0.3729110027406933 -0.09597748123858955 0.31403068346471724
Ni 7.973992531585299 8.51098143394122 8.677422644440048 -2.0660757654922093 0.668463682005881 -1.2187694900213912
Ni 8.880969599124672 0.40581907347197105 13.261250434751432 1.6550378739728078 -2.2688856684060217 1.5768462559627294
Ni 8.157336609653434 3.2287730976914135 3.463130891035803 -1.0925020995500088 0.3860660520654125 0.46022823720112355
Ni 3.451514490473638 4.9485387063900586 2.120796903681496 -0.682481850661844 -1.1907493506593816 -0.8975137495631446
Ni 4.381204469443875 0.4655040695043178 9.305942551923833 -0.15790790019479903 0.08994670166347736 0.6751264387380372
Ni 1.8882412102497421 6.400791570512766 4.901521873579886 2.034556611838006 0.691677401118183 1.0319875871047195
Ni 5.891465593158477 6.678665237348561 4.1819355432475085 1.3058941488550413 -0.20275128176173468 -0.7601348225596328
Ni 4.29784697834432 5.399764245128788 7.923634209167298 1.2226935076661458 -0.13393930519434352 -0.15286648111614964
Ni 7.509576174560219 5.339101229655364 13.060998880162805 -1.238305760282106 0.2611937421693437 -0.12257271522861471
Ni 3.206613260402535 4.256218931257558 4.492545668547415 -0.029502894555123383 0.5142725685410369 1.1136946744672238
Ni 7.423619234993333 8.470911212354384 3.1144065830312146 -0.11589710298065202 0.12104419439923024 -0.31055943708666517
Ni 6.81029688314107 7.742411170433676 12.85922268452277 0.6941574872275594 -1.1655877637920893 0.5294184230435398
Ni 4.182088560426791 1.518114776530794 -0.2142747494586657 -0.02685285852678601 -0.271331601934294 1.1348576816980842
Ni 6.496049373567373 0.8747964485879567 1.0861288436112604 0.8454756500199826 0.34854980028750937 -0.36948937865365394
Ni 8.853168405587542 5.679426185023669 7.275619359968768 1.117811781959391 -0.23594036691919365 -0.6605194874581398
Ni 4.612380242891376 0.8501053753092583 7.048694883092662 -1.1177433906153007 -0.2558592173303077 -0.7829479637994065
Ni 1.792421115150784 7.96417546556506 11.625278323934275 0.7958322759612423 2.491566856322464 0.13609363253318496
Ni 4.0110319462130954 6.970762127535746 2.8705912218588754 -0.6883431945386275 1.161204290012413 -0.27697645892489714
Ni 2.1217952025077795 -0.5581209435309441 5.736662906187495 0.49074286085021296 0.7244733646022813 -0.8651900977297745
Ni 3.030827862274865 7.987404579528444 13.694645784942793 -0.0027716492078661945 0.694598688530036 0.6493038212479785
P 0.19547668116282108 4.41383584382101 12.878555391155867 1.1646020028400523 -0.24961375064122818 -0.17351655326633342
P 2.2956079695290357 0.6606037384603521 10.201133609497498 0.1590641252864293 -0.6810494890906915 0.5066880713255596
P 3.37970703103921 3.9573561007334193 10.262113720812327 -0.8988304114920391 0.6493799259015526 -0.03364391330669044
P 3.2601692731514476 2.3363695337933543 6.492649811174636 -0.2684388537675312 1.1979571812617305 -1.0123916672506628
P 5.544835592571539 5.401580171894973 12.01214262477017 2.3149266698254842 0.3072002908064451 0.09619165413192467
P 1.672625255996762 6.465823871707874 1.7289411087141813 0.047394430123563536 0.3174834179000081 -0.17837028181420894
P 8.000798191666854 7.318267828847494 5.6488881962739494 -0.3764691524055968 -0.20943023644380704 -0.8169795994628187
P 8.43662983345366 4.574356395629884 9.201047431945131 0.19189968375921146 -1.1538054264451805 -0.5962527070592699
