# total energy = -340863.19745426456 ev
CRYSTAL
PRIMVEC
9.33949702816544 0.00000000000000 0.00000000000000

0.00000000000000 9.33949702816544 0.00000000000000

0.00000000000000 0.00000000000000 13.66929795155023

PRIMCOORD
 96 1
Ni 2.1487941657328333 5.318077836294348 7.170476519641155 1.9223372148192572 0.7114358146920329 1.0261067028439104
Ni 8.520582098519103 2.794881905423483 4.7754381037722995 1.3031597806430137 -2.7461088975032446 -0.8838599062251359
Ni 6.23938188049227 6.222832291392674 3.8841997690717927 0.001984634530196582 0.3948242578740168 2.446004080091
Ni 1.1631316460917318 8.675150777750654 3.9733368646279166 -1.688803400459027 -0.06976996960528628 -0.15990719001301493
Ni 6.817907697188295 1.1566500350109647 4.585270062931873 0.21384482057173493 -1.0069820661993174 -0.6032242532810966
Ni 7.633778157105553 5.797754414260057 0.6776720514383996 -0.4711099171106338 0.942780591820744 -0.7971121711149305
Ni 8.019321942444385 7.831271165627026 9.464280389185992 1.1808822280573148 1.831287509899588 0.22277091941677118
Ni 4.0604024596974195 7.921378634945818 13.251195285314253 -0.01969696420829511 1.3602796655844573 -0.24319396315781341
Ni 3.9176669234620243 4.821524786825836 11.543476621527072 1.7897521096599627 -0.034929464887333395 1.710289338246945
Ni 4.694395550469347 3.3464726120951096 9.16769718290555 -0.5756435154493507 -0.1287014538341719 0.361773498066635
Ni 1.8957591671575813 8.16781994847349 6.198780284164577 -0.9904982096116813 -1.353832624407533 0.8796224711050205
Ni 3.0154154536225537 2.2839086722248485 1.527230077880625 0.9906730446266485 -0.6336632864972441 0.8899603626959188
Ni 1.2539489172003484 1.1844723972726439 5.941032575284779 -0.287659135449724 0.14290577035901195 -0.2717558339559062
Ni 9.262044783968822 2.2552550947092955 7.944732981730495 0.20327912924074668 -0.5050693047752141 0.6658005333514212
Ni 7.191515605061391 7.919295927062517 2.4455464169132193 0.1733473746783208 0.5281809510920129 -0.6595769210392124
Ni 5.495173382855597 8.518256563707704 4.4426727512555475 -0.5997743470592832 -0.19582190163175306 -0.28267530908188737
Ni 5.0739713970753115 1.24388093918152 11.287245646998162 0.07866624365365162 0.7157305854126448 0.3409984703028128
Ni 1.2275648375127877 1.8048391615793848 11.159970714484816 -1.2425161988190279 2.0032351760169047 -0.5122671080752339
Ni 4.040752157515959 3.71306655754507 3.7166136985947467 1.174260866086055 0.33670010003777495 -1.5499134361276274
Ni 6.239820836862293 3.4196195544359864 4.63160891241074 -0.2930599947503211 0.6713536019591664 -0.2724500318094533
Ni 1.4711856228756284 1.44344731608906 13.422827225993299 2.6535607536611785 0.1066223625469454 -0.04601914704259172
Ni 0.6932652760211789 5.658082233117588 0.8001035206859166 -0.8418539941069954 -1.030676838713096 -0.11078215035158985
Ni 6.938882204867224 9.06335631980133 12.126225758872554 0.2999274112941157 0.6855777159783483 0.7610719896619216
Ni 7.9830286561909825 8.012457411977001 4.55838258434337 -0.12200270165775765 0.6917306229536215 1.3184257056631488
P 5.78593995025837 0.19579695582368178 9.667706780300566 0.7632175752500145 -2.4773771950856434 -0.8626573040055916
P 8.2860579834627 1.1882362146581615 6.252733625738761 -1.1203337770502966 0.839353853392961 -0.41779860728200297
P 8.42118182945195 4.382306910880132 7.46644425305384 0.8643712013729049 0.24441986514511455 0.28198831031719174
P 6.845010918162914 6.3188516624609266 6.629376870213082 0.15794235297716025 0.6086814197409259 -0.5702670816287856
P 4.117102547408281 5.9488674795148295 3.1364478661843376 0.09797599972585706 -1.3327359516382338 1.4327505790606743
P 5.232593418106651 2.2247242782496013 2.661767919239105 0.7333914930275176 0.1408835977226606 0.6390250650297897
P 3.6387988755360494 6.597663673403495 7.831141346615466 1.2068069183428765 1.287202228872493 0.6160124061847003
P 3.9429582819731444 1.207382183988958 13.555255693080662 0.523970255444775 -1.544494064884269 -1.14291911854998
Ni 4.083088098480105 6.7397174263407695 5.5671360769471345 0.3218118700720329 0.45742573475532183 -0.3397129187221698
Ni 2.278258276397955 2.6810147551400343 7.653508778963231 1.1592736486486035 -1.1431201788171927 1.4631903836077704
Ni 1.5075629646041415 4.651527258162832 11.67463304909109 -0.7541665207913398 -0.4760222668105866 0.4358413237163268
Ni 0.08762596490357603 6.299070607318182 6.768174874414396 -1.0312473665045852 1.0139422995672345 1.0366160870156662
Ni 5.061493828769973 4.984078736192914 6.904075766573559 0.31933204107297264 0.8972245004575 0.45823331825828173
Ni 1.417567569252164 7.534620714966497 8.600135002013147 -0.4620699183955526 -0.7037590148730654 0.18015591295972197
Ni 0.6206077233353919 4.919841674213783 9.111052198228375 0.4186586412894531 -0.4977686573487428 -0.4911776343947863
Ni 0.8543585280207763 3.8409522931775553 6.310035177071526 -1.7128020773664694 -1.132467841309669 -1.784214467671185
Ni 5.367651887615258 5.592743110464783 9.297105256587267 -1.2394977237076783 0.506774717502095 0.2874534471968211
Ni 4.303705702154287 1.1219164447957297 8.487868641555698 -0.24436304376525012 1.1364792764619074 -0.22680755137999
Ni 5.922884998208353 7.845065603042434 8.065624367884038 0.249449457149222 -0.3697907119441567 0.47908445067567823
Ni 7.508479462207034 2.3086770188908345 2.520687341913669 -0.01053200987957541 0.8442379209581395 -0.3233367913569915
Ni 2.2672189906667346 5.460196965712265 4.783885679020936 0.33068988928795306 0.18869788899246212 0.25675447545106744
Ni 1.889959339374935 8.784833833273032 1.6113098356842481 0.3382383910591723 0.3324662644620855 -1.225731266051205
Ni 5.937688101325092 5.0172713093644505 2.05419439824423 -0.3549130235013759 -1.655272615691433 -0.048606962374425966
Ni 4.581938664268313 4.45452924299479 0.2245588715071552 -1.5293906335839274 -0.8523988595023773 -0.2563618679983391
Ni 3.188233510450386 2.510709023068292 11.868846960133519 0.9810766591874652 1.4407760204683122 0.5702477983550759
Ni 6.17874986444567 7.334858208617032 10.792935944765384 -1.1256788434122935 0.38968436554429015 -1.032050579132171
Ni 4.15376007405383 8.832259800229998 6.78574060081311 -0.4739913524234869 -0.4786974996499046 -0.5860418279645391
Ni 0.6451098943301941 2.4082453989082104 2.10526370307239 0.30052236456563725 0.9336688593274631 0.8535301448933429
Ni 3.1183367131471273 3.407216702108524 5.628620789091248 -1.2714940741086165 -0.3743055690953747 0.7618692887522363
Ni 6.102670319973148 0.9090403503792541 6.808896016306693 0.09577436408884796 0.15987376567191822 0.27754827226796713
Ni 3.54632851341692 8.386121356833506 9.494858837081582 1.1243277287010378 -0.7390376355697015 -0.9094968900669498
Ni 6.271416356006725 1.9622003504840622 13.256266632312606 -0.22964810615257866 -1.4903111510839624 -0.3565415602437343
P 3.096575684590661 8.843448517916972 4.578243959162331 2.8523936742051132 -0.14224293996403245 0.014839893226309929
P 1.3244527818238518 2.6228483663633515 4.261622861565196 0.8035072760079969 1.0356832907887519 -0.30814439988726927
P 0.2885092109211855 6.681504340077914 4.726925019337232 1.4523482986869438 -0.6358893476142855 0.024991894058647282
P 1.092618441970994 7.640474576622714 13.511321764139687 1.0594402839990336 -0.32557570798983926 0.29539327086918804
P 2.3043248131795417 3.2921447566818203 9.67712472931187 0.08077172003242865 0.5407212496508688 1.549436239380893
P 0.08941447862398946 0.30103160881324975 2.4226917332305886 -1.5609272707396278 0.2161888953238793 -0.7238295603706952
P 8.38654163420906 4.4251752031866465 2.03662960579524 -0.2008592069453444 -1.1402924795604104 0.28832685094070987
P 6.029588754112914 7.878967978003796 0.34869946874859203 2.8625585305532573 0.23376752763759095 -2.0042065387912387
Ni 6.316647541113576 0.5246014275632678 1.5093505443748314 -0.44290362987974685 -0.258904946135167 -0.12659572034507874
Ni 8.21207982586795 5.417216599438936 11.952010513258436 0.19938005129665662 0.0590744375646531 -0.6335846107405089
Ni 2.143554707784259 6.717097164038726 2.753611601093797 1.0088093492160433 1.0443718197016851 -0.6697595179991691
Ni 3.9743389926811816 0.5030850938343464 2.6150321411277693 0.06816971499770196 -1.848994697371364 0.10631177328506206
Ni 8.248690655027326 4.812157271099597 5.239359883853072 -1.6755941008576047 3.460165951868209 0.5293078656076046
Ni 1.0001387403546302 0.36031593540890644 9.643293334529492 -0.4780554951905315 -1.496480770229784 -2.0590358279262926
Ni 8.704738304989661 3.363349083597914 10.523103860413823 -0.8168564436213931 0.1433775677891079 0.07667646691713247
Ni 4.961776016796844 7.538449908832656 2.030628978822052 -1.9403519062291226 0.22639334666070687 1.0685689857731793
Ni 7.677402948688065 1.0868186141883478 10.147813909088786 0.006238781820860223 0.028208858334048195 -1.5965753589605405
Ni 2.925999107099117 5.550117645086366 9.811452850136737 -1.145688453765001 1.2013006438126665 -2.7372362776039636
Ni 0.6268558469852957 4.780552412457931 3.344193774769883 -0.1772045436408819 -2.086027011803156 0.9645269823589002
Ni 0.2665361757774954 8.718747550841464 11.832185697689077 0.03888176466686207 0.16149407488416057 -0.6284110369593693
Ni 2.796740465373156 9.331297155962897 11.507649376185674 -0.006831421099536622 -0.15237899995676982 1.1796807515500456
Ni 4.282803907343398 1.271264345073176 4.854596880483046 0.5983766953808082 1.203766845964972 0.8412243309427963
Ni 8.382796495818011 8.032630726003598 0.18669281391945722 -0.6589955946144458 0.09280191172408533 0.6890667029682133
Ni 2.682789259614596 4.5281991971808 2.1316449809107803 -0.49570868949592045 0.5812456921274763 -1.2624263074793938
Ni 8.87429687728264 3.4691002107845517 13.653114011154395 -0.2746475536814044 0.4025637926101196 -0.7665512676089379
Ni 2.7273386614233273 6.105388113668399 0.046591949853923856 1.0017203035797457 -0.38549963803898124 -1.0782656442356526
Ni 7.571791913959945 5.652067596898548 9.07514276531131 0.8346718745362592 -1.3515582265510595 -0.06166842354407444
Ni 5.921764258540209 6.080619767002412 12.60124753141657 -0.6424387186970292 -0.3765519419273902 1.069000416883643
Ni 9.187795780954271 6.806111912181077 2.6692171022333704 -1.3837291548566493 1.125291635276204 -0.9043536553031134
Ni 8.837387184211758 1.1527274461724601 0.4256690673075639 -3.5772645313561293 -1.5679211855589577 0.683693611581758
Ni 8.866236891169237 8.883346850102905 7.271984713234143 0.7637690768781105 -1.0997130154761512 0.8270074160124661
Ni 7.0338088547590365 2.9281565309602953 7.92906784301901 -2.2213660255585035 -0.12756734022972868 0.7631178164473568
P 2.305520268825562 3.626097159297082 0.1178990112395972 -1.070708657824001 2.0565068908568516 -1.9122363789398293
P 0.16084668927260556 6.528710165320923 10.45425215285111 -0.2252921431767281 0.35870591488490483 0.3587601651616079
P 8.572397629176303 1.6150699172708718 11.943480750434134 0.18210069539091864 -0.18397605803676056 1.6486530534923864
P 6.3676038380251985 3.501844488088831 10.594321262626044 0.03916252913207449 0.15753586156736096 -0.5619050828173355
P 2.3060526201679306 0.3427810293510673 7.872928125142222 -0.6941649434267271 -0.04542110844727661 -0.06181240532110644
P 5.014282670249399 3.0167043042409194 6.396985896325044 1.161161866810252 -3.094535799059645 0.6955371411839053
P 3.4973895479079578 7.13189225471612 11.276022373171422 0.8720983948138336 -0.38944036785428415 0.7994778431336296
P 6.62062015760598 3.900183384638975 13.616028735535505 0.5242679891908519 2.808482831754776 -0.06366694203134197
