# total energy = -340870.0567275253 ev
CRYSTAL
PRIMVEC
9.26971819678780 0.00000000000000 0.00000000000000
0.00000000000000 9.26971819678780 0.00000000000000
0.00000000000000 0.00000000000000 13.56716957847373
PRIMCOORD
 96 1
Ni 3.843679440091075 8.168355295142481 7.468293188476616 -1.102462038976198 1.2190276287787845 -0.4580759667448111
Ni 4.862736656114682 4.671836076614343 2.7233514781714194 -0.41611787714547044 -0.586331591290816 0.5575956568087043
Ni -0.03610277202000418 8.250392302454221 12.199965296977659 0.861278164269878 -0.7959058095116551 -1.4526010381276984
Ni 5.145314750000682 7.876377706859405 9.780966481073627 0.7847101979061518 -0.7214700589995834 -0.7196029238838574
Ni 3.623727563312207 5.909538139130834 12.420608694744715 -1.0139536124211441 0.8503779724176064 0.5615523274636072
Ni 6.103164015823224 2.5067265033048884 1.7891844887647015 -1.8053605056211812 -0.6659640555124788 -0.9861882693824177
Ni 2.2435035813134543 0.04719862487335488 2.7083873718546574 0.674686008766509 0.25954077994695307 -0.6285691598037885
Ni 3.629446979528178 1.205981086355951 11.292145628009601 2.804652145154776 3.2882522243126204 -0.3128785721381451
Ni 1.0282156977438321 2.3118399449182174 2.5967289795864574 2.106987673215223 0.630295655576592 -0.4730220465316821
Ni 1.8548891793326507 0.2021938773543372 11.819013244176956 -3.3274031834804694 1.3875960940112233 1.218896245407243
Ni 8.70411720605736 9.15574715331559 2.654321739634802 0.9581326487967822 0.03993540274235703 1.9047107599867457
Ni 2.5950298402146785 2.506494760346381 9.245375132976209 1.4656915527630694 -1.257940503793898 0.5900105828043
Ni 6.30720905593012 -0.01346055800196371 7.952546055489896 -0.9250865169750907 0.07501630560589016 -0.2802697849641883
Ni 7.352425417110081 4.91838277531156 7.058075707903721 1.1240747321499673 2.7245656241148306 1.5562082679974036
Ni 1.5701883199467193 6.580332037109005 13.05277011456781 -1.3601318271526832 0.4743662192644024 0.538562294326337
Ni 2.325225418201624 3.9403904115355264 7.379129621704845 0.6378269309566306 -1.2064127682282513 -0.49965379018659756
Ni 3.2227937056571316 9.14923981104069 9.5172207469678 -1.73317344193397 -0.00023705571147055948 -1.156705373700795
Ni 2.39243087616887 4.3788017404404735 3.4884721760369137 0.5967419879908626 1.4461629958118383 0.16450972178203283
Ni 5.447887626346731 7.789446288263981 13.104067808891248 1.1653149697466771 -0.9160604022170804 -0.036795314451478565
Ni 3.4998377776939678 8.490218455354713 0.6058613749479695 -1.6581005720585316 -0.9570481574833517 0.6608742996943974
Ni 5.180984626174194 4.857944211732741 0.2828320841685253 1.3101097295982855 -1.2693142928484784 1.4996092885564367
Ni 8.757316119612398 5.592615738793986 11.249598547799414 0.302759224315956 -0.5171426909999803 0.35146697393430437
Ni 5.748059645642639 9.169429257585886 1.5065665350898374 0.506078976986651 0.04233192799899161 0.9914734290407571
Ni 5.156160320458844 1.910692883741315 5.60408238038095 0.01866363784777431 -1.806360150530289 0.016225460719926893
P 7.539933279697864 7.829927148256114 4.206202365859409 -0.44673123115595326 1.5412863565802486 -0.5224237368932616
P 0.12363208744837849 0.5583058659185126 10.616323834803648 -1.048066237834137 -0.1331242654922159 -1.0452336534813482
P 1.1618664967744174 8.615368922667233 0.9379175174472073 0.3266121196741536 0.4550104404456099 -1.1442051843512553
P 6.261768896625922 3.258287457182177 3.7838971725707498 -0.018311139604362012 0.049214771161753955 1.521256177402251
P 4.985894133984036 6.21888717958365 5.146719112329238 -0.014889515517322743 0.5067749746124112 -1.150975156085237
P 6.971087744026421 3.8256127590458116 11.174396103819985 0.9729841119873177 0.4185660815756469 -0.12289487445472386
P 3.9572334897598687 6.313892522853484 1.1844910983276111 0.726192147065601 2.442734665311109 0.452849171128233
P 4.030519882958357 3.0583952508917394 1.1799804533832163 -0.09072497459039859 -0.455230526876216 0.17832528750888643
Ni 8.78286346335829 8.802811897226636 8.491881442824965 1.1882121860598247 0.29326748277543685 -0.6316323721101444
Ni 3.5373337883805207 2.3547494711155106 3.5140195197828072 1.41735841287532 -1.3941534355137666 -0.7316441713191078
Ni 7.678246747053626 0.5528015071680368 5.910442863640849 0.36854321269030077 0.8308668989678724 0.16426983785708485
Ni 6.305355112262058 4.861920920900735 9.391792188105068 -0.7743841333897954 1.50176747255002 -0.26694967081651444
Ni 5.0111170375880185 2.8151300324869917 9.70865340830087 0.9866762647624298 -2.004330208853297 -0.6824078028907989
Ni 7.6834563287608795 3.601026023096788 5.406015381631717 -0.4377002313019365 -1.9142305265517225 -1.3367782400284074
Ni 6.491027570618462 0.903814223673208 3.8021585177011596 -0.7802112815945337 -1.329045390160524 0.11965425603023909
Ni 5.724987316693608 5.67055553059931 11.849403088783825 2.9722507902747775 0.14991614023857405 -1.9911468773938028
Ni 0.3839118738667643 2.23618977354295 5.786899765488537 0.9517797099955608 -0.2796090114517378 0.2566320909405903
Ni 0.6832644500613896 8.706582951135882 6.415114139242329 0.09567023441081587 -0.17380091727597163 -1.642427898518281
Ni 1.031358132261197 3.7944850448590515 12.968911607602198 -0.9745308876491474 1.5376197063619388 1.2130374726336206
Ni 4.556594938207613 1.2451363766254193 -0.030866308129563227 0.16781898866092387 -0.183846988658064 0.44595835754567065
Ni 7.8464828652119065 3.138856406085628 13.504462168938918 -0.11668488898927001 -0.16435468426140726 -0.6185138324503153
Ni 7.567047205843271 7.901591340745047 10.200693765691845 -0.25529280330387644 -0.31354320230533744 2.3979470766827733
Ni 7.38773377426832 1.1378115776813138 9.817258355347773 -0.34399637658887205 0.7550733488763254 0.6208717911595307
Ni 8.587782240886472 6.653108595798776 2.844791277232315 1.532057638893129 0.051690229285440016 -1.5380925322332994
Ni 1.639266261018707 6.790050144840172 2.0313308521657736 0.40046011600355547 0.1782054741015705 0.19867531192014815
Ni 5.1648089676703535 6.3282235074076025 7.22913074740929 0.9777887324648129 -0.8562316029849062 0.9271194882447195
Ni 0.30303636226306424 6.141512840597084 5.836433432411815 -0.5692769498013744 -0.41330946116239786 1.2035436742105725
Ni 0.026896087764408584 6.370168982897503 8.949380048764443 0.28739842558916956 0.24034852328921832 -0.6290216739601747
Ni 5.765032499923746 2.315121425210687 11.928622101720112 0.9456864526136293 -0.6178553729307101 0.033082898596897864
Ni 2.7062479208617143 6.056157274119513 6.716047202413977 -0.25083451042220667 1.3210184060909893 -1.3776150715391113
Ni 3.5076706896915293 8.238934930585598 11.627295075519003 2.3449918646419805 -3.4662741216484756 0.6113977902308244
Ni 0.1948151815554507 4.4874891879806045 4.009790938805756 -0.6874019136712807 -0.5368442831939657 -0.34895860569015386
P 2.005142043910731 6.5804154645740685 10.881439633280172 -0.03298596800771739 -0.8067532937491204 0.3977512017128247
P 7.808495559453317 2.33707211824054 7.396020902464557 0.6107537288889224 -1.370254260298666 0.031619940898126184
P 1.6403786272195442 7.776783853011119 8.156935002147218 0.4676265865477237 0.37344142132286656 -0.7077365114635746
P 7.635383569448034 1.136087410070016 1.161284358462646 0.04843932644831012 -0.08978086550957441 -0.23318285877871453
P 2.4743195679871657 3.128780222249711 5.2115839664155565 -0.5268905144153635 -0.12294938184174309 1.0572849282189274
P 0.5262307865173731 4.5996620496166924 1.7696606079963415 -0.7270308409168124 -1.0228558000067802 1.0250751762556025
P 4.279003952788699 4.393438625699822 8.323322738468441 -0.6251881591466975 0.6073056224393218 0.09729697138096147
P 7.6181326236167175 6.928845637549629 12.46799827581588 -1.9900790982509209 0.04991076878751404 0.31873168848481237
Ni 7.5545979741122355 7.482461025987945 6.249417923909293 -0.3606334709249208 -0.3314599346847582 0.7218539247015633
Ni 7.4427588223363985 4.335614122692971 2.1501658603730416 0.8569530545319628 1.0568784368091282 -0.06216413223357036
Ni 8.512716061766646 4.119583336772053 9.259647718304784 -1.0686003532317465 -0.6117945114486109 0.42297603771788445
Ni 6.077653750950691 6.678683748699691 1.9394132520750966 0.4003696131722782 0.2545836930519938 -0.14850589015460874
Ni 4.588436420706577 4.061554899961714 5.28867279807724 -0.43175198413830157 1.4703308513072937 -0.10239315495694624
Ni 7.241615204070018 5.577311433814136 4.1815643814826995 -2.5626799702192056 -0.1371552410284799 1.9086700017448095
Ni 2.541080079474076 4.7668970381942195 1.1738188716024127 0.9134137086228526 -1.6376993826943602 -1.7904653336769032
Ni 5.882359324957046 3.221282741567661 7.431932718286751 -0.7263903791193361 -0.7089868389309081 0.28454758640393574
Ni 8.214518492477223 2.1431774197162823 3.0632358978090486 -0.7167929652388881 1.4784503950906347 0.9596755678038699
Ni 0.2080013558945412 1.0729235492991458 13.438458066468577 -0.13090386080212937 0.5163793304713946 0.6572428735893971
Ni 3.3130807622917477 6.378687854052248 9.019644513783991 -0.6469330070229569 -0.13201689136065006 0.7084157969187863
Ni 3.971963072202621 4.594656401712925 10.57813259524157 -0.6857800617971416 1.1267003426982725 -1.1686571467460325
Ni 2.132962190105261 0.9687689940274261 7.40950648870604 -0.14390053017211346 -0.004775824122088549 -0.49932751719543034
Ni 8.551444944992458 5.616652118450409 0.44045715574265343 -0.35698044755336583 0.10974805266012067 -0.864763294605001
Ni 5.24400944116996 8.707991948323608 5.698211735267624 1.8099242137324634 -0.8473576975340439 -0.8566062127155054
Ni 2.2553317419156893 2.0130305742183343 0.30197405254126475 0.8628159410706432 -0.6565597314794436 0.6586078722577238
Ni 9.08694730379381 2.7641465816152886 11.171017291484942 -0.9567928469394361 -0.702882268695067 0.3812264645849241
Ni 3.1144399679772516 9.11481207712478 5.032009128783408 -1.9204510535401376 0.10632797123497817 0.7992392447602622
Ni 3.944904764367257 7.067789445752531 3.389092452682288 -0.3979070105643986 0.4198434056261737 0.21555974638031264
Ni 3.747469033437001 3.4812334529849664 12.513868550051068 -0.3030119637567104 -0.6727612809399703 0.8804513947642192
Ni 7.4173134454922485 0.3399122287926503 12.691680287254888 -1.9960306878486658 0.6092264936111185 -0.7601258236985684
Ni 1.4656166273496853 4.367863472798907 9.966971722318448 0.3594224813359552 1.3888538776777242 0.26726874471883005
Ni 0.3989084241977173 1.949838904292443 8.772165281421739 -1.160672585878659 0.030705656613972926 -0.18530223304735186
Ni 8.323789932272792 7.99385284738615 0.7748344357143048 -0.951238235669794 -0.7380223069313095 -0.34288386025098366
P 1.5454381719780923 6.405820319634334 4.201820569999945 0.8628326532411915 -0.21027355828070882 -0.20262606903778008
P 0.2827616343091389 4.202241415212595 7.477925352804032 -0.725226440718222 1.0107235355196207 -1.2145641936907923
P 2.008775773500132 2.743716122393246 11.470879702188283 0.5322252963647157 -0.8406833708376618 -1.0300127227665357
P 5.672094303843801 9.180376794945792 11.407086427542106 -0.5551369108555665 1.1714424228006537 -0.440960390110447
P 7.029839218867303 7.101902009244871 8.318724031199814 -0.048419786064284355 -0.5464080156230009 0.4215567887728546
P 0.9596568608989017 0.6148854457522609 4.310914031203382 -0.7370424595165436 0.3132932910780604 0.9657940219967818
P 4.4794801513345766 0.18460365983176552 3.473534951903339 0.09384166584250936 -0.4444208378552217 -0.6641560557694626
P 4.163929669312095 1.110317593083955 7.911789884863056 1.8374676705683708 0.7668466873621697 -0.07744625520362147
