# total energy = -340887.85408116516 ev
CRYSTAL
PRIMVEC
9.10714826817473 0.00000000000000 0.00000000000000
0.00000000000000 9.10714826817473 0.00000000000000
0.00000000000000 0.00000000000000 13.32923205513226
PRIMCOORD
 96 1
Ni 6.549004929760837 2.3094270748797423 11.013424613535586 0.3584997124113697 -0.02018187426451363 1.01748836504728
Ni 4.764759771433756 0.22857849180938736 5.476821280228987 1.8846137321265546 0.9500038490420606 0.9855940874418446
Ni 3.072123417077806 1.8751891404779624 4.948117629458646 -0.7874563931927212 -0.34487286565655445 0.19036627783382054
Ni 3.6102556984030043 4.5445033916701805 5.243039874640029 -0.37431173974296184 0.6711723391862957 -0.6555634290044452
Ni 3.7738382947773412 3.2739469288388396 2.9560901522884846 -0.5629520360246111 0.06504196800199767 -1.19294173032501
Ni 5.559658989746932 4.836961242542526 2.3902511939256708 -0.46118982978344447 -0.010350232886072498 0.10460738899944563
Ni 5.720108727132695 3.6915552105861527 13.132226326108801 0.849529508374382 -1.1628580235657522 0.4135449742119716
Ni 5.728013731789912 8.48455624865819 12.277182590218755 -0.002121417218376992 -0.2274349005513438 0.4572884378465092
Ni 1.9732002696495812 6.571271907165094 0.4184561572468369 0.27840419251035925 0.20367379357600407 -0.2372840254312817
Ni 0.5701511930462146 9.159969682290859 0.7434656880112219 0.09963256149267356 0.8434902441588376 -0.8462554656088007
Ni 8.455695695940772 -0.019646850860614504 6.489616305486441 -0.3647896591851395 -0.3387852647015778 -0.5485129777811456
Ni 8.8455453899056 2.4683285970676634 1.3346962863334662 0.47820744738736354 0.6392263824073185 0.951920092228167
Ni 7.1045591856358685 1.278916824899687 4.398099608988133 -0.21668306135147844 -0.6982830793601588 -0.6648137439581195
Ni 0.8483590890946595 7.496840488176131 2.393983303267292 0.9042078737538685 -0.42667328406381355 0.750023959377876
Ni 7.766694397159986 3.7885645534532855 3.502868760136219 1.1121761809401685 -0.05655449935627679 0.8406124083904104
Ni 8.226596275253051 4.001025214338315 12.44622401123772 -0.7921697395079906 -0.18970241899757653 0.49928766509643047
Ni 8.517806446818902 8.040519022768892 8.712132954163092 -1.168088418726756 -1.180269791284296 1.1213285368633978
Ni 7.206805138730997 0.9733173591421288 0.3067979664636523 -0.9451010124238046 -0.43555053194878535 -0.07372792581176979
Ni 1.9548129373881522 6.74574665281366 9.332488212501211 1.000499286688451 -0.6465018330228092 -1.8292450255482626
Ni 0.24628096652447679 4.915064145699542 1.2855085787832046 1.6407623378904002 0.24823383957456602 -0.1962044817821524
Ni 6.617782113137911 1.9616797271479924 6.5920653479869324 0.35543727143596204 0.22834095730538095 0.3907824837044754
Ni 3.5024908134849815 4.559958222203932 0.2092075875399176 0.35989839253110917 -0.3370194310504067 0.682743846073979
Ni 6.312546933309257 5.847572373656202 4.619192024958543 0.013203643174467584 -0.629530238165477 -0.07598278328421752
Ni 5.554067200738256 3.297880514367832 9.006508770451118 0.3462700031143972 -1.020264128020204 0.09128290397639763
P 0.1808743387045874 6.019132831873536 12.587100665663469 0.568478365159479 -0.27797327562052776 -0.9784595332795922
P 4.083299191381282 6.362381248383322 12.49210309183871 0.9339732779417592 0.17613265073294182 1.0701142187731119
P 2.6135511826252396 8.535929671781876 1.4289734847338191 0.24050896012648257 0.2583891828410131 -0.14944588547037488
P 6.756074158898088 8.305072571487194 5.337730537569688 -1.1797823101249167 -0.1506800149877921 1.2671987891673724
P 5.174344655596958 1.5945159394056596 12.656812242448183 -0.7633219620383628 -0.6109061953063866 0.4425529314085475
P 4.220889986728319 6.391205372507851 8.193252273465648 -0.13500785566817394 0.3119930842093982 0.06582075514955116
P 4.699361340047267 1.3357454298087095 3.5727005512774697 0.9878054932708664 0.34454839243760016 -0.83373342188239
P 0.20381979865142758 5.569449174086227 3.6084761616403083 2.0317767351000233 -0.48580788544244075 0.041107825783903394
Ni 0.9768327183560522 9.148130389601478 4.42675798301501 -0.13492943702175472 -0.22518338551300573 0.859814692350474
Ni 1.9364984623125039 6.779579708460617 4.571153639513974 0.10811463082175572 0.2659276573099033 1.437068746820054
Ni 6.245664036762483 5.605722945456842 9.025982585495504 -0.46874218820940566 2.603583907522419 0.38459512394684087
Ni 9.077367847911878 2.792916466869342 10.307841929985912 -1.7548403853844425 -2.8750857164859904 1.6140287785502976
Ni 2.325437441455073 5.653444402143265 7.087259246872218 -0.2662346470273609 -0.7179178228719506 -0.3320181211810734
Ni 0.8391672443935895 0.787593464009007 9.205193958934643 0.3408958832866774 -0.5045244880153374 0.11266908296165756
Ni 2.07100193441208 1.2641814590755205 11.70289219830537 -1.5315953545447298 -0.5072848243692941 -1.9186173427655087
Ni 4.370729896434754 6.828038844153071 1.7255222665877574 -1.5589125543024442 0.5984545998065952 -0.9514976599787678
Ni 6.104858418092868 8.04853331320478 7.727888838583487 -0.7265896396143358 0.39489907697601023 0.10641256052898447
Ni 5.46699375658198 3.196208311610728 4.552532253543224 0.9416536773051524 0.14525267332463374 1.2990686412927757
Ni 1.337512216563894 7.953919150320192 7.418277674033874 -0.6704403461162776 -0.17235390041679996 -1.2908801919447124
Ni 5.478505191935346 5.090677284875935 6.928001635188794 -1.7413073838950137 -1.2507352442947104 -0.46173773186711453
Ni 0.8024882049270688 7.6256155640436925 11.02687405003072 -0.736691503935028 0.29346545771885585 1.1459553342731423
Ni 4.92279611454053 0.5837782189316907 10.184440071569686 -0.20967063458938728 -0.3887988776155433 0.11097626864026695
Ni 8.34096384263246 7.302266266400287 4.487259500802207 1.2793446805012871 0.10203937116195332 0.7814718934745122
Ni 7.354249868454887 6.330569979641781 6.720545352252081 2.123071466150963 0.8465706828563743 0.4361228595124876
Ni 2.3136983273961413 5.48135572932902 2.6511045083211298 0.7903105748120647 -0.5735470379316381 -0.4030808414558542
Ni 2.373759969924187 5.668489411007 11.374313576152547 -0.42001644086892825 -1.0765160085343977 0.5384748768188533
Ni 1.4778624778223792 3.5074451021180755 3.8693158153134335 -0.8389136805317488 0.15919268044449358 -0.08314484825029553
Ni 2.095081234312634 1.2906286175139503 2.6671795356488404 -0.7634731429042465 0.946183703965022 -0.5187159490243711
Ni 1.1893662364268633 3.4050716489478314 8.485975142351272 0.15495473110374602 0.33881894615299074 -3.100654767473189
Ni 4.300404497859838 2.859243827374536 7.004018090688011 0.577389808716496 -0.21246105285033087 -0.22170545426673433
Ni 4.3014244984607695 7.03121021385105 5.768571505684437 -0.32827768030203464 -0.3796143829027978 0.6210659094482078
Ni 8.13043389717062 7.853339805349799 12.616117861330316 -0.6030293636614711 0.08014874173644905 1.7397143283762813
P 0.22463236448453486 5.957905474372998 7.898529474830339 0.26123590826118875 0.21023267774044438 0.05853270612857016
P 8.73950175600165 1.8235516100558216 7.562019437290456 -0.05268061822316733 0.15243299312315683 1.7465552625575145
P 1.9821434892041743 3.505304922285765 10.416808047754495 1.1187648899012796 0.40512152603496676 0.7914439170855596
P 4.309438788896657 6.15176933858748 3.7684942202003198 -0.9404025785068707 -0.16772874293996276 -0.2158312548741444
P 7.319278419280104 4.230133742174258 10.264401743678935 -1.257190255891435 -1.3232442100977146 0.6453342950772691
P 6.805489545153914 8.125169965497959 10.278771002144552 -0.36455080370145604 -0.1981063267905556 -0.26905514719529144
P 2.7044496290350075 8.814599300245206 5.893079882609711 -0.7997223550442678 -1.1471390701685986 -1.8073384552831584
P 7.397690965476688 4.245816251413575 1.3639666607209018 -2.446745072022083 -0.3956989471694862 -1.2042335011887455
Ni 2.9823269356029725 1.6946126055202537 0.4739651363784048 1.055962352752762 0.20300170720964394 -0.31007221303760146
Ni 1.9184207730906435 1.2481073424626319 7.150279801857786 -0.8280541121094256 0.42053554659719183 -0.6920029027784018
Ni 7.059278444673103 1.0869927832566193 8.83948002918935 0.5401607491617084 -0.27316454137797475 0.6100258495839623
Ni 3.0618323395862688 1.9220727395279058 9.120327176792703 1.0341429428848254 -0.42045892772298554 0.5991999626130519
Ni 6.152033445885936 2.4572907334218725 2.2671954071419025 0.08188886435600735 -0.625123110236717 -0.88096073030047
Ni 4.290659849261656 7.126689555816785 10.484653569868398 0.599470185555303 0.8485728008880677 -1.318276324569478
Ni 7.296701798836279 6.0479387417016195 11.350747008696924 -0.032065255965660906 1.3792520929219019 -0.13187316669393415
Ni 7.874523032115567 4.143278869575324 8.142574636466168 0.9757920137497583 -0.5740499457099856 -1.3397715183287764
Ni 3.135135775629974 8.406316738277836 12.5269725409534 0.7933989839294013 -0.2722271171653699 0.5226880462982417
Ni 0.23223683325040564 4.9993872310925935 10.209671425720398 0.7940643854275421 2.850713458289213 -0.3590098192785688
Ni 0.05039895826386718 2.2977699251548143 5.498628346648003 0.23592108364548398 0.27709318700841956 0.20288600756738606
Ni 3.825239039345695 3.027143212006386 11.396520446378533 0.6631075599002902 -0.6352766537309511 0.43817357139392926
Ni 1.489838377735098 3.3957186077232215 12.575890676916272 -0.21686098169023943 0.5790499700277383 0.6632816235843092
Ni 3.568963888361737 8.5056757253864 7.882588322581501 0.7730240198174751 -0.18291599220336238 1.2733995186614457
Ni 5.859047380416677 7.949074147465769 3.2554512215135616 -0.028126068812254785 -0.19667447944003547 1.6786976794835928
Ni 3.4240964815848423 8.63434151547529 3.5398975140944877 -0.2269798152917962 -1.3194695735466309 0.28332785506422176
Ni 3.5012158127338173 4.521790164003017 9.107090847565976 -0.21544456095868703 0.2530654566352545 0.2066310764321151
Ni 5.142260172408739 4.970681499894959 11.084708994818342 -0.006242381365286024 -0.7172421369611647 0.2875298089607113
Ni 8.02499133504936 -0.3704715039767809 2.6441466470790638 0.1819124906395125 2.2372125056724568 -0.5152814694215254
Ni 4.872397156276663 0.27647025216757276 1.594429421497545 -0.3699724889376596 0.5931740681339461 -1.4321132025869918
Ni 6.060943749363492 6.0230580127574775 0.27838730686843005 0.5103290105122565 0.273972896211883 -0.7639714226969035
Ni 8.410014240456212 0.3890136577579941 10.981541398323087 -0.39402438768054077 1.1613446722450191 -0.0028109870862338686
Ni 0.007507932994711258 4.844383568343945 5.6347465161274455 0.23678291742514704 0.0097755913295251 0.8964752809963011
Ni 7.760738322222405 6.3246047975559785 2.3919970342399433 -1.643706765230705 -0.5102613904991148 -0.9723855591713704
P -0.03666993231829801 1.6673822323346805 3.3565942989589326 -0.2980962716226479 -0.2049547171709567 0.15216431284280246
P 2.0114047564433872 3.518710644469431 1.531101955616875 0.5958804113215157 -0.5893315544594044 0.12423647608428282
P 5.029140284335828 1.0204286368976374 7.929466457342511 0.41151046028044613 0.8633455883218679 0.7016396545372174
P 8.968519212355366 1.8088162442316553 12.639084267718069 0.691003772089926 -0.8633982959366744 -1.7641305524371167
P 6.6097040726644645 7.926761634320399 1.1760151571325321 0.05561887491588485 0.6632152891227482 -0.8354473192497031
P 2.3317304808768893 3.259238884459341 6.499719775724594 -1.5510640047923028 1.9004589266889271 -0.5493694122441699
P 7.080907921701776 4.014312543595088 5.941039035864743 0.11541527824822703 0.1506108523127535 -1.1559206730159706
P 2.6706894305738307 8.599424709189842 10.339258859209414 -0.30643821582944 1.6037214830870188 -0.3692487233977576
