# total energy = -340867.71663654165 ev
CRYSTAL
PRIMVEC
9.24534703979152 0.00000000000000 0.00000000000000

0.00000000000000 9.24534703979152 0.00000000000000

0.00000000000000 0.00000000000000 13.53149992673331

PRIMCOORD
 96 1
Ni 2.1986637260822914 2.291265122475425 6.905232321115929 0.7670606031451886 0.16894924561062516 1.3933173127657164
Ni 3.433537000048111 5.582137171670658 3.4860801565957806 0.98730849902979 -0.2265581543733453 -1.9497251199139067
Ni 7.610778964878575 2.245602353227653 6.306437077458446 0.16043632304360755 -0.2524257661687266 0.02495564150407315
Ni 3.928727035213109 4.26501729004576 5.45695609668829 0.09692004765751695 0.15565715648740933 1.1869060656538912
Ni 1.5432888073402742 6.082070069889736 12.658122732615302 0.44678933808739835 -0.442907743644805 -1.9790709200658754
Ni 6.31071674862362 2.760374033516518 1.1974804676846666 0.3360472969451245 -0.16058724679917505 0.4454186829921168
Ni 7.119832544025123 9.28593415767764 1.7819500460355242 1.2454122894199005 -1.1708850076352868 -0.16524274329331542
Ni 2.6913575175346147 3.3164909059649372 3.247601051238085 -1.5294878212834242 -0.2844745670741552 0.3472341667998794
Ni 0.07185298846726779 -0.1965070786658479 0.49951963120442516 0.33652320814027853 1.0883646803428675 -0.9918621798387435
Ni 5.500436039489535 2.6791536593837626 12.443188752676376 -1.578714933740352 -1.6961631832582076 -0.2609867683648602
Ni 8.782700670549582 3.3110731325737257 8.190860701503377 -0.9864062989304946 -2.602575006641931 1.0269248278698313
Ni 6.258055251633276 7.441080619152141 12.748093827763045 0.6905867391571655 1.0035725262971362 -2.652983798111786
Ni 5.02418972049961 6.478898857428281 5.147016930114396 0.07799518572855599 1.3162433532998492 -1.7850094527686549
Ni 0.34379285399130016 2.7942304945380494 3.0471046053055 -2.040049773742093 0.39116095008981666 -0.9558808766481278
Ni 7.357040414158773 3.5168838040101815 4.009789313910728 2.616594203739158 1.2995278403173813 -0.9745110901548054
Ni 3.89241131186724 7.669773524621445 13.252602248253982 -0.1272266690608583 -0.7557114966809565 -0.054223794340571126
Ni 1.7740619159034734 2.168579366671024 1.4135543989190476 -1.5536446210352857 0.45810810553432724 -0.5559858891194231
Ni 2.9013840672413655 7.175323117223166 10.87322342085999 -0.6753241565711401 1.156375501165202 1.5383013058099957
Ni 8.870161653964024 4.643789914729294 6.561545788616095 1.2438012361790385 0.2697007511990903 -4.275663824579178
Ni 4.607085886805898 1.9088775670820548 7.328930860884642 2.0063279560096157 -0.7689961296050046 -0.9940787278740879
Ni 5.392570575060752 1.4370875053866077 9.779309331210055 -0.6209491813646854 1.1754852254114594 0.7645897730071929
Ni 1.725865921554691 7.44974350936983 0.8458706727338623 0.7117561741459291 -0.716163044964373 0.91330032297344
Ni 4.874516796557074 3.4180325529882785 3.272079032177628 1.2915864739831175 0.9996670205951429 -1.1619992751098827
Ni 6.11979108599237 5.128005722905609 13.678858051026126 -0.3467029768867577 -0.49325739974195043 -0.08979706345949051
P 5.620200265615398 0.3722093527886179 11.710498694409875 -0.5446583799217458 -0.3953883579076029 0.31494316797665756
P 4.059946246376023 1.8530264253477378 1.7785671735374964 0.8239478032505358 0.14750058881854597 0.38818798350442174
P 4.885759138611193 5.759777270542228 7.0271655056676945 -1.54043686409576 -1.5940371659197192 2.2633930207225665
P 3.278899324721479 1.8895732823707068 9.035442572853732 -0.3130534071531125 -0.6047748855976681 0.5740360617529147
P 8.424471207086649 1.5650985811113804 1.1944785034864986 1.0546063529454999 2.9130470262211117 1.551691868184289
P 1.5011670060256659 4.34696804659815 10.377632137631547 0.6285992417107755 0.39146742558664194 0.6719328715014041
P 1.6734540489356142 4.285597432654697 5.970260540394928 0.575714477896602 0.20730419123973973 -0.6596375990738188
P 8.307351150226802 8.173423052368284 6.345109439776022 0.25861775391205144 -0.21074149905606288 0.0671862680385101
Ni 4.150754045434864 7.8271108412966 8.564952406958293 0.4483906211362471 0.2381630856021253 -1.3168719880227837
Ni 2.5593801879108153 8.476420812351526 7.052333189499702 -1.494259337098433 0.5337977830581581 -1.0979482102662446
Ni 8.048749546940828 2.283776391337402 10.712536514936309 -0.6142290890320325 1.4512594364981393 -0.47829820732895684
Ni 8.741928689909235 7.520895700528131 2.495005760699778 1.2101184992146128 0.10972465562135296 0.7950267493408114
Ni 8.769960582267858 7.914581070058124 8.644003822665146 -0.39454786428417854 0.9284317792982398 -0.9769050443082787
Ni 1.3935604113152347 -0.26797823429854734 2.4900391602462646 -0.0411114253283292 1.8077979114180802 0.27542736927022243
Ni 2.0685447112223714 2.446096950090821 11.860089334763362 0.2851841915466702 -0.29559921623240704 -1.8410219635785328
Ni 3.4457685942402154 8.674502373625776 4.777025536091224 0.580219050635175 0.37033012938739446 -0.7509706395618615
Ni 6.531976395037405 -0.04390800237123294 8.38928618968915 0.22378341984168554 0.17818824771038988 -0.741258297370104
Ni 0.29075229777051276 5.906667345012487 4.166375908402663 -0.2042818594736482 -0.707127417124666 0.4323315107908554
Ni 8.64226384834394 5.364344530413364 -0.2533326799828163 -0.5793392191333829 -0.6748387322942894 0.9904460162175073
Ni 6.521751041162523 6.979414212513651 7.4332719990050125 -0.33655149027505266 1.2443535091380828 1.5864596106827775
Ni 3.71022250223035 1.9873058463954485 4.957751731819428 0.1472193101327013 -1.4751367573363692 0.31066356676469725
Ni 0.9088962038053469 8.350415976943976 4.82287043867655 -0.928530252549317 0.586489457024919 1.1330000596640553
Ni 3.772388216023024 3.8391950940518567 10.962233924445705 0.10337223104076391 0.392745263857801 0.39899664408415153
Ni 4.054722625273574 8.19911587191466 2.1631994992028565 -1.3718863965854502 0.18351197391614846 1.633825758671567
Ni 6.198598424536208 3.9625465148463044 10.656285974207965 -0.759841202578614 1.1820603075258158 -0.9175812097369811
Ni 0.6664702597775007 2.3728183291032034 5.263009054629996 -1.1632645149755514 0.8138878479113725 -0.1862617687471437
Ni 8.527871168873869 4.708775459382583 10.787257410069026 0.5433807987609028 0.585605768868385 0.326740931942534
Ni 5.198335078173438 7.42030632425444 10.468671994902197 2.006436199452706 0.28238734552782335 1.3900234725057932
Ni 0.8159314652718131 6.697708486864812 6.704195022378931 -1.6929287354813103 0.23812837570944792 0.9756945689399453
Ni 1.3616639638755073 5.300126349568046 2.042214887261908 -0.7565728162399873 -0.30499274163216505 0.16501982864923193
Ni 7.598898693875662 0.0363184969499946 10.773374596887724 -1.703509853431266 -2.2730439135487694 -0.9734379116952848
Ni 7.33705197376321 6.424961502540348 5.44431770722449 1.9547153740396463 -0.17149772306409175 -0.6503317482918606
P 8.213131818093974 4.676278064382397 2.4174705819146967 1.8553113836180113 0.35285074165570846 -0.6586868051247753
P 1.8303475889507375 1.032011868249153 4.060085851116991 0.334062919525244 1.3744963234044716 0.8151710854991704
P 1.5774503648155764 4.211930507089553 0.17475647511607897 -1.2199840791547827 -1.1605314323151046 0.05061139439896445
P 8.60972947195542 0.8464864128496553 8.940140610577368 0.2853369150744505 0.7822424530919495 -0.30175957940684806
P 7.286923701873875 6.853492585229858 9.96316230332206 0.38937197651019395 0.06122876490349455 0.3163863281810874
P 5.188155951033977 5.291454214003274 2.150587921245601 -0.20737618212825576 0.0018481089523323007 0.19941167586554043
P 1.982183924110924 6.969586408563381 8.591271136502256 2.1891673293387717 1.497940385494446 -1.8734371466844444
P 8.043442717714623 7.410432293568751 0.541015522521448 -1.0634710024249814 -1.5016031790580138 -1.149927431547013
Ni 5.24825070707984 0.3348997546312208 0.4882264397413449 -0.5271229421411437 0.8935084850584933 -0.7972384122801496
Ni 5.921644807288533 7.248213433633256 1.3499325429606464 -0.19140577484192842 -0.5735565510133348 1.2643785461097579
Ni 3.6241483208785055 5.656201647160413 9.43632729415802 0.25476598426612895 0.19215885095786905 -0.40703057013222155
Ni 1.6391260752128003 4.734949036977328 8.165461883994269 -1.021795734173382 0.5789571532036158 0.274834729991546
Ni 0.532599483070902 0.7549620993918054 10.92184192757051 0.88002896251482 -1.2954045621776271 2.7745131596775505
Ni 5.924048597530367 1.2295109726571116 3.264014315916273 -1.803710628722584 1.4418389145151878 0.6027254592678072
Ni 2.8743876537561466 0.42714428062691256 0.5630351656713607 0.10247620158905578 -0.6495521898133588 -0.5275263482271495
Ni 2.602297089074646 6.471992583156549 5.414142743411801 0.305132609644139 -0.6922237605399563 0.6398020524051304
Ni 1.1075740899665132 2.4046685498075115 9.431062993528402 1.2887991410459674 0.3551058562384723 0.28790673268415573
Ni 3.3935693646040703 0.20229559047512713 11.593626412851881 0.5205496597990003 1.345292962367638 -1.068440944835747
Ni 1.884155508979495 9.402055717052418 9.237034592415768 1.033456458340762 -1.196950594374087 -0.919104845470359
Ni 3.4982914110243 5.090183007985052 0.4640812912968254 1.3335566477673162 3.183886519010336 0.5969841859086557
Ni 3.4322611421505225 2.975300617177777 0.017464460641636283 1.5570891279404602 -1.7534468474710252 -0.2694788649962714
Ni 0.7440895712210461 6.660819551999735 10.098260862121412 -1.069095033479978 -2.281082981803162 1.8019517370499483
Ni 6.476236197468096 9.406308576711046 5.6968016643449975 0.02956254414846522 -0.07135428337327065 0.5474063749805281
Ni 3.755524702941847 3.833795811354813 8.163364114740915 1.3722116411353529 0.23965046878092922 -0.5835131480054144
Ni 6.596462690948157 4.390818727817463 6.52078952506579 -1.8199918823811108 -0.2900260930200037 0.49290927237391235
Ni 8.222044332682929 0.6440234815923082 4.060289248752838 0.7215867870831056 0.2586267527731159 0.1630195103897515
Ni 8.125615362597028 5.469833940641564 8.413805774690571 -0.8256976960621071 1.021867467951582 2.033605560778646
Ni 0.18019921094441738 2.6712488876269607 12.956032778098232 -2.3869036743844183 -0.025697661876420263 0.7340952039627615
Ni 0.32792783839519224 0.6370913203487406 6.833691825380099 -0.3696444161742795 -0.14812639532800298 0.9523651501853857
Ni 7.318154484323556 1.0455285656859301 12.932176084482732 0.6957158328536147 0.44284526583798567 -0.22195999347970163
Ni 8.727709346094075 7.442846480445181 11.869885704533548 -0.10934541790506329 0.20268623285175416 0.7958392179397777
Ni 6.967339789221974 6.261115461518073 3.2008223685972763 -0.8921617412226118 -0.5076056980438226 0.584609980614019
P 7.288661827125663 3.6750809379641463 12.532848279627386 2.480358389201154 -0.04399594596497584 -0.07020551448080813
P 2.0939139436208096 7.248167206897836 3.4075695936933394 0.1905969057873879 -1.4500736437201542 -1.0265713011851547
P 1.6250823929922362 8.695868370736852 12.560520527984444 -0.05551011725216246 -0.8766533611743675 -1.619765681034075
P 6.711114240136581 3.2104745109529502 8.745408638551645 -0.5023169388410574 -0.18713877203545837 -0.7790676549083938
P 4.612438942767522 5.92098838764557 12.194086743519188 -0.5732927558289869 -0.5393158846629099 -1.7099154998472939
P 5.891190633993906 2.6983469999301035 4.979280447039182 -2.6105924776297686 -1.711585945571181 3.440147342654436
P 4.590684641078919 9.115015426136122 6.638499435069594 -0.5950224341965946 -0.6554137908004584 1.344531401611265
P 6.371745284724965 8.505867242813999 3.774652401523891 0.06336098075514894 -2.6068031857906653 -1.178005934950784
