# total energy = -381171.07571520965 ev
CRYSTAL
PRIMVEC
9.18783910445719 0.00000000000000 0.00000000000000
0.00000000000000 9.18783910445719 0.00000000000000
0.00000000000000 0.00000000000000 13.44733125037564
PRIMCOORD
 96 1
Ni 7.606345692604638 6.103692954032924 1.8875074376303926 -0.892503697943063 -0.030433119678876616 1.2757901303808092
Ni 3.2455399107985903 4.949139882264023 1.9201986885726972 0.5214719145029535 -1.3304584684579666 -0.6353311611179703
Ni 3.8814394552093257 2.581194815976857 9.879794750680539 -0.22101999816393547 0.4519611120963248 0.5067806310393659
Ni 5.951523959876929 4.395306118302591 2.5080890163934475 -0.9890252246105805 -0.2562654516297909 0.4854510163236543
Ni 1.1605894821758858 8.343412535327875 10.594130879024961 2.561984743924394 -1.535108252793995 -1.0532400687255925
Ni 3.2126198826582133 7.648821073596255 5.121214330220222 -0.007930053480354084 1.1979960049194658 0.8079560558079698
Ni 8.70385147028378 3.432043860344089 5.4743544456520645 -0.07427814188828498 0.3995838840461893 0.4507210690416366
Ni 6.4748173460715135 1.4262007279225146 9.75001468328214 -0.9845425062488785 -0.3059929007619053 -0.01418837568524008
Ni 0.26941776756034885 1.3880528192317951 2.70362644951908 -1.1119265268232075 0.7818218206147632 -0.5698690748594185
Ni 6.90288796596778 4.291364092527517 7.303837003093303 -1.194515245459717 0.5112229830814357 -0.04557434619568925
Ni 1.5067137635334908 0.33367935305279317 13.353577127305986 -0.501110320127466 -0.7450074799998911 0.9985881857086674
Ni 4.7409801955354745 8.704825381247463 11.77726731879406 -0.6157977190707331 -1.3115053243942318 -0.19696629964884144
Ni 8.364562941350522 9.103053899162166 9.602457065660795 -0.35027629606031285 -0.427573941501212 0.4643137201244068
Ni 6.012301516714382 1.4855725453501225 0.7168728907696411 -0.04897205902332856 -1.3532564401890887 0.3141864923162912
Ni 4.48594415280017 3.266129858625157 5.882144747905503 0.09378201624916752 0.5369095892142625 -0.41404222556336434
Ni 8.12691029053305 3.9708095678862585 3.2773969059342676 1.1432677601386505 0.09518095347922316 -0.48182010443928636
Ni 8.315316122809518 7.391864772451422 7.796036903596382 0.16275751497761645 0.3253574213314461 1.1567724794933048
Ni 3.9678051444416864 2.5938372828261897 2.4800642690214745 -0.3200190398376682 0.1345165178540522 0.5097826510904833
Ni 8.51976392246893 6.154860030983458 13.19087703176721 0.20482076269625368 -0.9488519948258046 0.2604249823241192
Ni 2.059316357031398 5.001740262142243 13.137504873389467 0.03098462130697244 -0.96773006267723 -0.7162651177598761
Ni 1.5111514899057494 4.896420060475163 4.990453001586716 -0.03569873895319013 0.30180791614628016 0.20080469955832514
Ni 8.434565088825135 2.74239545614513 10.144102242033329 0.21966091303287974 0.016773619913913046 0.17004736377081037
Ni 7.962392840384685 7.021741854894357 10.792465090427436 -1.438978048027625 -0.16997742976482338 -0.8074192094678933
Ni 4.724809598402607 5.8834512586511245 6.839958617170941 -0.07168595568107654 0.2332705333965144 -2.884951810646793
P 6.256523472617082 8.13601543925957 9.693831964868634 -0.3436029978051953 2.178880859811099 1.457333153496045
Ni 7.440146867868024 2.5715659604113768 12.2437008428202 -0.4806127143947464 -0.8344091077931758 0.0033552896254780925
P 3.6499150931916393 0.5527091724335557 6.794372233799104 0.3764074459297259 0.5461118245388209 -0.7149165741517817
Ni 4.551324817116923 4.994215421771893 8.879366764050353 -0.1025150252467912 -1.867570146380706 2.5174401245448
P 2.6266286812166464 7.0060857767611715 12.01665647123546 -0.36888439807980344 -0.08111881895920223 -1.3835111253085721
P 0.614069238281364 6.809548706721872 9.030743766460409 1.9804631724277117 -0.8781790537902747 1.5003487378256226
P 4.493524120206201 8.97656491579388 0.9289778356850387 0.5885049447930509 0.325805050391826 -1.3865267722064445
Ni 2.3340051879867048 0.7800374482520488 2.0074179280741733 0.2772117148641548 -1.176666133093438 2.054161787663443
Ni 2.706939584363462 1.0420020405884305 11.600461133608642 0.5190805314526415 0.25715068244822165 -1.441751497007704
Ni 2.0866961180859125 2.1587930929163734 5.425997928737294 -2.213901855970974 2.6323913186724153 0.7372985413914076
Ni 5.050610379272768 1.858130240316398 7.898989399080995 -0.5249292769239348 0.40062080995113586 -0.463320245862886
Ni 5.132501590775749 3.5316676016575452 13.935872979789119 -0.5675591957793192 1.8234929535558335 -1.3362689044921565
Ni 7.82723972457532 4.63932594174113 11.538630650389697 -0.43647098688052577 0.7067330098997248 0.09634026389464699
Ni 2.764914850220504 2.737388083737509 7.58007214739944 -0.8819277221994294 -2.672014589490992 1.3104845964392011
Ni 1.5150746972783256 3.2708799715329366 11.238593489644693 -0.058565359138718485 -0.13641347776644897 0.3262606498720058
Ni 8.119091439305738 8.686605895955148 6.018420617674888 1.7714990769870458 1.0682781940056376 -1.2904040236392422
Ni 2.284004966624736 6.443698134430023 3.1979101519708717 -0.8505378950342384 2.2876799182943888 0.6279888618202862
Ni 3.3655330917958914 6.974939001601841 9.780943706650532 -0.1560741894201699 0.4380437306842843 0.589676596503649
Ni 3.9929890119082714 5.63569198462561 4.529303403930527 0.8602075569135186 -1.8246985438281609 -0.6394019887532343
Ni 7.761087281759044 0.7871001403066142 4.2137617644004575 -0.802009865526864 1.6928839982863038 -0.4128124669213213
Ni 0.7789486892973643 5.419410247973507 1.7161753670880213 -1.2710999239939917 -0.28619566353032005 0.18728249670217423
Ni 5.870845543158912 7.126666979472395 3.8384872253590743 0.541755604452654 -0.22518235707174125 2.0314579183080235
Ni 6.612460366325768 7.712419297092681 -0.25801014631025326 -0.2847944123074192 0.35409644113735145 0.6194263169622558
Ni 0.6011088721929416 5.61891499010026 11.16365195977313 2.345187268482239 0.6490978758847595 -0.8998724796033082
Ni 8.410888027000476 1.0429575758735545 0.40505692006762717 -0.4103154115310805 0.523320280565602 0.15559236468774493
Ni 0.25233573677090154 1.014071009177114 11.48708687202868 -0.3864180360881926 2.258401481045246 0.45918385509700915
Ni 9.186801054199716 5.352899479425309 6.8002616387776085 -0.500566531808854 -0.21423434270066977 0.38485043449075657
Ni 8.921153057095967 3.3408637433289887 8.072849962993233 0.08550692072456888 -2.581968386135173 -3.4998946379163987
Ni 1.5703119870299165 3.222331428777214 1.3416027789676335 -0.6149186588998893 -0.44125143898830455 0.972514628550067
Ni 0.8599293859276944 7.174976638406837 5.765112807508158 0.1062940326732492 -0.1821300059669573 -0.32748038121171985
Ni 4.957491628169579 6.4911808878292625 1.9279578188446895 0.6406662001776386 0.5938903774746804 1.4462462995542642
Ni 7.844669055689552 3.8714155225548037 0.6917496630423042 0.1814617762553391 0.4353846957948824 0.42288887732071684
P 3.153257253069885 4.649956271788134 7.348442125230033 -1.3227029928822638 1.4007467724605682 -0.8149815951961836
Ni 9.01722110460805 8.162017024422077 12.41866486622997 -0.181357646577307 0.29797363000185456 1.4930493759507317
P 1.1361038904945835 8.12897755437106 2.280950010064123 0.8044344158079565 0.5953718471162134 1.8632954302647524
Ni 5.126492743886605 1.6971133569337256 12.062498276539284 0.2548462026847611 0.6646131979115393 -1.1756618601986397
P 6.463415237524986 3.5565574582671693 9.367505639591656 -0.4650153741771217 0.2807107291563488 -0.1279972286782957
P 7.301722881274966 2.284455170749458 2.2109965581376954 0.2702895338230248 -1.0749095832792261 0.8999547549044695
P 8.288120118540604 5.721671784608208 4.608023892097967 1.3533896233328435 0.9191940627500556 0.7441626155010926
Ni 6.417136091071432 4.86185540910366 4.922718412846417 -1.1781638006848871 -0.9929564413441867 0.3641296570036374
Ni 8.247362863494354 5.070998194635172 9.09694490482487 -0.5014839014168009 2.33929969935321 1.6753706719928887
Ni 6.791999933696998 2.1971890732676536 6.198991060613339 -0.04880390887658047 -0.2760452053598794 -0.6657087449685632
Ni 1.6220854613729325 0.03462161597504055 7.140318271074676 -0.6870650991571522 0.8035941792948483 -0.3456328837510305
Ni 4.07414519626885 8.566015505404645 2.931881778320929 -0.015289836279534957 -0.8387254757803427 0.6815523968690392
Ni 5.634102488430163 4.154208027755105 11.340483870908532 -0.707787162195852 -1.7442734085018736 -0.08047090096255818
Ni 6.634593871151381 0.20399943310254773 7.475895831722726 -0.6384352539645908 -0.7659768831627066 2.3642152316479668
Ni 8.68472238890274 1.1000875605168332 7.7880352143673965 0.3765668543257257 0.5475490712059795 -0.37615059272391344
Ni 2.0582965068713137 7.078375696216513 0.6735807108660282 0.3212827370414402 1.0473501856037188 0.07742697192991181
Ni 7.138886805714846 9.537804078215022 11.694889151809235 -0.4030353329298995 -1.1267620491741432 0.35382724663636483
Ni 3.5385309175997337 0.15702384843156758 9.46567035202744 -0.2072489125217721 0.8292411904389912 -0.019054445528289762
Ni 3.488980900362487 5.064254320603624 11.078476095727535 -1.4128538401367474 -0.6476048362790009 0.5184351845591587
Ni 6.413212883698857 -0.35685751520454595 2.301846831722642 -0.18108896629695262 0.37292411536681586 0.15542935674731942
Ni 1.064356053556764 -0.18661971632042715 4.374685850606402 0.881454639217753 0.832047806649851 -0.05405487286287465
Ni 1.2673429867706514 1.58801695332255 9.374188873883956 0.7408152962954144 -0.17783934901140339 -0.24803560752083093
Ni 6.744875506029681 6.923349284044426 6.30400163209668 -1.0736191466025766 -0.7000856797865361 -2.0224035214152396
Ni 8.489692124505366 8.222629200152491 1.4512899606445155 -0.165677773948205 -0.6762528390329966 -1.4223874906587957
Ni 5.709112008312396 2.182212895241191 3.8905142840662195 0.8826275764799314 -0.16425466834843325 0.1967050755676548
Ni 5.448498947134108 6.392475930443809 11.186431369700129 1.1722286661473746 1.4565656792024013 -0.8818261636245588
Ni 1.3965423827265508 4.293853996972407 9.013409988874688 2.2820139782578632 1.5306779849367833 0.5616261181243359
Ni 3.2096246470529204 1.9055854301977961 0.3892648619130972 1.9687237725035964 -0.21885230108865536 -1.317226543148725
Ni 8.26313838353818 7.747516843142427 3.777826354080477 0.017479130621369895 -1.140873805985177 -0.1866967994020333
Ni 3.42254363452853 1.0025678343985058 4.456378604780935 2.8288845353395797 -1.8214558685211468 -1.1045148077401687
Ni 4.340087204229561 6.443100924876821 13.339820175551983 -1.5721411371775762 0.2014176505519757 -2.3146037392684264
Ni 4.666090117563881 8.093696251535713 7.762163177738737 0.6967653571640516 0.8006330397839954 -0.08821969167004162
P 3.5664068219753706 3.1210906277504713 12.157879992457145 -0.2534562643157699 1.4653074299507731 -0.9205215233122277
Ni 2.6486059927744985 7.179570558046856 7.539596040235159 -1.813030620571929 -1.7105392494742218 -0.07615016210001724
P 6.249687720192733 5.592371322420229 0.18466913804127502 1.3027921128909499 -1.2217568547844893 -0.0892995549977817
Ni 6.131072715087438 6.500910809626822 8.494329226990002 2.046641568026998 -1.039564628121029 0.9781255469789413
P 2.5101360669850403 3.6533697207609337 3.64444189733252 0.5505418352857164 -0.16573073867332747 -0.46314772484076366
P 0.3654003681671256 2.7354218861315807 13.053378260589652 0.0736901305952989 0.36040181453008896 -0.33852506906165564
P 9.321062949598916 1.4781028320154512 5.798489471260754 -0.6383370378238297 -1.365153705847307 -0.5607187758187182
Ni 5.541636073915858 9.17787047441952 5.498533163501413 -0.45786693605779855 -0.25047969818594923 -1.1192387442139047
