# total energy = -340865.96314272063 ev
CRYSTAL
PRIMVEC
9.33991658714648 0.00000000000000 0.00000000000000

0.00000000000000 9.33991658714648 0.00000000000000

0.00000000000000 0.00000000000000 13.66991201852912

PRIMCOORD
 96 1
Ni 5.446833733010309 3.2527099256563816 4.694644504327794 0.8309106077216141 -0.1709181964115379 -0.5156126275086991
Ni 4.580276294717547 1.2532579946371818 6.420675054367241 0.13070665718965876 -1.7656007092247399 0.9316238038729762
Ni 4.750570989397349 3.540650206591147 9.346542079537478 -0.1943355468942137 -0.3950857390655196 0.3397602270203375
Ni 6.573236983878443 2.2222556353786937 8.639110663961695 -0.25125848533350276 -0.803167633280391 0.4358302679727333
Ni 0.20489254678874558 1.8094313330232283 2.0292303862952163 -0.633792870096573 0.0368693622225236 -0.6978627039932884
Ni 2.956354380096678 4.822077388918467 8.18021162029515 -0.22583207484059817 -0.03229948346365405 0.2761778742830018
Ni 1.5750461323985585 2.569775242664716 3.8357906290346424 0.3938027585880379 0.9451030693063337 0.6518710677545225
Ni 5.572016631753982 4.170524824838891 11.704889635948332 0.010043500278931089 -1.9018524646023438 -1.1300049815914734
Ni 6.452462525648612 0.0755870089713246 10.204384441890696 1.1752995917632145 -0.5616042637474651 0.05810153212842251
Ni 0.3261778984425322 3.34001946362966 11.460593850092227 -0.25232806424859766 -0.19502511676207057 0.3862115765043413
Ni 6.627875494484313 6.552614448593355 11.158379375010632 -0.38779974692706765 0.4002125187691236 0.78315493760389
Ni 0.1389191137091513 1.6331310721349532 9.60458902422521 -2.6581558292310286 -1.9740179310230002 -0.6412282433286957
Ni 1.120799301062403 0.2574407841170786 3.7576809086591045 -1.5445678555449982 1.3115778295033798 -4.036750233964273
Ni 1.949763576075058 6.862148616112869 6.861571409282878 -0.5559838322368941 0.1790940473541109 -1.218310805217418
Ni 7.671041410904666 5.1419134841641805 12.677926790508142 0.26211985352803885 -1.529396290010882 -0.23770774323226154
Ni 7.150144936545692 1.762255415575322 13.455130183140167 -1.8580994878861097 0.3032438772618584 0.11183141755171062
Ni 6.909997007537463 1.9072482768822507 6.187193023652928 -0.07666129740848088 -0.06695641141589115 0.04698562472091908
Ni 2.080980060776233 7.757491676574399 12.01534658720252 0.5361819670196185 -0.768492964716341 0.15756028704739317
Ni 4.884598788917732 3.6053851667636754 6.826261855548606 1.6410425881349804 0.24534237695938393 2.764502569519084
Ni 7.4433062307161295 9.213014899533073 2.709704935322167 1.5531283435204994 0.7954221850070171 -2.4943498183842396
Ni 8.629494286095063 4.22752633427951 8.642719607636586 -0.3729963633656479 1.2159284210281704 0.4503246049341664
Ni 5.395931188941593 5.61401823554793 13.417961986053664 -1.0430345889475003 -0.10852292200376794 0.805305248448684
Ni 4.040410450266176 0.46200456585055466 9.45689972907009 -0.41636341749737327 0.6446753213370316 0.014342898985233363
Ni 2.6652198477726454 1.565696876139332 1.8747733877580435 -0.69401864765685 1.0985645036940048 0.827800858448039
P 5.954738383736332 3.69511374306976 0.4643815745598186 0.38251895814410247 -1.192895707578423 0.04875274392367088
P 1.134641057082557 7.742631869672871 4.614675206608388 -1.5190090332392872 -3.141272283884235 -0.21600711833037636
P 6.678693979305944 4.805872634063563 6.137312266432123 0.5915205916909232 -0.15095178059194003 0.7058660339137391
P 4.162520516533039 2.225543285931389 11.40883950565304 0.36763407061247005 -1.0818911568033818 -0.007663430082528738
P 7.0854753557875645 6.588974742916202 2.8062002810186715 1.5737794441119477 1.4875001639977286 1.447389412019772
P 3.0987694244929704 5.869035311374031 12.341100453443088 2.1790713785553506 0.6616325180166606 0.47488455366171767
P 1.0841681491656128 4.5044641937623595 9.96408053627954 1.8244463186080386 0.0677717082283349 -1.8400899386825667
P 8.374271732109419 3.555239155918732 2.795496736889726 1.4880267259251598 -0.23508084713237581 0.4001958065985753
Ni 0.7249839203589634 1.6793169584505134 6.2803951148469315 -0.6079599681938691 0.8665018745626625 -0.3443151933808715
Ni 6.1069043007945965 6.17933535203366 4.673633428522843 -1.9072535810132574 -0.6215464486290522 -0.34856779800963844
Ni 3.008097516636254 4.089799927887346 11.121635210126094 -1.166054676126179 -0.27704356471740677 -0.3343164302969468
Ni 3.7520218533469514 7.49940176827149 8.101883345877189 0.2679027787584031 -0.010499613979743208 1.0135162677734093
Ni 0.9836332896508112 5.547938327422027 3.550772807923565 -0.1328715260514615 0.9747381185639471 0.20709001834640467
Ni 3.0394983153810298 2.7918597734658075 5.864269152064257 -2.0484446826740075 0.06241687167432477 -0.6852943804099747
Ni 3.1559857520094767 4.509909364990261 3.931056841740423 2.147660468344237 0.7493930106620965 -1.1234748937824393
Ni 7.153591365676216 7.421665644549668 6.53610427847404 -0.6396590990693629 0.2535531949049504 1.3804240017428162
Ni 1.263840119853669 5.09614789408405 13.07661045952048 -0.9608503048382613 -0.3859644934905417 -1.3991192641594743
Ni 8.307612749170257 0.16854999830695025 7.836933269020432 -1.3068549701064138 0.7953422236987012 0.6830773181539977
Ni 7.187654040578713 6.822612750233441 8.855546413358612 2.834317533429693 1.5495233997780604 1.0174603400228222
Ni 1.579669390988286 6.884657814499219 0.8975033831116394 -0.12590589336690575 0.9023582221396395 -0.20267697688037353
Ni 4.208407525525628 5.785910055922364 6.238264620207452 -0.923167702685823 0.9777776767212193 -1.199344034306928
Ni 5.140232299222462 4.400893861436121 2.582929580842033 0.3820137363729098 -0.8610110266514204 -1.4106347209982415
Ni 4.8196583505856605 -0.004781103175922236 11.904497658070273 -0.2892393354526503 1.0646282559578761 -0.21073404285689515
Ni 4.762227204993267 1.6301983384032877 0.8972222516297185 2.026957716444825 1.0012320510894175 0.20357017811860426
Ni 3.037592972447081 0.7870794201729923 13.392412644897703 -1.8312844245757944 -0.39533153652773845 -1.7019962450002173
Ni 3.7845434420528727 8.845180974201279 1.6971739445064733 -0.1116028464806723 -0.7512344347462094 0.8443551632622941
Ni 8.95073136879221 3.742205601270581 5.001068479705126 0.03159011610145527 2.1522635143338866 0.7091071665588562
Ni 0.8472340853709699 0.3472524856786153 11.79353851792518 -0.6871676861732875 1.174958663484028 0.041109882666432424
Ni 5.768743289684144 8.859218868464632 7.95173298276572 0.22978566017170748 0.12522557947042948 -0.5050775323053301
Ni 1.3531110402589528 4.262214783576981 1.5456842373914346 0.39560715878662833 -0.7161213930931603 0.9722354067467514
Ni 2.1378041118063384 1.9387144550414266 10.337241949893315 2.1626736539236173 -0.44309954794063683 0.5096206715913223
Ni 4.643582247689614 7.7057765597838515 -0.11547031973870715 -1.088489893066822 0.9120281411292357 -0.3741412756033685
P 6.1352322670625625 -0.08915417145099766 0.8312740363242501 -0.9112874063084693 1.2594890792279407 0.4660993512699198
P 3.215256861121418 2.41128620224232 8.119175266994404 3.017013439202449 -0.7677195768854261 -0.22700269810993165
P 2.04495600344173 8.755060121408793 10.062258000909397 -0.174963313015189 0.5905075770453766 0.011503115543593092
P 4.218849551996971 8.232146225119756 5.998972227536231 0.32620048605803176 0.12652398656687888 0.9101324667684197
P 7.347749546612085 4.268808764515057 10.336694630795622 -1.3216082171561885 0.009948369461963511 1.555123262463341
P 5.253600203792386 7.5092273602642035 9.872383105608376 0.6478786587656777 3.346349128455353 -1.7599309125334723
P -0.07342668632121556 7.603868732566646 7.699167634979626 -0.34926148164255333 -1.1918376986275538 0.11520624756121449
P 7.960251920462064 9.20144274318424 11.96094064051359 -0.32007457566595204 0.46566586327692705 -1.232216873775549
Ni 8.760290474560808 0.2508981727188885 0.2946220570864649 0.19406249573848514 -1.4709831401793119 0.4980741044043035
Ni 3.739553065029202 0.47799823859610896 4.216334312525833 1.1964816251574684 1.1571763997999425 -1.4515983078947967
Ni 8.87805747972823 3.313344662554383 13.744959929151099 0.043475811795447704 -0.19125125154193512 0.7565828435423163
Ni 8.905918450179053 5.927792725087113 10.6311999389278 -0.6263081316837537 -0.454494677151456 0.6491500692789336
Ni 5.087592530713968 6.743849235713902 2.261208690478325 -1.8849988833801152 -0.6550368670770139 -1.7149677175592206
Ni 7.040512998512921 7.474594950464791 0.1428428125647968 -0.12227832391664747 -0.10773256489198867 0.11122617986754393
Ni 1.5264972472482483 6.4916061150416375 9.455327821149583 1.0309159513070956 1.9310206015258677 -0.7296050294018919
Ni 1.538424320418111 9.153407553432789 7.874183657370755 0.14982023809065811 0.14041308584414527 1.418791802887737
Ni 3.380900277462462 7.393515136692216 4.142392996814125 -0.27004065103701236 -0.8692591255928255 -0.1735072972949528
Ni 3.3149978277470744 3.490205318423232 13.438042806190863 1.2916615501954272 0.5234300666705889 0.5450381318586678
Ni 5.7138619412533584 8.28265649270207 3.7138692290779054 -1.3116071400794187 0.662193275616137 1.6717916963923791
Ni 2.1130253137486674 9.293506298576046 5.594985354024402 1.990721102710294 -0.8024556948150309 3.5757897465828163
Ni 7.707737942215856 5.1311539005371785 1.5009833977743925 0.3279316098165255 -0.6372193792796187 -1.0937647683125162
Ni 6.65199115848164 2.269113995670942 2.309709008063652 0.3056139201559317 0.04760526058278898 0.2842627081736652
Ni 8.344271920816077 6.69493609382622 4.886132403181232 2.3515175815756404 -0.07137588063982547 -2.232410456298123
Ni 8.920180502434636 8.31079766064318 9.941921584756047 0.8109765878018486 0.3801409448302292 0.4451286625555237
Ni 1.2771308208095928 2.9039014099150418 8.215494088272028 -0.5877683237373426 1.9044523641190363 -0.5849005152712443
Ni 7.76251655156687 2.0021698466749793 11.053545352003201 -1.304873678010327 0.3853083479637816 0.6256805254020836
Ni 8.8122764489253 9.164008358481961 5.604294448643354 -0.3802931541373773 -1.337328713215239 -1.0155016736345543
Ni 9.104485071628764 7.598414221422401 2.562411652619986 0.3520269602028324 -0.4348378221524769 -0.18658778462799477
Ni 5.624217424194359 5.730309533933177 8.01744396419608 -1.3957351781785898 -1.7413323235956786 -0.528689001076683
Ni 8.549507242534606 1.7718568495758065 4.275305610323167 -0.7040696041349488 -1.463549309609086 -1.360618794091431
Ni 9.381759168099956 5.487901345169969 6.684600542401184 -0.31499484715019943 0.01603879863041754 0.1274657816548579
Ni 4.327865055551111 5.803338339818185 10.302150950201465 -1.2723319966288797 -0.752449023879601 0.001906987214725748
P 1.3854458306380166 9.168472838493859 1.2079117668008463 0.3758466883302495 -0.496225738341655 0.33762312607267664
P 1.4703550101111738 2.5860360370176765 13.149593499815408 -0.3546044911220215 -0.7395749961304102 0.4482186143347571
P 3.0121510403290657 5.9376276569961695 2.226896639809473 -0.054355949043061236 -0.3808300004774538 0.4568359236901229
P 1.7537654316196407 4.483393342492813 5.3366376640304285 -2.7817641848130092 0.37589399662841716 2.685228002857472
P 8.895373684627938 6.646751465413281 13.431686059127896 2.385284650723756 -0.5853733411426048 0.18427070645904392
P 6.659883387791377 0.6903272267770587 4.440083216419226 -0.2694413268901166 1.0758912304662054 1.1908406248216072
P 3.9486551121136846 2.51690197624765 3.4026053090516903 -0.4057259923881851 -0.23188265191005228 -0.8307206031979951
P 8.42204540420327 2.4236802712293266 7.662067619282423 1.4132600744362305 -1.4332923104967574 -0.7747078352778013
