# total energy = -340861.0329216057 ev
CRYSTAL
PRIMVEC
9.32633351544801 0.00000000000000 0.00000000000000
0.00000000000000 9.32633351544801 0.00000000000000
0.00000000000000 0.00000000000000 13.65003182009918
PRIMCOORD
 96 1
Ni 2.4142892803639087 7.6972561317595956 5.074084961736438 0.5092717728923358 -0.24627028809029203 -1.7841777008959787
Ni 5.7195325188935415 4.083367214952373 11.99738132494635 0.5011257467464337 -1.5248577787105801 -1.1569005204307365
Ni 5.947608002735883 5.20515725165344 8.453232864204402 -0.5523223242249068 0.9994525905914916 1.279974343665486
Ni 7.580201320976311 1.2856257359306074 1.6193713753476329 -1.9475952180550973 -1.2897252524046627 -1.0216599799264663
Ni 7.31494174577926 5.942394582352819 12.147204208208885 0.5713358892129322 0.7986180662364956 -0.32069318308655737
Ni 8.97788295297585 9.36531749600503 3.7565435802013787 -1.586299173845513 0.34702256500970563 2.4161502299543614
Ni 3.6877534775118375 2.4018759305788278 3.846633163160768 -0.5304538062865896 0.5887278594371345 0.9181964747234767
Ni 6.633102835608343 1.857292669383897 10.795728029883445 -1.578404858699101 0.019626515981675877 0.5116549284125317
Ni 3.589444596907375 9.105691026195048 8.258528866613732 1.6074117874544125 -1.5048836495814983 1.6562465495689283
Ni 7.3269447368937595 5.678468672835155 4.681005189086741 2.2934772417024565 0.02580359132666524 0.4749981964214464
Ni 3.018654338795782 5.521739639673407 0.13522250828992505 0.45620266098149814 -0.6235544801980164 0.8088333162066005
Ni 5.2355610986101375 4.15504941363617 4.423688852065462 0.5617135356318197 0.709234693275656 -0.5225960008050677
Ni 9.05906868541697 8.416251154284955 1.5506027232249633 -0.05858052864737009 0.8992916673991739 -1.4517032089037774
Ni 5.843563427076706 8.728478144596709 9.582485832909992 0.18906684229610662 0.9170597900158721 -0.8523281541654417
Ni 0.7245824288786595 1.3501453105460777 5.878262983207716 0.6914935672421509 0.11081428914110591 -0.8656261568259286
Ni 1.5574510498569578 0.17234318057736278 7.589622782999518 -1.2438385171748771 0.9293864299020251 0.7129872183395528
Ni 5.834069219652806 2.083120506871465 5.303760844394048 -0.19489296205958048 -0.7716032282105485 -0.14526809994360143
Ni 0.29629761282646516 4.814663671261747 5.96045036385839 -0.13234933499940432 1.5795302305527958 2.4257059919635964
Ni 2.7810753211961163 4.513590975723064 11.698514307262043 -0.18423445390446982 0.668219684315875 -0.6595689506194125
Ni 4.93001176302875 4.135967735454144 6.793074634901024 -0.2644042786868414 -1.184847640462966 -0.647353382389827
Ni 1.614099199064007 8.58805154225714 3.1580438528587904 1.545853664235957 0.01908838409001874 -1.4537881164572641
Ni 8.314342308979485 2.7402353071398653 6.113439537317796 -2.4277993841575154 0.9790879108922106 -0.17527030273264652
Ni 4.8490871679234555 8.293936291451493 13.373140477603432 0.42119092079300363 -0.8703068501310495 -1.078716358619826
Ni 5.604809291465831 7.204266147056828 7.401729806707155 0.9381346084083004 1.539655505845045 0.2540764143982721
P 3.6844799344806103 3.2964578324458262 0.9227446309023172 -1.0646254277443987 -0.5696078507782318 0.15909086475930667
P 3.536349780734222 8.263774929163777 1.766082061147147 -0.9927687508134128 0.15844448942455938 -0.16161594517400552
P 0.7352517543137707 7.974210929068212 10.271675759084365 2.8119900735770864 -0.43909505476693406 4.179831867779518
P 4.602638807239183 5.740330242425269 12.19436467842543 -2.545078197977043 1.012669860612714 2.8297581961937848
P 1.4856382825052492 3.8081657683271506 7.80773587748016 -0.6687099936887322 -0.6241262935410864 0.19191922414323723
P 7.194333601962078 4.7211112207026575 6.47825026073116 -0.18197059757095757 -1.168008200308124 1.9580436670819312
P 1.5607712245552965 2.490877130427835 11.572633054527891 0.7966678844886603 -1.3805682406301645 -0.5381807426172022
P 1.68244257038262 5.452510266679676 4.3770329364870655 -0.6067412652954196 0.3700167119120337 -0.2519205443975339
Ni 4.102971167806047 4.867049686094805 2.374381899649888 0.3543018722799382 -2.5162610166350343 1.8649352798610206
Ni 5.483081987637974 6.648286106419847 4.033406979442455 -2.5447334130431143 0.858138847309948 -1.1157572134232074
Ni 2.38979832879695 0.20940136643087107 10.640595665003596 0.0960679840698668 0.21825014872828222 -0.06106781384559804
Ni 7.929090127971125 6.90402349519273 6.672162452614276 0.1421951174452325 -0.48944136842996994 1.7537600078360698
Ni 1.5199218841656235 3.944031793623214 2.2297873589038937 1.3574751062561266 -0.16355198585445382 0.27797841782685034
Ni 8.89754591687616 2.4035080389277304 10.543817235713734 0.35007343602088736 0.08305485963965051 0.32453569676109917
Ni 7.0429019261841965 0.5912289178065635 7.0534761230184 3.8466891460756973 -0.8117484329708666 0.9093261688170404
Ni 1.6067500483272346 7.64434784225489 0.4215782496882186 1.464309327703562 -0.9565717320675655 0.9511472186178845
Ni 2.630510994426508 1.1819169082746335 1.8213237992741131 0.08573574890592331 0.06541812039449378 -0.2920251257279035
Ni 2.1630844896342634 6.491547746924676 9.509745095382764 0.21379262717756084 0.0907476002982179 -0.4002654834942461
Ni 4.69314154676918 1.412557133808108 0.5482289249297079 1.48180054250979 0.018122677742639755 0.06232714017399588
Ni 2.977683756071618 0.157132863398934 13.016534129701665 -1.5768002332161424 0.6081126917216495 0.2173088678609354
Ni 8.433346323448031 3.869132009908724 12.327001927090691 0.19690690716581571 -0.27943494776771877 1.7442201866664346
Ni 2.673822486839668 5.149712199457867 6.752192652344373 0.7065345207356736 1.7695347541718234 -1.056896177420941
Ni 5.102110593670449 6.387876224602391 1.079256360495326 0.8488638497659251 -0.20164416474048497 -0.6217670492802904
Ni 0.02269843028319329 7.1066007834585045 4.811226917395629 1.0380512768002963 -0.10016503695737587 -0.8724485790644007
Ni 3.5624914933169283 0.5736795562058218 6.143960896075615 -1.5979313587678028 -0.036026297495937956 -1.0063881413690605
Ni 7.465459440881757 6.576734476403963 9.623476933567684 1.6375086068397926 -0.10316602856722878 -0.7232901429274575
Ni 4.6117040033256576 1.7915140397564164 9.165436450731642 0.7339216544993747 -3.3452463823094774 -0.36492464210110703
Ni 7.063046806376364 3.284911831669019 8.406645030859986 0.8445359118145328 -1.2412704993373849 -0.38340213208000423
Ni 5.843339595074572 4.0668036467943685 1.1400761786421698 1.0782916123775816 -1.3819679491911683 -1.173620918509211
Ni 0.395249077803724 8.600828619045691 12.372225317855424 0.36856275307432657 0.5239897958288008 -0.2937148547255006
Ni 0.24035453442614194 3.505778059775923 4.266931839903447 0.10618064702383648 -1.6686377241444295 -2.4596211566538027
Ni 2.517951476352771 2.18233404181789 9.001131636930959 -2.323230047484857 -0.9824061766321661 -0.7009752814803412
P 5.371035417902464 3.4693307487615757 9.763267479967851 1.128982710974546 3.1368674699483203 1.647778621307233
P 7.5992177148243805 2.194672780935593 3.7812359805702593 0.9516285291296771 0.5561699801057712 0.1613614059610382
P 4.192867695663596 7.21501940949274 5.913207821907731 0.7284439192142552 -0.1053928610152185 -1.030463437150709
P 5.222895937822654 1.1761998658867636 7.170471245267782 -2.5982874350101706 1.0685196205924823 1.1600267247645442
P 7.0974423240378055 8.259344920788184 13.807280365778146 1.0828501782825415 -0.3881697286719767 -1.0280712827694487
P 4.733729749823028 -0.22890272961690003 11.444323224570574 -1.1203831422309931 0.7776990566956413 -1.0849525693375253
P 6.593745708566238 0.14554023095501534 3.559764473424248 -0.7473006469094421 0.06788483676743147 0.10442304090278144
P 0.43642110932980877 1.0807821486432143 0.38609901208310565 0.5014713030113106 -0.6596941633433672 -0.1635337310220087
Ni 1.5585888625344784 7.3526574381390395 6.981008647060446 -1.6773293383811563 -1.1637260279930022 1.8610822246635175
Ni 1.1714620885082354 3.2556644500566865 13.586381495504265 0.9063850839108455 -0.47993342893953467 0.07676388442461618
Ni 7.567405591520915 7.616275578653767 2.9995260289466446 -0.6073470172002186 -1.9398993920727365 0.7384226276935217
Ni 3.6488440144740024 2.4078354576356777 12.263885033021937 0.28326846258119603 -0.18659215550336897 -0.0925525147174406
Ni 7.871033702417308 5.397503552154951 0.6975052850536966 0.18705546829303268 1.4910449439261935 0.4161536154794123
Ni 2.4844792657001373 6.224777305713212 2.469891014960976 0.08825697266588026 2.5905700117612542 0.3945362943199528
Ni 4.3709913376961 9.176487223203726 4.181660240790017 0.5953998721406714 -0.5670056372686945 -1.770307627782106
Ni 3.437565257125222 4.398102988954725 9.203165199958214 0.9743907625268573 0.7288707223390286 -0.7105747522433181
Ni 5.552339339631972 2.1371759353871145 2.737390775446064 1.0962307133545057 -0.0014369895568426864 -0.10823984354571035
Ni 5.612885896209543 6.73666244192956 10.797134440963529 -0.8682954761279755 1.6333107667083613 0.402618557107455
Ni 8.578865103836176 3.4322119417408223 1.5021449600293777 -1.094723789791676 1.2215092575500575 -0.40657394221077725
Ni 2.7696132574201093 2.818679097554829 6.281949594858594 0.0023569302679507793 -0.4704193188015124 -0.16936576432275346
Ni 0.24702099755640186 6.043436078650014 2.456432183199255 -1.35464637855808 -0.04581371590000497 -0.10093019725817456
Ni 0.5842043234728872 6.024251810800343 11.712505672662175 -0.36660820045111703 0.8554062788701333 -2.9165347276593963
Ni 0.023159151154254903 5.5489725332665225 8.453136802970151 0.1860979894757698 -0.23308592818953405 -0.32962288147601937
Ni 7.88275690352914 0.9173605386176235 12.818840109615808 0.3035984323877997 -0.0038882793108126583 -0.21657584634965285
Ni 1.2437504988644812 3.8901069337754763 10.003070828088736 -0.6748652146568506 1.9369675631379224 -0.4809988940895716
Ni 9.008100273264102 2.0066538991420284 8.167564473579331 1.6248690636989112 -0.9259509218579149 0.38790850459079
Ni 7.574363036253951 8.354902533033068 11.262804797172354 -0.12491293332601712 -0.05040956280080351 0.7746458716916143
Ni 2.9512529271528205 7.292064249894358 11.81187775527678 0.3874228232036231 -0.18230226987876344 -0.06684842508311713
Ni 9.046935125634558 8.225275824796523 8.690838928170992 -2.259550507048025 0.7858134582726597 -3.830154638755784
Ni 6.46435215866525 8.320880068708517 5.431388919378193 -0.06329567473485229 0.08959060387563926 -0.6116538721056886
Ni 5.737010067726932 8.466007143092925 1.7777390452916795 -0.07704053512477055 1.9367302503161357 2.237224589857315
Ni 0.2730377372712494 1.7374119795736551 2.4547674326833744 2.4491295130938595 0.12336692899513592 0.5765032923464846
P 4.406375446700305 6.775497294300016 9.093105139241654 -1.8828275867604092 -0.07050736199194309 -0.37645578266915813
P 8.121902745143752 0.5913576212077911 9.866994027657329 -0.5552605809176244 -0.7477390199984413 -1.1360252196436242
P 6.80755190227246 5.169269520644431 2.7761845919494617 -0.607647836270089 0.3979167807564115 -1.9925812958474844
P 0.8819204716128842 5.527382071393898 -0.036457569981112214 -1.3552590724414144 -0.29953917471676156 3.158274989089819
P 8.487038024960212 4.66366100682129 10.377150061657183 -0.4421749792438385 1.020593743445481 -1.3909079319932753
P 8.881532602390072 8.879928473041435 6.042704894109706 -0.21647325933351752 -0.6153233505374758 0.6284439470798338
P 6.756825974788573 2.71543658656997 13.2176397225534 0.06529830698717787 -1.162857252234804 1.2095826813158008
P 1.81918527102038 1.6182867227706197 4.023237545478779 -0.891878148543922 -0.5512712572525733 -0.1912993311710512
