# total energy = -340864.20948563126 ev
CRYSTAL
PRIMVEC
9.35969950914969 0.00000000000000 0.00000000000000

0.00000000000000 9.35969950914969 0.00000000000000

0.00000000000000 0.00000000000000 13.69886632456275

PRIMCOORD
 96 1
Ni 3.6584257954796238 1.7174580841239633 6.603072473230867 -0.1877021007380961 1.0979453820527671 -1.7761494312748636
Ni 9.635529980997285 8.264652214576943 10.764747790657966 -0.3019668103216477 -0.2528777661044806 0.37319793785349276
Ni 8.776122360711922 5.349433368441243 3.549650174256901 1.0049953747865918 -0.2334584810376044 -0.7745224587398726
Ni 4.586121784286026 3.186790530981918 2.42331608805309 -1.3313038471773977 -1.5223663797472944 -0.259102921078586
Ni 1.5806192754921622 2.3952032942359573 2.0999262981297004 -1.010780614009801 -1.0678663032791997 -0.2808302854533486
Ni 4.482931095834206 3.884397023714752 10.097886975248976 -1.5792774911120413 2.1663652438425918 0.4277256365877279
Ni 4.23567591063405 1.000467653451563 13.659687911569202 -0.8782443598105713 -1.1426278125618063 0.2338618871236101
Ni 3.698981373988625 3.9338817556734615 7.577665237047505 1.1312110860844324 0.8796363550620916 0.43254002725723567
Ni 6.529289025055398 8.905791639424985 3.5845000798697364 -0.15215942774679603 -0.05959148641038769 -0.016201806570843066
Ni 8.200276200502419 2.5478787146464867 0.014032997659484228 1.991222982047377 0.4783090059622343 0.8585018870763216
Ni 4.161519010443231 5.783470719513918 12.536791643040525 3.0645636781775867 1.3669467931919876 -0.6650744538186739
Ni 1.360516578926811 1.1023011854566243 5.824031913842698 -1.013227789998713 1.4189406697607758 -0.8632126622884295
Ni 1.8846784777638923 8.478081445304095 6.662648833333681 2.1325554943819984 -0.3323659914387953 2.000639904485903
Ni 4.056184950775496 7.232773409157642 0.8974538633228033 -1.3858287176981552 0.488871611969429 0.06191884899198369
Ni 0.18508525232908873 3.2628848889967292 4.618477329946715 1.3740463803512464 0.9295550942694056 -1.4080088533396202
Ni 2.5338953233950563 2.646670344270882 4.139057603264394 1.3611098747952366 -0.0914867924570876 0.9983423882464484
Ni 6.085826456452475 0.6601985812103497 7.338866540465599 -0.5533271113403374 -1.3373222854573354 -0.2414484412216164
Ni -0.04237791202751066 7.948902747463824 2.5044263091011287 0.4096836914843525 0.3162184351446554 0.9402519118616194
Ni 1.8711630714941028 4.889113980799614 2.6728541039936906 -0.3839433492954549 -1.2410344720671789 0.3339721595836506
Ni 5.9878397609965015 2.46884541094697 0.23169562053055978 -2.4819977245767904 2.478350614742506 -0.9796414694028355
Ni 1.771360594309363 5.895384648023525 7.065080350686256 0.03692618360238802 0.7857520089071048 0.7700554241074544
Ni 6.667700263225513 1.6261916530043539 2.203394033690652 -1.7503815782821401 -0.8072230342966871 -0.47526533403990406
Ni 1.0188594632300507 5.887428903335629 9.668084888260152 -0.4792099205099489 0.5766768418098713 -0.1539118916615285
Ni 9.370276093403218 8.200416595996911 13.639865939686821 0.11127477371729223 -0.16666250645897748 0.11514994040198234
P 1.3625663531463983 0.41157126404402194 3.589582396770356 -0.5144471464456882 0.45992021904240143 -0.4127751859254826
P 5.727022371028392 5.637496844040486 9.930828504412696 0.17882099619838235 1.5598355803373458 -0.10672263557023556
P 7.862128972167966 4.459672242246653 7.898273324240019 0.38819132593853145 0.0021985503132155686 1.7877607902615469
P 0.1240141481949137 5.963392225555581 11.703243000900713 -0.27549858882779005 0.3581127613855962 0.5562059755500292
P 3.9297541281353885 1.0285654717492831 2.236394462656042 0.0806598770449127 0.06117451462679142 0.16887365517768338
P 9.02384553089372 2.3127911389689935 6.4113848887807885 -0.3642214453864953 -0.5884715204519543 0.5852743536708953
P 6.94013304043795 3.2815762091634673 11.93828845792986 0.3435019534509568 0.3273168590506621 1.521317626767806
P 3.9581140180228274 6.08677178611539 6.9964494171586535 -0.7754375143549742 -0.33263827126357554 -0.4890847564214997
Ni 8.989317598948253 0.7245792751346892 12.214292896522181 0.41224605289489 0.3377640225259151 -0.2891976835814374
Ni 2.023389226322257 -0.041060066319209866 12.671177274398564 0.15455389612090153 1.5808044692795291 -1.0490311728505677
Ni 2.7651922207212576 2.171178883524455 8.887372686517562 -0.032198439109415514 1.9472476049076917 0.5538364468765882
Ni 4.611280656899041 7.230779793135852 5.021648263570282 -0.5319278197289549 -1.6284202713852796 -0.518859416580771
Ni 2.2334489651815943 8.033467633646334 9.426957498409601 0.32074074849504114 -0.15093018332538521 -1.3756903437125727
Ni 4.3147560128317295 8.36335024720501 2.952722226594439 -0.4691221972566437 0.5759348214375243 -0.5809919242454575
Ni 3.4377053587385062 4.913786149031723 0.8262143815075347 -0.19741161471637617 -1.3582513223005188 0.31506580959745095
Ni 1.6744221852122656 3.609512005198516 6.486208199585462 -0.8067538079697525 -1.6424919189869973 0.2336286880668815
Ni 6.293536910703975 3.934462057050696 4.011644948132804 -0.46182026427859174 -2.205729090352195 0.8449290334878932
Ni 5.41701039979019 2.3485358318667258 8.814946394788853 -0.35659298230696 -0.19426612710885896 -1.5765120125517624
Ni 6.7957128751035665 0.5982654487399921 13.056745420922692 -1.1196647760077298 -0.23619156369805125 -0.6540549627797188
Ni 8.588151512986036 6.153525163896648 0.8062538860705868 0.03702105730903947 0.39294066769805874 0.3937914457341282
Ni 8.250753060622209 0.0986830571086547 6.54101672869532 1.460802342991568 0.357224702353688 -0.25650842087853243
Ni 7.773193106256929 2.0442987953019727 4.112317877383396 -1.2112680394380237 -2.1809361996782313 2.863601884216107
Ni 5.669675491378116 8.005500851143474 10.577470496674872 -0.366052327947647 -0.8231875280457436 0.3424565429055779
Ni 8.036977521008641 6.674654520052696 7.684803846804447 0.6035088744010509 1.2250689498768579 0.6586047869339302
Ni 8.69119244624373 5.109020123672677 6.124803989603382 0.15045915722623765 -0.2731964230571746 -1.6483820592191871
Ni 6.289764951751949 6.539959082636811 0.540465559627487 -0.07010447012656958 -1.8389920776326973 1.140411778747094
Ni 6.8018809171615935 5.914581391970435 4.4934607579211265 -0.6180857437739613 1.4693705442765534 -0.3904024746572373
Ni 4.891584941502678 7.396511994534163 8.247977909681078 0.9043390000150942 1.0075893607660131 0.7688529191589211
Ni 2.984471263718921 9.107025181530574 4.799302047002945 0.36768446423443124 0.024762551656660577 -1.7566098185800392
Ni 1.9445805554139282 7.041835536648152 12.686520630006642 -0.4017132716843662 -0.387076752718114 -0.2833749062520733
Ni 6.780119615515291 2.91817651121967 6.807200034462924 0.2503621987714785 0.5776839429181471 -0.7997498658480936
Ni 7.479148782592314 7.980940999306959 12.138428787118336 0.31193626282953374 -0.6470777601309372 0.20598752931084527
P 5.050634317363157 3.155126667124094 5.59068524229691 -1.319891748685714 0.6549720752773495 0.4811454469697649
P 0.4944476604127734 7.879098107602265 8.130852500415918 -1.371739843705257 -0.734090061756439 0.3852970351098719
P 4.688741531060244 5.292479596175545 2.6153602770591786 0.2856282210626242 1.1348160298268715 0.4658188439150236
P 5.817165638192063 0.6261096191776627 9.842799593396077 0.46144179789325046 -1.7228265514820071 -0.9125251353703123
P 1.8885253143129803 6.569423417080922 1.151298277064464 -1.001143090920037 0.26987070111805134 0.8391008568418903
P 2.5692001104100464 0.47371779766600774 10.322411193920871 -0.08755531861316534 0.6779667364003099 0.7656727216587265
P 4.567889089401296 8.990038295819982 6.127598795913743 1.2645994038713124 0.9412962939657337 1.8011040443376722
P 3.85396864020846 3.1562030325818684 13.201392090988188 -0.11452927609884793 0.21899139776968088 -0.11046461911117104
Ni 3.573458442212901 6.477071260803906 10.23697117582269 0.7980223416340256 -1.7286313310892423 0.27119379080484907
Ni 0.5400780680626883 4.697268217425741 13.60831720013448 -0.34690737958808 -0.6693165169244795 0.33116374360057804
Ni 5.274078426697424 2.081194731254542 11.334771281725892 0.5778310100189726 -0.4657635651970559 1.299103094075137
Ni 2.8655469201843338 2.3888199790863753 11.362662250661728 -0.5652094646002201 0.06695075498893631 0.014639604290045757
Ni 6.75786224978845 7.683761176265351 5.745620094198801 0.13085321006985207 1.3035156213205354 1.9183442916097802
Ni 7.0229008642909605 8.726665707852112 1.3007623845309735 0.40837988507126444 -0.48470873884099114 -0.14282940859512175
Ni 0.5777452432650017 3.149679321937794 8.978085959388872 -0.43756396283438836 1.344170932948053 0.1438568214183716
Ni 9.08007860628769 3.353074954658565 11.523075334758708 0.47159482716685236 0.2032343920457403 -0.3770090840694668
Ni 0.9410429204828008 0.7758657492727162 8.32106125232401 0.06174427108733238 -0.8915585604209743 0.6117811417121721
Ni 6.62298897807954 4.247225779980947 1.7921812461425668 1.3656219037329773 0.8169135221115738 -0.9802863020756858
Ni 8.126821277784062 1.769965999064073 8.383692618386977 -1.8805742719498582 0.19438619762649104 -1.0265833853700128
Ni 7.6932987101911925 8.726712506350275 9.000347068995566 0.03393187686075447 0.9130509259667953 0.3188499592302315
Ni 1.9132255616439875 9.055921221535387 1.41491515319275 1.5621081784216064 -0.2755075876888546 1.0800782719643591
Ni 0.26819938506851376 7.453578083195454 5.642193541316234 -0.645769839952791 -2.2620352211430914 -0.2740402591147087
Ni 5.10338558449372 1.3131471390851184 4.517625630433136 -0.0865980969062186 -0.3899723290983542 -0.8292977547085395
Ni 7.114906711681563 3.649552800227712 9.80715598525438 0.36764204103227005 0.7555965683696471 -0.05516250410475661
Ni 2.2850021907591564 4.795835214258949 12.28774594730061 -0.5303090531786093 -2.107128055447829 -2.5268249081938094
Ni 3.5315737863560397 4.843653919683017 5.273146200613995 0.014490223196375046 -0.15186015133882233 -1.201837490152743
Ni 1.6315454011943256 2.552558564462896 13.451848293462769 0.03466207015855966 -0.5248387740926574 -0.34126946457601226
Ni 3.7020232763692906 0.29206849107212657 8.242881553231008 1.1344882141738075 -2.7901986887336077 1.3545237369372864
Ni 7.335365076832962 5.561636478516496 12.429543524797877 0.6087487826437515 -1.4784743063500345 -0.9428430696275631
Ni 7.8832912530377675 6.632863461192164 10.086133064450085 -0.6369270448501805 -1.3026758990280598 0.6552528397425618
Ni 2.0961328118685194 6.921778669457994 3.74072189047114 0.2432294443814392 1.1677893994290984 0.55218065644072
Ni 6.0635784504252666 5.517308941055469 7.161739840734295 -0.3476442577541045 -0.9850431000343808 -0.6907682590403523
P 8.418394640745612 2.7747016755482012 2.324327904736405 1.521594020357644 1.828470095055451 -0.6652711432105124
P -0.4223498941411753 1.4194078090165028 10.216546439283954 0.9573744304745189 -0.3141291567157945 0.5878158891458264
P 0.3237136355306847 0.8660586228444416 0.6119708569123277 0.12686157241195573 0.9921619704673492 -0.7459315344760572
P 2.24024410711502 4.185863589188191 9.979994070613925 1.1542674536832638 -0.6873543482627968 0.25147960020537335
P 8.343414086987107 8.55810687716469 4.519214907430788 -0.16634291833602963 1.273452226276252 -0.47570499268048394
P 5.431667689415183 8.07808532179598 13.23877660326159 0.3227215263704958 2.2851391541504067 -2.197249592126274
P 1.2456356256336014 5.25563045872114 5.017415807396322 0.26358101145459767 0.23486050359145358 -1.3968806046369426
P 7.454008629378564 6.763515508366671 2.4274942579691796 -1.1534593559596715 0.18273010144480142 1.3589360070723693
