# total energy = -340858.8483564702 ev
CRYSTAL
PRIMVEC
9.36110748097897 0.00000000000000 0.00000000000000
0.00000000000000 9.36110748097897 0.00000000000000
0.00000000000000 0.00000000000000 13.70092703366254
PRIMCOORD
 96 1
Ni 5.3550588434692115 8.946737832028179 10.337185215990667 0.23202329125297458 1.696433149090143 0.08297464122101839
Ni 1.4704801703467114 3.3448172294223695 11.467169151990747 0.39819934499383675 1.8528652360703637 0.24376757627309628
Ni 1.6876484973047299 6.313701753025218 9.708668306176174 -0.9131306301647951 0.2540828421561753 0.2517444238309858
Ni 7.983124174525505 3.6663525410458884 11.227430259356257 -0.030733167417798687 0.3570979469678366 0.4681289801054389
Ni 0.6445674642953841 5.296420867691591 7.548060162576595 0.9974347888305145 -0.3397617696822342 0.34435041749418116
Ni 8.210112302982681 1.27954166588692 8.418644072397209 -1.7722274705126384 1.7344008865831677 -1.1181529673488935
Ni 1.4480415962823823 2.204737339259427 7.26238163614123 -1.1630320872497713 -1.0157762674521795 -0.06961853162908656
Ni 5.742196794660031 4.967256253664055 11.500598602070482 -0.040976699522677816 2.4958590559399148 0.5389633864194976
Ni 2.832979968631664 6.563147177761211 7.748942971261892 0.5328068798997985 0.2130727182924008 -0.5173008138443994
Ni 8.62212271612132 5.347860151998428 9.589032419484672 1.0508036913699579 -0.3465029450608097 1.3435027032364344
Ni 3.5780492164114217 3.3687348584312806 3.1457326894386815 -0.09744480981273541 0.30413013652155363 0.3538768689273777
Ni 0.7028824818730804 1.5988490339863213 12.941757912306935 2.225732272946999 0.5182528933450236 0.5345058648687763
Ni 0.5895700231250297 6.531085385449853 13.421838552882441 0.07155585786111547 1.0491147337033093 0.22607658675123646
Ni 0.2979865102400286 0.3627756695878083 11.018107476379596 2.508719199732034 -0.443675475048765 -0.47162722306668453
Ni 7.683905742572142 4.279523787754976 0.4402378959227756 -0.4585269382393007 -0.125136619301049 -1.2990002499486855
Ni 1.8254627181537297 2.3559566656821103 4.6014017159036325 1.3191134757587928 1.053958949169488 -0.38149694463749134
Ni 0.1914196653721429 7.549161964899237 5.83097753576395 0.23456251273506057 1.5684562321268214 0.7753110160794389
Ni 5.6419299749674865 8.580222400096314 1.6627442075922805 -1.0904637289637413 0.579041485387306 -0.7761587087917148
Ni 7.9667141535264365 0.2574033020042815 6.113737268960576 0.33940721455629286 -0.1154535876853302 -0.41022079493474506
Ni 5.40440123975335 0.03942711149108935 6.344282618170546 1.0940691869268127 0.14615281654139992 0.20449166149160913
Ni 4.44742460728681 3.251337212481865 0.8662216338448194 0.16479254312977426 0.8749494911093834 1.8431408096937483
Ni 1.2809458319735487 3.769755331665237 0.5143797375182279 -0.43074436880939365 -0.8081884835337501 -0.29103525101080846
Ni 3.4817047006541944 6.102309229236866 3.7513139503941777 -0.848012043288591 -0.4420605651531613 -2.2119069370281323
Ni 6.454577055943068 9.010365277966955 4.082396655296049 -1.7607186985420902 0.6971746767873283 0.4336296607769887
P 8.270725472388827 5.543844293262839 2.047315343176742 -0.4046996080061998 1.0929129618351823 0.9546326060633237
P 9.235808823728838 4.813003928494253 12.637597751839362 0.1756603390822136 -1.8030004900294367 -0.86800828390486
P 9.103058961898945 3.3286225138899166 7.683438623320655 -0.6600502611312052 -0.19692336222604795 0.8327137223686238
P 1.2724646688103105 2.1293242593002133 2.350969067742404 0.41345447138069435 -0.6715904005603208 0.3816224144717621
P 5.3036476424841075 1.9707939081198158 2.8527384576919808 -0.3995527736979376 -0.0637841843354966 -1.116486378279748
P 1.6391017951363482 7.697469986968976 3.9540465138709275 -0.381662266570762 0.7479753043789635 -0.28677107641781574
P 7.97820023211506 1.4439039868804493 11.57776220908436 -0.8736410567106051 0.40487032925610916 0.7869907664102124
P 2.391762900891146 -0.01805195920970053 12.984751605658062 -2.02725622152185 2.3031283916389755 1.317154809370525
Ni 3.419247393120943 8.54270308226159 4.8351944332166115 -0.28672093990617076 0.8907329791958853 2.1086655751382777
Ni 0.2984143128410882 9.126798729870218 8.181070403868299 0.9345977988996356 -1.7126274994618182 0.5075730450336743
Ni 5.818892346311699 2.6841851689852265 7.176709718753107 1.4067572403207065 -0.8659004935332377 1.6793450832596044
Ni 6.093191510781023 1.542055196335806 0.6031080564215806 -2.1767823254108576 -0.014366038913684936 3.4514666243219976
Ni 5.597445993343085 4.707588499817404 5.9121692272250055 0.022820597438941343 0.26033370816189355 -1.074112027078595
Ni 4.429460642485204 4.633691919231749 7.817228504165377 -0.7072423454359755 -0.4844793964390043 1.4358819256008044
Ni 8.726676922931704 1.9433096972508672 4.056049818957269 -0.18583368007078963 -0.0925309174508858 -0.14865244303480205
Ni 6.932021608718611 3.5529333656752535 2.5330547730813633 0.3524162252214511 -1.8054808332491294 -0.5259960276255521
Ni 6.126685552500744 2.789909514201135 12.372430347486747 -0.2545595246822777 -0.19395630917792403 0.5277942571765555
Ni 2.7551330007889603 5.23702464222719 13.157082101137847 0.25675396123043526 -0.20864784975182776 3.0278310986432437
Ni 4.456664020136827 6.392110387302574 1.123517283115793 0.23748277170564902 -0.8176977085757658 0.3070395968588648
Ni 7.571460122354902 3.9125777448898797 4.848949644201228 -0.21826197580282408 0.004650097177501669 0.2539249764220724
Ni 0.5563174979722096 4.1775345243295 5.267718776770173 -0.2228755633154355 -1.025512263793021 0.6009467701008295
Ni 8.167369487305699 1.91308268195937 0.4637061917839658 1.5687243981865433 0.6348601350188227 0.7136305083505065
Ni 7.281649603181952 4.462364934448541 7.873731211380598 0.006296631641989156 0.8148892925926934 -1.2570658144984286
Ni 6.032475369195191 1.9708407136560369 9.93735079504455 0.5524264539029389 1.952651292421766 2.1961532737383016
Ni 6.364523204253938 9.421767219134718 12.728435128204831 -0.7124907383191085 -1.5992827305893746 -1.7463446892086052
Ni 8.647659816683475 9.172827294189911 13.211268870420854 0.017859910999556337 -1.9307899735723004 0.5063283739932957
Ni 7.278176632394357 6.280366850128649 4.025030853992914 1.054118614675804 0.7955574250333007 0.3941871385106502
Ni 7.82388237919455 8.90126157303589 10.0886225436678 -2.9415626171623015 1.038543385945366 -1.5626501669680055
Ni 5.6169170964110045 5.065341935368703 3.442659522338668 -2.6738688690909114 -1.49536465434747 -0.1075991246379179
Ni 3.6816953958191196 1.1611423814623751 1.1067702622559328 -0.46322434371496995 -1.2037753306054042 -0.051974593295078225
Ni 3.590031433683988 1.4659587555477664 9.167290199254971 1.7976194282231814 -1.1188227397224086 -0.4610641028388575
Ni 0.2205121144656439 3.9558447825725365 2.614602186617696 -0.10575024435463724 -0.08418074571397761 1.411203191907202
P 7.684074242502536 -0.30640120954183314 1.550232123513608 1.7345289275205997 0.1751983118441305 -0.16214790641807558
P 4.603530431690961 1.206440779417022 11.897707068587092 0.7552037038066026 -0.39213822640142143 -0.8892911045430363
P 6.029573425949492 4.214145814761537 9.614638792240436 -0.15213165983265411 -0.6341739075850755 -1.225684986194302
P 5.137572238864891 6.645712143654988 7.776536707085597 1.2694731870238458 -0.6545229035550727 -0.4596718504770213
P 3.5561348643527677 3.94792528584395 5.395055110280748 -0.7272691821798636 0.34344770317425366 -0.3786520189895285
P 2.166881021563913 2.8908128891862845 9.29209154492382 -0.39678600958607796 0.861667943509129 0.44855928550362745
P 6.635780008868901 1.886169498632317 5.454010427593947 1.0870590741575665 -0.31126751889728327 -1.5866825253268608
P 2.3328908974324203 8.450421287048343 8.904999463158497 -0.8201261155116005 0.41273173428205695 1.4880015291141793
Ni 1.0207632172284666 0.37865772413830506 4.94834962536296 -0.5805244976907358 -1.5527653037541258 -0.11762874095977806
Ni 3.2206140585064253 9.113768068586303 2.8260630464889305 -0.5554084193493983 -0.13992097669907516 -1.4384365737018583
Ni 7.558700933181068 6.916060920867263 0.31931204865302326 -0.0007278793049600367 0.2510828789875869 0.6814156141808587
Ni 2.0485472648900775 5.967865006995776 5.618558098510911 1.0386914814874562 -0.2878550535106139 -0.11588064792041979
Ni 3.1557977519476372 2.4858981953387445 12.895682542451022 -0.9043495415380554 -0.7058223251599973 -0.246988140092923
Ni 3.643024661793361 2.3737240472315873 7.002844937795997 -0.8010140772724978 0.22753928733969198 -0.9103620662807225
Ni 6.711024588897718 6.746587435318405 10.06197427967576 -0.1142369416694097 -0.04480738612267767 -0.2835093749474085
Ni 6.854184001983152 7.348178992366427 6.140850779982656 0.3156954727616499 -0.2661598279253674 0.8263615548983511
Ni 4.593954018980153 6.882183073750531 5.552615650750647 1.0954552686410617 -0.21098343986353987 1.4084685665848582
Ni 0.07070818745828251 2.5097128521679695 9.843992472498218 0.5811119947630895 0.12349934080794214 -1.0710709262594262
Ni 2.1237450393826744 8.93604744755531 6.824609455866575 0.9543595549075952 0.27533146712230644 -0.6132299583435569
Ni 4.272306374069704 7.080367075217328 10.752610561051986 -0.22935885704693404 -0.7847793605811905 -0.32747369634350054
Ni 4.143993677073559 3.3685569973936413 10.91976155589356 -1.1145608791222612 0.04488606187941302 -1.3300254946856063
Ni 9.440489433623103 7.455803642352906 1.875739352940838 -0.16632234951073935 -2.2991457528421435 -0.2513675001075413
Ni 1.9824110422098584 7.6201472411319475 11.750613182126925 -0.7484620142073949 -1.4393392880217855 0.05149251145233712
Ni 0.13842830948421883 6.135681576562412 3.9606086500491062 1.2291310357613736 -0.9077955911051269 -0.6896125481693544
Ni 4.29042947769446 8.51195184496442 8.077326868945262 0.17694331955969528 0.8284755159175603 1.0299006226687037
Ni 8.51358067762491 7.0078465773965695 7.9946823336399095 -1.0465958239361977 1.249085367396113 0.398713565626094
Ni 2.676902227549245 0.31017841631486476 10.925228442524169 1.0448752417006648 0.6383702050546103 -0.9251921893150196
Ni 2.4915054985780154 7.879084828613551 0.7476051717322094 -1.5730335670848588 -1.3387500190427974 1.975395528096817
Ni 4.133574764710772 8.158738546426553 13.029609095461508 3.2348792080081186 -0.12828005002603715 -1.147623980224817
Ni 8.574268735889008 8.539099055972578 3.665340605352791 0.8511441611596696 1.0483176917233108 0.742699914912637
Ni 4.4263246715584 1.5466795833144373 4.904356165758154 0.16704688638158974 0.6978853297011078 -1.60402821569416
Ni 0.7019604128095275 0.1257646036042754 1.6381647483012047 0.9668409752040574 2.8790423871408932 -0.44690478061934
P 6.399936272958718 7.0683567746230285 12.258671363923149 -1.269629510096052 0.9104355998311352 -1.51995854163675
P 6.154778235340564 0.6812630046926182 8.441661162889229 -0.8186338472367901 -2.678830069750928 -2.219227381948946
P 3.028552221177331 5.492517342242932 11.280027512629202 0.09255714270313092 -0.5551564512395923 -3.7832199218774587
P 5.39049063438848 4.688098674534995 13.56430149958891 1.3707592249595424 1.5916223858306395 0.008100774730263468
P 8.486255605579112 5.712231890371371 6.056658853649838 -1.200925262751119 -0.1781720497604738 -0.41426256910428655
P 5.530897881944121 7.192878223185276 3.27012308249951 -1.7195206270372254 0.062470093509763375 0.05306679791799248
P 9.173959988166459 7.575007982000452 10.734072760376312 1.4893984094617059 -2.626476752960193 0.2893246960776049
P 2.457515318174353 5.4689554353093 1.6712937068384013 -0.17970031347954213 0.20517506071187894 0.47032495931549323
