# total energy = -340862.7253763471 ev
CRYSTAL
PRIMVEC
9.28966370363090 0.00000000000000 0.00000000000000
0.00000000000000 9.28966370363090 0.00000000000000
0.00000000000000 0.00000000000000 13.59636184386452
PRIMCOORD
 96 1
Ni 6.044802656823383 4.9920608237233575 9.159310999417302 0.08469110969149285 -0.29957517016101953 0.5341610799348477
Ni 2.439735050697352 7.067130131432979 0.9305530303827616 -0.913947983859768 -0.17864359008025363 -1.2083981740893963
Ni 5.822993360037801 7.852403971357544 8.419410663211371 -1.2631068784861859 0.02200581484712984 -1.4290736444297194
Ni 7.967642247800361 3.0421232841463226 13.079618693568225 -1.5626661078076056 1.1197712196786072 -2.764574303297284
Ni 1.8902421615503076 3.899271251022768 0.7463668710089819 0.3524720181600511 0.06157894915406169 0.7439543561450285
Ni 1.6013336248818986 5.971878797889396 9.147074654578086 -1.6757961895660818 0.6971769907801735 0.0570473798322953
Ni 3.415289069290053 7.308865756551478 3.0153876324250466 0.9556697890785864 -0.8233016850261048 -0.7664026578462155
Ni 0.3891161374736224 8.33170416265679 10.772370037642702 -1.6353169985051124 3.460406350013789 -0.09082730449621777
Ni 6.996407922762349 3.4459449590330027 7.692141482545892 0.3722954806438814 -0.8979071283468214 0.696615976070381
Ni 1.4044949437414829 1.0595325771612674 8.411783849429867 0.19429543768489765 -1.0130866364351585 -0.21166889596633867
Ni 7.630288115674532 6.407090245940145 3.2353900896485066 0.22912591510052152 0.2708775451160109 0.8635607896564675
Ni 5.376847977978732 3.096514264281163 11.506492203115263 0.16582998325535311 1.9672446168549087 -0.7294769884644599
Ni 5.600580235120917 5.526495168242121 11.503881807655334 -0.5386779939685948 0.46845371043470935 0.5129116836377683
Ni 2.3661423359871545 1.3452733385562383 -0.05471704732574267 -1.2094872933885168 1.3312776219251523 0.27739272052670944
Ni 0.0140645506275232 5.104540070089309 1.8108043905291213 0.06676229312721405 1.4357893658869985 -0.4868466111196002
Ni 3.9519715123899672 8.956972837450273 10.380780991729814 -2.0535359811539857 -1.0216746352144854 1.3532181307519857
Ni 7.866189832078312 7.764913919963876 1.2199046840029097 -1.0921035785600093 1.1219273467896613 0.04120475637308387
Ni 8.446412928276775 0.48475508174078014 8.95305445736131 -0.4890729293469577 0.07342813518316386 1.1828617203811886
Ni 2.6645634881394367 0.0403524405652809 6.142509480198656 0.33370759306835435 -0.0020121453340223414 0.09395530860223819
Ni 0.7387902214106938 4.773855916398461 12.171340418465961 0.7475014500663385 -1.227774778843795 1.4264503478742596
Ni 5.906609621727587 8.050171618853806 12.308881319179953 0.6702691106457359 0.7746947226516787 -0.3832087851222755
Ni 8.225783418763118 8.571674751699181 4.3362607406786084 -3.6090603357104873 -1.2055969571951752 1.0846890312634931
Ni 6.173241545182786 2.121601232473997 5.832567287301159 0.8775812723052757 0.7931729839615242 0.19696578542820917
Ni 4.004383794186853 1.5915794781455053 5.010748839903931 1.7848981240017712 2.8404133619147856 2.2287741450971166
P 2.599442946594564 4.694150603066791 7.881334770577687 1.3455624139789406 -1.2084470250494608 -1.973179751392421
P 2.343568453540073 5.142358290435839 10.821806840201809 1.7828057602491167 -0.8159629852728463 1.7288434471000484
P 0.8942295169027891 2.717718943021001 12.766779983573198 -0.9182116442321284 -0.7077413965595811 -0.0043857877725214794
P 6.030803133840768 4.989097421048204 6.2852172917838685 0.5280480250585744 -1.915820496746662 0.6061180298891239
P 3.7502464682177963 8.205021020709939 7.578041189888986 0.21413252701548283 -0.2770556489022648 0.6680528197207075
P 7.738577723775614 9.606626879084736 11.487416807964303 1.0487684061074842 -3.0092520500894753 -0.289288700633347
P 1.9467233159858037 5.661037365559439 2.7718498125762037 0.6779145430061357 -0.1061492795652688 -0.29523617646603345
P 6.504873244556598 0.9450374738031276 7.844516118030047 -0.10761995057352433 -0.3726929731926162 -0.45773658112752136
Ni 8.914101040127933 6.299227962362752 11.147534958384215 -1.279324883006945 -0.14476082128987974 -0.6877163595879059
Ni 3.9752142506132584 9.184448829006522 13.520303611387625 1.451114940500475 -1.6723719943758812 -0.08471424961994443
Ni 5.301741048108505 8.275845415679713 1.9629885879103284 0.9213828428712584 3.084334947267243 0.8846893441049667
Ni 4.154997109460323 3.7255545424793834 1.7140256045433393 0.18553337522155142 -0.08130136728365353 -0.25679072800564157
Ni 2.946449039157643 3.0577670775787857 11.601217973454624 -1.252367637691811 -0.42291176013885223 0.6526750517130566
Ni 5.296371622571709 9.186715506914787 5.797012957963828 0.06532941733542942 -1.5369885005358432 2.0151108444085684
Ni 4.275168197252688 6.042313026989713 7.104479223769807 -0.06147379103476509 0.8497879042420914 0.3669445007446132
Ni 5.885419899150718 0.31460374607113656 10.067371896392297 3.223461195979165 2.0767651268852556 -0.725326456631196
Ni 8.238751789090742 3.9639458887168346 5.759092551318155 -0.6024341532796335 -0.2658178712049164 0.4348925866498123
Ni 4.498603185161002 3.5865440169904423 7.223624732705316 -0.12163374835411311 0.2572005618495506 0.17037080854850015
Ni 7.986909010020628 3.7130599449932418 3.413353103404467 0.34308363496661554 -0.25804748323087817 0.22587089849833358
Ni 4.135368050361277 6.224994260867021 9.633348596310677 -1.1544674855092119 0.7030830718519634 0.29753808512633273
Ni 2.218232312809199 8.128669275922876 9.184042870709016 0.2702193427067217 1.1060461567830306 0.0028953192699240457
Ni 2.066076913385023 2.438536684098309 6.6132297382353 -0.33738169948583185 1.3912357476463393 -0.37216718259613324
Ni 9.226066521748466 2.7218063949867273 1.231467528234137 -0.44872692142974335 0.46367402965787885 1.2503014991914014
Ni 0.6273449145987998 5.326117125285929 7.039203544843508 0.20341951147335288 -0.2880440295929685 -1.065937718797919
Ni 0.3837680781630114 7.901862140142837 2.627537676094444 2.1111214928779383 -0.4566346063125942 -0.5109445326090685
Ni 7.763018828597948 2.128726404423343 10.667800939796788 -1.2902032204823457 3.0185897825506336 -0.7219511124010599
Ni 2.952097154601192 2.901561384843117 9.234743996478432 0.3136781852213049 0.5812878582193215 -0.576424359479433
Ni 7.783270295155412 8.585795040308055 7.099217558330289 -0.3257238035319293 -2.0467747511707524 -0.5319599585184709
Ni 8.3714732123506 0.7643916052114808 2.381552029897944 -0.18536213975100982 -0.7483997935108918 -0.673488388913982
Ni 5.183232810093107 6.558939086466891 0.7963824196077831 0.9857403832117216 -1.5400745956603348 2.1881190905799155
Ni 2.0359319551377886 7.38546832225462 11.861574729176077 1.630376623780702 -1.2817607461419473 1.1675096634051507
Ni 3.2032246295773055 9.403369040425419 3.8233784156154935 -0.811295661704164 -2.6967092640241943 -1.9147159508285734
P 5.679821065274665 7.919150204025149 4.012489954607974 -0.16694815602019633 -1.2201388595650922 0.04276901553641021
P 5.242259332343623 2.8133095810376543 9.445841382214743 -0.45406967379889535 -0.04208407365424365 -1.8340689292994672
P 7.408209418645754 4.035355532490791 1.4108397839519178 0.8310810718612074 0.6917180245481312 -1.3070825127361878
P 4.557834080009806 3.3792916230009826 4.220310876007212 0.8226640514421057 2.523147716452539 -1.2522146570537145
P 1.9861300688008323 0.662244322655259 10.764022345969058 0.4262549655794723 0.1733579162012821 -0.6299249025007344
P 8.208123768338467 1.768073796092872 4.209637052578531 -0.7813199412776802 -0.5322126979592253 1.851400221489063
P 2.252817730237382 9.150978171205354 1.7233933012757001 0.44216366638992877 -0.6040536911609273 -0.34783014851266547
P -0.04108632398640001 7.148349659924681 13.372497632441524 1.3412912974074127 -0.42689594159758093 -1.1188427943270667
Ni 2.48296914489847 3.4271148109999845 3.2239693772697238 0.9337616761515853 2.9105692541045807 1.4907551805999164
Ni 1.153683317326358 8.00965939607532 7.087212526113679 -1.8584275606494898 -1.208323097877087 -0.09070286310321153
Ni 6.402649786759197 2.0860682693628503 1.6540515366098583 -0.3183588785264259 0.28496950443270275 -0.09657706249580142
Ni 5.753655311237383 4.547569001777696 0.09265974916395653 -0.7404877377526666 -3.5161270406148604 -0.31170666331723096
Ni 5.953067229183494 4.922183974436548 2.603200615503965 -0.5403399550520501 -0.3799560825129327 0.11219317176650356
Ni 7.7289536323290395 6.109737405097087 7.764487524406541 -0.3488465055923218 -0.01964091415937908 -0.3004593725381858
Ni 2.8122134007377553 4.784678374444079 5.506825234623418 0.06959307770778982 -1.3296123184075874 0.9998768226131038
Ni 4.598624992695046 5.688209631467963 4.282568343243365 0.6132320152260857 0.32596908677351605 1.2149452311792948
Ni 6.433361414483497 6.948055223940513 5.795191254940012 0.41652308300368907 0.7355941571057912 -0.5132952922294322
Ni 8.886362104742345 4.427574417592943 9.155803222457624 -0.839195987658858 -0.18387912744758012 0.41516142676947204
Ni 0.6142121172261913 2.5010932785010445 9.982598142623125 1.1546839723953919 -0.30072548171537883 1.0865132289564257
Ni 0.9257205473996457 9.116244119160235 4.658698460028603 1.3138810237152598 1.043111464932023 0.2907627140757122
Ni 6.188931786933041 0.7425766882771262 3.837532147013178 -0.10384171447801473 0.6228975633403079 -1.3634035559254196
Ni 3.815942968903294 1.2918206144408033 7.751938117905405 2.000089945519704 -1.2532101881977644 0.848267610942823
Ni 6.840722451185955 7.079383197666601 10.267332833454715 0.6107455013588062 0.49165226003835977 -0.040821919112368404
Ni 1.430422394733172 1.7601682924046143 2.496387134942324 -0.5289103730588697 -3.413764996006166 -0.9098293337057041
Ni 6.151234332212772 1.3376279454476179 12.518577823651647 -0.5524007428713261 -0.8298477136747386 0.16110429564490963
Ni 8.740124221004914 1.1977349019206216 6.420283426125883 0.18793735667735376 0.5179050230873016 -1.6855697240130776
Ni 0.6828998895775166 4.919945165518956 4.43442647343367 0.8089266472513553 -2.4194178449620396 -1.6996601406678726
Ni 3.4076901244992244 5.008540686876082 12.9468229529999 0.39728994580568994 0.5129836745262842 -0.5918833743469806
Ni 4.025610675417957 1.3026616518135374 1.997332474085991 0.26637682903217996 0.5325058037196119 -0.6336460601060635
Ni 8.815221861211583 0.7366080794408094 13.542030276518174 0.18799674916037942 -0.9770539111813173 -0.7694422160034877
Ni 2.1883753341322776 7.032015203181963 4.919748224651517 -0.4315658362694245 -0.009813386545996004 0.7525454402481492
Ni 7.278126259836502 6.038950168781547 13.298533331188986 2.1480078243813265 0.20740497848366213 -1.1648531996189098
P 9.335090013270667 6.596562223878694 5.148398429681556 -2.0344727938749476 3.6723416122676364 1.5128242445848141
P 7.526717656661153 4.461370213618656 11.17971713984982 0.41394683763608064 0.3366880158529169 -0.27915084086839664
P 4.125586034634209 7.019149019153483 12.850315425190026 -2.6346670020804694 1.1775081693787592 -2.955353243188491
P 4.438415454965677 2.6431415239736054 13.430485570306203 -1.1927884925765972 -0.6240787281326027 0.46116463297246385
P 0.05901909051967001 2.8085625629592763 7.573935158596143 0.03254116716081493 1.9214244731970003 1.4762760131471349
P 1.9564681730586384 1.7454070170102058 4.55468581302984 -1.395995373818512 0.5343983927566345 1.0280712827694487
P 6.624524111189688 9.492271120679975 0.5379086786896323 0.5656820333612644 -1.5044522184710347 2.214891216467437
P 9.035071038986327 7.411581566517478 8.9400563601103 -0.25982771505975255 0.132208695656482 -0.8044560130745114
