# total energy = -340867.9624421423 ev
CRYSTAL
PRIMVEC
9.24346551866669 0.00000000000000 0.00000000000000

0.00000000000000 9.24346551866669 0.00000000000000

0.00000000000000 0.00000000000000 13.52874613038191

PRIMCOORD
 96 1
Ni 2.781728456357857 7.929867228339157 8.44655105857351 -0.09220593001129927 -0.6788946475312179 0.07852406164883251
Ni 8.517575997474829 0.6920785848678034 10.577680056384626 -1.2346342249677897 0.31524115883305065 -0.44176180296581985
Ni 1.547882973736684 0.3870599428746038 10.469517646827667 1.6221408661344712 -0.5663824018623987 -1.3310264251462949
Ni 1.300546328441198 5.873621391858028 4.24510397266314 -0.23466201442740234 0.40959241732212687 -1.312301852153598
Ni 7.601141870814552 7.424101779352394 7.881143998239111 -1.288814567664935 -0.1370030317213318 -1.1383577244315426
Ni 8.486407032382655 4.369154974775538 3.818799973384226 -0.67493566288347 1.0022355526532676 0.4224808432490208
Ni 4.454841898383025 0.381683943438777 8.856580088446199 -1.1595173892282933 -0.3004367468303665 -0.34142398787600553
Ni 7.44659113049986 3.628392906708606 6.735718731923455 0.7881842724976813 0.23798182282925467 0.47955059167881925
Ni 8.35639769251865 6.211562484316469 5.783552141337671 -0.08160630011858203 -0.22091329738274212 -0.19316595206614473
Ni 5.703929855333081 4.012921064429371 0.6582927947407562 1.633893635795025 -1.0878283482234232 0.23333969607155297
Ni 4.380395028616606 2.11938794814917 4.351615499312192 0.5550471793552376 0.6641084903609789 0.0933446716014328
Ni 2.085649299695305 5.473638160105795 0.5710649854627865 -0.23921003880940092 -0.546508288646291 0.11071633011066093
Ni 6.291111746944953 8.296564741438686 9.977707057449342 3.114964499227642 1.6806285779577184 -0.41387767496104205
Ni 0.5237809629145942 0.04690319177660344 4.677739745692984 -0.42896105165672577 0.07434524768079454 -0.07278330251031336
Ni 0.08680260987279767 6.897871298125395 12.831974532329541 -0.03260955850490513 -1.2829951327696807 0.37115313950932205
Ni 3.727205551084446 4.329620673559871 4.6532390164897475 -0.8303637340792086 1.0254315311537565 0.9571492018375902
Ni 0.6862348660862874 9.18820789408437 12.615217119038185 -0.5219131158054303 1.298175697164861 -1.0039947014362194
Ni 9.092759871088585 6.063722499831231 1.5776820572669772 -0.11656481847163797 -0.8081766564592082 -0.18476744358980435
Ni 7.534200694895952 8.609003113052138 0.4129971065900958 -0.1500817192821609 0.538324210173602 0.396240421495253
Ni 8.192104339746322 2.633491002863437 8.701567174865016 0.5297917472225586 -0.37523913665323766 0.5813153690231472
Ni 8.0944748589327 1.1403201004139931 2.1911153904155545 0.8145079979938745 -1.9187651811972826 -0.5981861766365569
Ni 5.07052139360675 2.4713606209782877 12.032412008259989 -1.6681034489075144 2.1845154323890568 -0.9023235122469622
Ni 4.4451455032520375 7.541234972011949 10.493436037715124 -3.0434245822061263 -2.495248933159741 0.23353304302928168
Ni 3.542243809834627 2.8619524919554173 2.3501187079796235 1.4059031198505272 1.8616200994448584 -0.5004541746007058
P 5.949510242215901 2.5020027085466605 8.182496681882501 1.030398645351045 0.39515670151277105 -3.6916981624173775
P -0.06351092593470194 2.4744756687944385 3.340287957575922 0.8852202769077724 0.06565466188533209 0.8339118564417832
P 6.424596629772971 5.820508440072848 4.816531301966855 -0.0441232155714595 1.0768422815255647 -0.5034669932851006
P 7.85687158262952 5.3508109928030665 8.357842446149702 0.47291560286080486 -2.2681346491726098 -2.2915615127369824
P 7.708782024580377 5.238364237065732 13.315302393574685 0.22332370659644762 -0.1715314045155046 0.8326203913238693
P 2.7299835374414907 0.44725893518162907 -0.2537590050066491 0.4500353558285217 -1.2423192523168733 0.4789366122439041
P 8.891363248482335 1.6887348984325736 0.05778737220247363 0.7872815581777538 -1.9596176964372702 0.003732727569554861
P 1.7257549770785272 5.505990288760186 11.942242928314068 0.7203346598435594 0.4770342530148688 1.7607534084347674
Ni 4.991046078700906 0.23060135131583587 5.496647918351331 1.999892484796917 0.43966069746241704 2.6189668177363927
Ni 3.7028675068710144 6.91088609730979 1.5031251902631333 0.0797813310947013 -0.02594577333148435 2.018238591404273
Ni 7.5031888687143855 2.398540601109918 12.071240108724455 -0.37036972437607824 -0.4045437991546259 1.1544230054245215
Ni 0.17286112078654434 7.890859804647291 9.156173740637323 1.0579292466711456 0.26729214175759775 0.37510878172296047
Ni 2.6693464048778317 7.628530258586827 5.081261375973474 0.8829721043035439 1.3181945634889491 0.15352468352543883
Ni 1.6221727045924963 2.3868938347943365 11.905594436974374 2.3983671949393277 -2.329402751954472 -2.3140458098824275
Ni 5.14702955614172 4.46679369905449 7.003209829024093 -0.9678105382061785 -0.6793906133310299 -0.3607627974139335
Ni 7.444622272384607 6.193112527518137 10.13859142020803 0.23157180553785278 2.2470649729865046 1.2686188094433506
Ni 1.4499761889631664 3.6481461921184444 9.41754936107575 0.7883339107016681 -1.0396931832790934 0.6227335269586178
Ni 8.979980350599376 9.247347585264597 7.034907520333133 0.952611976088869 0.48088859376395243 -0.6420211715436362
Ni -0.010890650851601074 5.069088656480627 10.919916587181836 -0.25340972734855066 -0.04209821472163073 -0.2633899784897141
Ni 0.582033281423158 4.365975222702077 5.910627605305987 -1.8891591854053915 -0.8613175021482458 -2.483507476353097
Ni 3.0555476298232946 0.2887547647453706 6.715074376455821 -0.9371113093501087 0.3986199774710231 -0.13879483351443195
Ni 3.679971443249036 2.398272540615353 7.891127865141855 -1.1728858401153994 0.969853022557504 -0.7297934912636141
Ni 6.06436029893899 0.8196855480925853 3.1615193380970856 0.21623800339425986 0.8660403615452118 0.07859656675798077
Ni 4.897123227484542 6.972613958782369 5.77340558944512 0.0722492843837143 -0.4227325542485107 1.8356694410173677
Ni 0.8205239303980005 5.22303857154888 7.92128374643388 -2.0926167492055314 1.3007501427602566 2.0975270420229553
Ni 1.0048293856094024 3.9111505111479854 2.0551246041366205 0.22956814484426272 0.3904973483638888 0.783557058138315
Ni 6.681546479011476 7.238456021668167 12.20309074688216 0.15913791594715818 -1.2243986632827106 -0.2349389222378728
Ni 2.0602205265729534 8.251965021222276 3.004165979094391 -0.5516589796092951 -1.4957822015008626 -0.33577681689255723
Ni 2.1199702864649494 6.323796640351217 10.070636236142747 -0.9052342581358538 1.1170581916228182 0.2945111253745509
Ni 1.7830644621234486 1.3843475851214013 2.929825409179265 -0.9026850093514388 0.49442185236369685 0.02696058774924389
Ni 3.27104053705753 5.196167817835076 8.575331017548647 0.4556509022430863 -1.244832248546714 -0.5764688395641233
Ni 2.736306067727092 7.371793009050907 12.731185635066183 -1.2535871119212088 0.9384958484024611 -0.6316161741602284
P 3.1091504852709564 0.42867772117561276 4.398154498554801 -0.6020765128298985 -0.17945425890700709 0.004883810454862557
P 3.803602792035459 3.6891502043215527 13.459113151522653 -1.7628971942506477 -1.4918651258346434 0.01703921487047388
P 2.886743465970011 5.090209974759279 2.757388563451359 -0.37362731208142747 0.5932560863247911 -0.22818900510854892
P 5.42709731217012 8.02643371063985 7.9159262339287135 -0.16928091791843103 -1.0005357963533414 -0.7867642522217031
P 5.375389367115074 5.565416527365637 11.040295160518696 0.047378489283963564 -0.08162969715734973 0.05844374595918968
P 5.892015887864383 2.940318591021683 2.6414061822253667 0.03285304197427891 0.08676187617759251 0.08635538476779323
P 9.164091693038852 7.663868026542752 3.0909122038286765 0.638437825067752 0.5048661876254725 0.7759062264612766
P 9.071610822413943 2.9139100105743703 10.694297463678776 0.056419516440309285 -0.4223260628387113 -0.5441148487134501
Ni 7.213396987159008 6.83594008041556 2.924049167694656 -0.5299105321886098 -0.08804125711064838 0.7340196135298197
Ni 2.0484813256040746 2.2477704381151247 5.351254679138897 1.195266778913761 -0.027426471642068892 -1.9514837544762262
Ni 7.262849526673578 8.399185693530415 4.767800677094545 0.4583328199506236 0.0705155895220592 0.49079325447217403
Ni 6.11161289370506 6.311160823245345 0.9407185587747949 1.2149326327738044 0.8029169507221656 -0.3163248788155326
Ni 4.939569220279104 3.565398690485841 9.531069283137876 -0.9176123200852326 1.4554909580809836 1.492987669474861
Ni 5.587776469998487 5.803019803668818 8.830428476335056 -0.17301878769430848 1.7129709988441661 -0.6036402577725927
Ni 3.846917670571024 0.3055640064476593 11.39606042717264 -0.3183776475795033 1.2985181681059441 0.2125394714967501
Ni 4.395073651560369 5.695998962080091 13.185792200838492 -0.6117808846018561 0.18725755700150978 -2.71906269201873
Ni 5.388145349270234 5.136723092298965 2.819580446883495 -0.7570476989938768 -0.4398812981136554 1.131476166820361
Ni 0.4514305110849796 3.7661297835883443 12.944168941463372 -1.8515745422833982 2.63190615150588 1.82652094174888
Ni 7.995754649210157 3.180648689597161 1.1434148126064188 -1.155113346623327 2.1716509177215633 0.8625827420139145
Ni 6.046076724516594 1.4766250995090549 9.976502633916866 1.8151299263031193 0.5440683117462307 1.7447254084376276
Ni 4.855241086075101 8.160852183466181 13.303100094992782 0.2029394865131408 1.9756441537725133 -0.04624283301762359
Ni 6.969646806411495 0.620830878452037 7.846916370469297 -1.499614173652443 -0.23522637157130455 -0.15731397536454195
Ni 2.432464118870379 6.079297738911988 6.601242949612079 1.4614898559768958 1.3308880997962176 -0.34486206702327704
Ni 5.839281918157724 1.4671228171499937 0.47035280896166654 0.7676964369569746 -0.7447377712782722 1.3091800186951648
Ni 4.940373401762798 8.171223351566246 3.7873592504113556 -1.0165023469849266 -2.408457489295794 -1.9813998253093683
Ni 0.8866184048923889 2.3758016763985457 7.171209811393682 -0.9007839356739841 -0.6189671179376501 2.412795968770148
Ni 2.1193324873571915 2.308268918698836 0.7075641623348611 -0.4089552979587602 -0.49184483566514003 -1.3791052829313926
Ni 3.6785941669148916 0.1738788263193582 1.933609084564194 0.9406941416053605 0.9091065966070666 -1.4195726469178198
Ni 7.026817639476469 3.9981222764363187 10.428214146347873 -0.35244090781179943 -0.37786886096660083 0.09023723632070266
Ni 3.3446739818749247 4.399344132542749 10.995582670025259 0.023562360700972323 0.36306522029486504 1.3910981936272107
Ni 0.6211895249068343 8.451854958979764 1.1646396576967655 0.0560284516494777 -0.0004409441921605309 1.179909065510768
Ni 6.1120288496449025 3.804545625499101 4.946799458860093 0.039361789627074144 -1.546585400195659 -2.236179693532568
P 7.361218484713587 1.1613397405740176 5.613698844169451 -0.11147814797734994 0.1941100611469689 0.23700788895175956
P 0.7944481147025612 7.5396081221139 6.257775189232936 -0.08220382449326488 -0.44827337883209245 -0.23744523359949427
P 2.404724479415571 4.044441281204077 6.70844496312127 2.748948938055201 -2.417693663182081 0.9282924255068981
P 5.752550482967966 8.383795323756257 1.7756475055427963 0.17079529768042845 0.18770518606188966 -0.30041746355665677
P 8.521504470240004 7.827486606346003 11.128435299824718 0.2253811033461086 0.9206685904130532 -0.38233795248154795
P 1.4870055110744493 0.5421976432377397 8.302415854992466 -0.13713827174761542 -0.16843476786805184 0.01516770887937388
P 3.260466012720209 2.333448118257282 10.289856108597968 -0.07972476682515302 -1.3205751479059837 -0.46143434169408276
P 6.074777684365704 0.6166167826081693 11.898897546342914 0.29552259735820074 -2.136695227581985 1.5304568700649126
