# total energy = -340864.57274413627 ev
CRYSTAL
PRIMVEC
9.30470688230826 0.00000000000000 0.00000000000000

0.00000000000000 9.30470688230826 0.00000000000000

0.00000000000000 0.00000000000000 13.61837905644189

PRIMCOORD
 96 1
Ni 1.944162701110648 6.263128553083088 5.799468489572126 -1.5103097056930763 -0.47623541126265717 -0.22899890260435402
Ni 1.7544862487495343 0.9803811492065927 9.92758084374692 -0.9915611036585568 0.9412574703079982 3.0408714767669696
Ni 7.270930673842695 8.307875136951825 8.699611676231198 -0.19587383791561103 0.6084032263788748 0.057841336488500386
Ni 4.069888150071304 6.775250322104592 2.8867965149265826 1.401676226253373 -0.15460428974286278 0.3771288974767828
Ni 1.236781655523142 4.946652082035151 9.174103349170345 0.5113939614416612 1.0835256070830113 -0.04979301226272716
Ni 1.715462307557358 5.008975009575732 11.584951074040305 -1.2317432765732401 1.1335821574197702 -1.1398862452609273
Ni 7.859881408630484 3.5075488773268213 9.336134586539549 1.1371765596392478 -0.060292112021838096 -0.6505124968440991
Ni 7.854103185578422 8.733044418982177 2.057519155178823 0.06496303513494618 0.7699996311688546 0.15768344288881878
Ni 1.968103712242615 6.961409595216625 2.220517151606172 -0.883798199749265 1.5484332520376751 -0.6958263902895501
Ni 6.137263781383859 6.543116491665294 9.823087123104008 -1.3098490197377313 0.7995236087699005 0.765053857127805
Ni 9.243174980703936 1.6054155377719819 6.621596112454824 0.0762828310231396 -0.253682264283647 0.06746394717992898
Ni 5.90921471732114 7.663691661363665 0.9230976509816253 -0.8917310814430965 -1.046356711342198 -1.1139885515585588
Ni 5.230929490548115 5.74524717042354 7.077634690455411 0.8070420286341325 0.4672275513370921 0.17031990070590666
Ni 0.785572220459784 2.886115410373586 3.3947628017982465 -0.7441281627187314 0.2082917519639897 0.24873777579417805
Ni 8.02094588694154 0.2340673485555902 4.297551999263886 -2.599174465600814 0.13380303672679536 0.6403666666593488
Ni 2.890004777902992 3.9646053902741003 13.129873920140207 -1.352749161535367 -0.9629339268401673 -0.3693993900430089
Ni 6.295397276987348 7.392487366197152 3.222734587219488 1.1208104595763988 0.02903135423534355 0.6384486237010295
Ni 6.7470663645769084 0.49652428866374326 0.18160275809014306 1.0743732511597819 1.1613996938526707 -1.4271985388941937
Ni 8.034540063880446 1.2059272470841202 11.469848126466701 2.20083345282279 1.579802767487892 1.8495752524651823
Ni 3.1530953685584002 3.3810513855510385 10.767997798724837 -0.0044788617069600285 -1.5505986351201102 -0.38353248701028136
Ni 5.6273007043882455 0.9478611982131125 8.206517102570658 1.0436683658767574 -1.0992535593412294 -0.7081234624893482
Ni 0.137034141991811 7.869576913332975 3.8427388511762723 0.6089974083194479 0.5491282427676414 0.26658303150571505
Ni 5.689902773139072 4.421326933769085 4.07781948232505 0.036053551189447586 1.0655667086117455 0.13111469126135483
Ni 0.06437554590657846 4.088934885316984 13.0980071595787 2.1973190119116284 -1.2045955125138543 1.1987315975339097
P 1.0842309841245419 6.841937157231993 10.601472387870698 1.380485708218687 -0.42863863532030055 0.3010234725717719
P 0.17585710151261116 6.502594492644806 7.673724926930552 2.4579571386878185 -0.3557427184915228 -1.0908463091141407
P 5.48096557727109 6.564526622491044 5.017828438293986 -0.3469785991456476 -0.7026135884147126 -0.048821392378077214
P 2.80396415219864 1.7450977993783119 4.632441431076974 -0.20086074960724115 0.18066293450312756 -0.8019013649734578
P 0.6035963436186143 9.115263173462914 8.043287418938805 0.5816102745557467 0.5663782880973407 -0.2929322109232052
P 5.851516229163608 0.8100770968364448 2.9038473905190156 2.0759889108408633 -1.3160785455872108 -0.8771269583766765
P 7.056261778457693 2.9450328151491845 13.33282911987265 1.145004283213783 -0.8529431620416215 0.053109478230469825
P 0.32946571809803765 1.0862035820102693 2.1224241389141647 1.685629887827052 0.46462713759976754 1.2873374688987764
Ni 4.462649137592273 4.978771930627281 9.3179262053953 -1.1657356022238634 -0.7281310159595267 0.10974368178474647
Ni 1.8566891505270409 2.8641283877133303 1.169382079838915 -1.4154457692336397 -0.07409173690909175 1.1451053275680214
Ni 8.83696869155619 6.889484210043634 1.3770901239111204 0.3233794716694689 -1.65518648373553 0.45691588499843894
Ni 7.731885859026387 1.7768919832251566 2.1945198002254043 -0.7901465384303746 0.0038119175469224667 0.2881481592710005
Ni 3.9570778823045076 2.382572581213596 8.673150950441425 -1.4209299322766624 2.005393102900172 -1.5755866725240155
Ni 6.036335624466468 3.213278213487107 1.821308002128555 -0.8931511017190747 0.7607086927852319 -0.7417822881943741
Ni 3.602428974688915 7.1239814360630005 10.500151572317563 -1.0672384398872135 1.1591726042943649 -1.8211146831316443
Ni 4.240527171893745 0.9233572523071527 10.418945672374646 1.1968557206674355 0.2323832456955546 -0.43104158833483835
Ni 7.7667785103069455 4.186811098335702 11.552934507695964 -1.2637450262908172 -0.6183634229153803 -0.025926747168090836
Ni 3.6884137721512187 4.790723801992593 5.581002343257099 1.0884287008115834 -0.17456890579024775 0.21695174163183284
Ni 4.602629149822865 0.680108949346622 0.9825984608866346 -0.6070523687779351 -0.33690141741530366 1.1374349555069574
Ni 9.095760507573834 6.44135091111717 12.732966755176406 1.2829249416533777 1.9999009694373493 -1.944199304999671
Ni 0.8299445072402442 0.7260118604299227 4.631801267234813 1.8609518697332401 0.45074523741135275 -0.6027280303709684
Ni 1.2732002787530363 2.5620882935218114 8.411609593502872 1.424395779338076 0.8629910331959266 0.4620683757336559
Ni 4.449120093602426 4.9052647452629055 0.6640564688161636 1.953462989689784 0.8911515547905426 2.3239599836723457
Ni 4.594347960585612 2.3099493430149947 3.618688950185655 -0.6854167649204518 0.7820786738205757 -0.28159570286446345
Ni 0.026018752206886556 4.070800011358103 7.3583642141861665 -1.1316162919426513 1.404353258864904 -2.064030967148039
Ni 3.0450677201937926 -0.01595105922406953 8.617628833253098 1.7086212065159025 -2.026942032715542 -2.587729456988666
Ni 7.038368826881023 4.036260938943854 6.270350866662813 -0.026289015603516017 0.4407891546399054 0.19177601369715358
Ni 0.230017009594943 5.733625591370362 3.4879122236568243 0.937870041893004 -1.248785062546875 -0.8002149784099702
Ni 8.360018715025491 6.082319486500739 10.270572814422705 0.8801030102858649 0.23106401266349885 0.9010179060616612
Ni 4.461997808101704 2.4586199515911966 6.066034388295077 1.471557010404911 0.45199273666520867 0.06933005385439028
Ni 8.360604911567004 4.025672182368581 1.9702800832118208 0.5195425586907246 1.1728141063371995 -0.011683606985515363
Ni 6.30503695344779 8.619722392329932 5.916369106539705 0.45001118745880564 0.009361900830874199 0.43865385346445745
P 2.9112195098815716 4.19943758574576 7.638535455496434 -0.3886165864014081 -0.26184063172472327 -0.010902248734800578
P 3.4451608168371837 8.066269114778231 0.5793222239757556 -0.04867998170420649 -0.36272197802283335 0.7320930859310683
P 6.638117550218494 0.7533546724440688 10.205885560831355 -2.113978245600443 0.9134669304582913 -4.708409797199633
P 8.794464789942968 4.354239996240332 4.774957906437986 -0.2880144619066136 -2.1631999587407322 1.4005074027562525
P 4.723422856202653 7.578181403958777 8.224779451015552 0.8759972156476076 0.9159439312438741 1.9814191085830777
P 8.71182038229659 9.028589827682008 12.94794642777548 0.28297175727638363 -1.7998514028774937 0.09537327199568736
P 6.8939597741145535 6.750760333259143 12.352278624998508 -0.5285221364815156 0.1847363332415528 -1.4000533459379694
P 6.198321268771331 5.429045312165619 2.083393684427083 0.28485971832771584 0.6499360555153387 -0.3300753956324057
Ni 7.688851589113699 6.276787862971051 5.077408338208564 -0.2395568806258584 0.04795981570873031 0.30151866704063557
Ni 2.83211089089829 6.608240136015327 8.068358951972263 -0.9940285913624427 -0.4877842924425212 -0.17834508500322835
Ni 5.784066408061537 3.01793519455803 10.318700480951653 -0.38535771314447825 -0.23028625395720984 0.221028997025
Ni 4.15304431660313 7.869818835715186 6.15411832765842 -1.5526223504183583 -1.194573095280846 1.0611896625899724
Ni 2.5829773607551054 4.868678637306864 3.438027828444737 -0.24517988323959064 -0.5626028802153085 -0.47353318184014576
Ni 2.4992443023887745 0.6577050758124013 2.6521383174759747 0.3166254407750869 0.217414025980232 0.3785825992041738
Ni 4.756566222565679 2.5026963486887976 12.92149965904622 0.8708660650686292 -1.2995036719476651 0.07170498184447006
Ni 7.480258667405019 5.2189264185076025 0.057079725141488964 -2.6970638191501357 -0.10457653576151021 2.129845808760319
Ni 4.620773328488755 9.165117793612575 4.412899660631805 -1.0678796730156384 0.9033997760302764 -1.6666626026959295
Ni 8.697965673561455 1.254860701239975 9.027037802553048 -1.638842495159868 0.45973124296004697 0.05533759623004018
Ni 0.037029942480329876 8.623379142184135 10.145447766930623 -0.8493328189825438 -0.7077146570867037 -0.002877064437478916
Ni 6.073982469021439 8.633130475128675 11.484270422329331 -0.029638391691723148 -1.9850754743887424 1.3313912646848813
Ni 1.8570520341003587 8.57822339907359 6.328392698508945 -0.48169540593596394 -0.5870867242892857 0.1559669744183443
Ni 3.9363097762623194 9.06738115119898 12.279501859134273 0.494158057179349 -2.6435486208408148 2.22035146825106
Ni 4.2917216698525795 6.343363041614356 12.413315642030563 1.7880230427839983 1.314247663026059 0.643064525206486
Ni 2.4877529892337105 1.4770012763525198 6.664521517295517 -0.20511798222169836 -0.7503476612658819 1.3887903714296403
Ni 1.73621180418553 3.456996404151549 5.526978283897086 -0.7983514428386702 0.8362757286882693 0.5802604453960717
Ni 1.0038290108671277 8.817652119807274 0.9850735129508021 0.48573589455392463 -1.2231665906478226 -1.274543916678534
Ni 7.666873871160452 5.80199657846624 8.140481596933826 -1.7287956245812486 0.026758241930450687 -1.083536919936921
Ni 0.039114196850155214 1.617995501646999 13.597829036406132 -0.3039478453074185 1.1832689831219363 0.44397783678053215
Ni 8.470595853110332 8.124377010044121 6.458666040388635 1.999666227718724 0.3720237150397335 0.3660795816411566
Ni 7.266045702663417 2.506353098543 4.599948463733817 -0.014644232275736071 0.39186029014968643 -1.7595555314719242
Ni 2.25402805389602 6.334830625287882 13.505047150474375 -0.5752645348433769 0.5760389511155563 0.442955823273921
Ni 1.514527159716384 8.573422170257384 11.994210237557422 0.08942271083920728 0.12986822044876345 0.6490893912443273
P 4.754826242355156 4.386406368367503 11.907365685167566 0.24967340023457002 0.03450111910066316 -1.4659188382825268
P 0.36852129529404154 3.389062738285055 10.47077661229284 1.007102908047898 -0.32028360635296454 0.7814361551405703
P 7.180991375901928 1.3230176800746651 6.33762575927313 -1.3336466363779613 -0.7439042196333833 0.7410047865984013
P 6.2095985736652075 4.149331738506878 8.246405451043891 -1.446780574791179 -0.4829917561498842 0.4353422725927212
P 2.784601056914682 1.388104105596666 12.018124265039065 -1.330483151048315 1.782526024225169 -0.6415079793526436
P 3.937165809307069 2.7850011593160326 1.4447195258584484 -0.44487772288698224 -0.23438227840345444 -0.1283669533128886
P 1.3428087918809977 5.117979652176196 1.4529448868536519 -1.3626929030116401 -2.2124044454898413 -0.21408496160699902
P 2.3816328058057734 7.688265392572187 4.2144116507339735 0.3731429162458413 0.5960727298379798 0.5040858578160222
