# total energy = -340890.1724973291 ev
CRYSTAL
PRIMVEC
9.08120499571260 0.00000000000000 0.00000000000000

0.00000000000000 9.08120499571260 0.00000000000000

0.00000000000000 0.00000000000000 13.29126145349328

PRIMCOORD
 96 1
Ni 6.055665189993458 1.7415026408107634 11.42764007249945 0.9674960922895531 1.4471171321949914 -0.32260145585286376
Ni 4.791134667883762 0.38123260917918433 5.895431872238932 -1.3740090993554077 0.5337059946753001 0.1356891980059147
Ni 2.7564271683158568 1.6656836620960058 4.66476788711821 0.013179217694435369 -0.17210476052047133 1.0507031612363518
Ni 3.5687772607760224 4.292730905900046 4.743810693530145 -0.21735360505594178 -0.1720476820302908 1.1182393564151127
Ni 5.245049607646422 4.508318707395836 3.0357241619512294 0.6626079945560523 0.7034486827214982 -0.964416682033281
Ni 7.294831907150427 6.0136373742679945 2.508845374256891 -0.1452400749191434 -0.22077625758424557 1.0399073561724286
Ni 4.760948743192439 4.4574457982138895 11.438898042066187 1.2059707955948262 -1.0420174605368957 0.024140344691629394
Ni 5.623754009414636 7.770078596943146 12.44100626526416 -0.46702186308418925 0.853230354264737 1.2525118765791592
Ni 1.9181683986161167 5.679312820263466 0.4748089757222851 -0.06020726561751566 1.4600708641421822 0.6023212818508531
Ni 2.5918484940737256 1.5780137111423265 0.3820108684288974 0.2931895783496499 0.5321288799961674 0.6572899247772487
Ni 0.530219762933189 0.1199645313951001 4.919321322087383 1.0973956801968843 0.16140717159730913 -0.9640929801452751
Ni 8.356669938553045 2.4111325189361437 1.527817351716548 1.0972663537078715 0.3657918751974087 -1.7649317081821734
Ni 7.069863221116089 0.6727483638471007 4.688612406511112 -0.48972213289518246 0.689353895191329 -1.0671312248853881
Ni 1.0762317409801596 7.190824868796119 2.406661841822564 0.20027299542457122 -0.2111675308498879 -0.3528003480337472
Ni 7.781203072799605 3.8351471594059507 3.9717475498389674 -0.6132240448062858 0.4069233551303959 -0.8540682767850001
Ni 7.517139800183996 4.006064514585068 12.435224262180236 -0.010313209000549979 -1.4388186396316252 0.6938767227623469
Ni 8.07547951372088 9.091738978328749 6.665460826059214 0.40921575070899846 -0.40818191012784544 2.1252517616317337
Ni 6.958155321107676 0.7356357069540232 0.28194325670849296 0.1843997758377405 -1.2195009688707772 0.38200165218805177
Ni 2.000398707906107 6.3359929003714495 9.114203154594971 0.22384898297229835 0.6442426046749872 0.21701061989422626
Ni 0.015328165549483692 4.748670954328821 1.5952434809729061 0.21518925041477133 0.06868676384343654 0.25755383142391125
Ni 6.460986602974147 1.8048440441567253 6.866172706003603 0.6993619142466342 0.9752022026845591 1.388363311194551
Ni 3.7399307272794404 4.224521976791586 0.40365137942150336 -0.394482815374198 -0.859644485321197 0.31673137022533193
Ni 6.173221385880695 5.682736434465822 4.9791056175207125 -0.2871456861484151 0.6071325871965674 -0.17825561061321557
Ni 5.216452893791736 2.9109347864560995 9.155671568105939 1.8415372126520544 -0.05675915916791515 0.7918730342031781
P 0.22397883471323288 5.8557515479493 12.399789401125622 -0.3656175544030736 -0.8071710980128292 1.1102841061237783
P 3.867521654449442 6.2214425832666524 12.777407690802054 0.07651551585923597 0.29063390180733173 -0.27917398079684824
P 2.2256943173125534 8.727046875537281 1.4165290033690083 0.9622348438906138 -0.6974073616234248 -0.02007208815952672
P 6.369711413722497 8.011629562907194 5.931930142373377 0.6805306404727441 -1.6900331591010702 -0.22291412986285483
P 4.5606173657283655 0.7850619802143911 12.818066060846576 0.35806442464616395 -0.5044208725579378 -0.3059797881357827
P 4.075354107062443 6.261181935387359 8.204097525151589 -0.48108245494231344 -0.8737133047094371 -0.2259868552509076
P 4.676675162826773 1.128911809913482 3.7445203681756487 0.23086063840344112 -1.4100860475836232 -1.3646788230934177
P 0.06984445408948044 5.734562870149751 3.737662242325201 1.001153118222366 -1.1322894067502758 0.14633356509363832
Ni 1.361971849407498 1.1799845056006057 2.623017005122329 0.36512081727231316 0.37384894117393036 0.0220189274732524
Ni 1.954874628340042 6.440363186916989 5.137683431643702 -0.35100726068906646 1.2413962262819718 -1.344930951042529
Ni 6.13860383325635 5.887045379623879 9.12717565562432 0.5258911266165717 -1.8273408665470143 -0.335602496098222
Ni 8.440952600123493 2.341098267666745 10.184681044226025 -0.7353838408671981 1.5386036675417631 1.4670863762280668
Ni 2.5050866635981244 5.172881273253539 6.949070483844981 -0.03218584070392522 -0.4595456093118021 0.8368961358810877
Ni 0.4798118114360184 9.554153925766219 9.46462686843487 0.9368482854967092 -1.5887887730365864 -0.6721647850065521
Ni 1.5712754571949856 1.2652388560825971 11.34288155579849 -1.7929068532388606 -0.26691573225478543 0.9645508936183003
Ni 4.150101503613068 6.77634052019162 1.7903195652303407 -0.16500671602310937 0.8607999390818788 -0.15184318205795785
Ni 5.6591616268549085 7.8491758905837665 8.026885078818431 -0.737255346858298 1.1931754436023707 -0.6206907854969762
Ni 5.349029402386388 2.658976759813274 4.927456265330008 0.0652715675143005 1.514855930302862 0.39581721791490543
Ni 0.7996073459117713 7.468646166654614 7.053353590824625 -0.001182450343875383 -0.11845277952297019 0.24512589007320365
Ni 5.014051001637644 4.548148871564351 6.962626906341734 0.41214552276128374 0.6828235502719788 0.49912825670043076
Ni 8.1490009476261 7.729340312296554 8.985118369238531 -0.4828477743728523 -0.863569531407216 -0.6307527977186684
Ni 4.624322017265558 0.017013637156797025 10.710776123947783 -1.6896081557485096 0.33799130804537275 -1.3857001625400909
Ni 8.140046879712246 7.279820675647793 4.799221480741049 0.003617542147929254 0.26057359208684155 0.1710197549864087
Ni 7.58445877122394 6.180767867053525 7.091871520902316 -1.8546683507173733 0.5052739645868524 -1.2239541195461243
Ni 2.425417254056315 5.368862753627618 2.951962761535199 -1.0155757214055994 -1.322707363757638 -1.250974099778394
Ni 2.333588111313037 5.482713817964295 11.406347371649947 -0.33203509046193785 -0.45159781521963516 -0.39045492516172753
Ni 1.1284759120840044 3.296568147472051 3.829863714464491 0.30393781800508946 0.9735952632087553 -0.08734063149919796
Ni 3.84174919528158 2.763746619369168 2.476933112536741 -0.9044546996573519 -0.5077612497850803 -0.048737831525335416
Ni 1.2277516427475248 3.1516048755564117 8.288177675855424 -0.7991045189546109 1.4309639194738968 0.4779616499251446
Ni 3.8492502704305074 2.512714875613982 7.068491959194191 -0.7872332214383216 0.20416101762506778 -0.8155181844259439
Ni 4.275031637782301 7.130353126160885 5.946018723470284 -0.35681949649546935 -0.4685735238420252 1.0158978806317085
Ni 0.4058998857252253 7.2996177020699 10.89458061683131 1.2601429107618556 0.7688292650098373 -0.088444406086338
P 0.06453558177463467 5.605246514071401 8.246722884151627 1.7025552028274809 -0.07317539574240946 1.0176248906251442
P 8.488165783778785 1.740558195513562 8.134105955544658 -0.9467647732794728 -0.1700872158698103 -1.5773828451924898
P 1.9740632140418362 3.3050590739420835 10.64111692643583 -1.299019533222395 0.8949660434406265 -0.9591844871000643
P 3.9509688451800575 6.375432572734391 3.9695680606915795 0.9636602634832306 -0.6748842408202441 -0.12545312210020332
P 6.793721946142038 4.099083295154629 10.330978345123961 -0.44249045360172823 -0.13012995875058234 0.4110168084734792
P 6.3111103992721045 7.7737019976506785 10.240837398349433 0.4840513077626502 -0.05905155474651765 0.4024367801139521
P 2.4266068918825976 8.726956063489475 6.042340338218615 -0.14142892870316934 -1.0739659884190345 -2.6798083745037977
P 6.85996025381307 4.16403207174679 1.3383498195317252 0.2373321050603977 -1.6975929737261992 1.3760978635636363
Ni 5.440549784167119 2.623914228154671 0.29131506004226104 0.13089537616169714 0.8648216586467622 0.5423922095953885
Ni 1.3181550363402197 1.1291842460569055 7.105561437109347 0.7113049455411233 -0.21694299988108448 -0.07667878090997762
Ni 6.708313215178774 0.6885051622622372 9.286856836128175 -0.014252910374588357 0.5982028888071053 -1.0554859273369757
Ni 2.880521831645257 1.5412166693705935 9.163460517446415 -0.10701419866872537 0.6883372810013565 1.4356281577187855
Ni 6.3646168578404785 2.1457070656034167 2.63053987516273 -0.5511265041445927 0.14676139665967627 0.32931357776571674
Ni 4.437612446972659 6.561179535320527 10.538016192318645 -1.424259767980844 1.2180575515560312 -0.12294706784889793
Ni 8.001576669214867 7.26309309644159 0.18250497247939676 0.2166648065190333 0.560894382164634 0.49404852818467815
Ni 7.5211718551066635 3.865442058554643 8.222864742951554 0.7402838492719767 -0.14827269109788013 -0.29837240810217003
Ni 2.671672284096809 8.371181703792738 12.380929555036891 0.6953335098135315 -0.514786532062978 0.8324213879391857
Ni 0.017131692818947202 4.769475994481595 10.543850866390297 0.31182493406265005 -0.4620079548093656 -1.526260829705694
Ni 8.859459922445879 2.5156571859629557 5.926307968493594 -0.8098231909236957 -0.585787802972204 -0.007786585923954333
Ni 3.572046494497105 2.28468582356852 11.563981648596215 2.3315339393648618 1.002574424049925 0.01568527194574073
Ni 0.9024919473551747 3.602967996775671 12.719351548638508 0.4984957653227544 -0.710592492855131 0.03245297832238282
Ni 3.081516137058328 8.670180371200018 8.008091525524602 0.9443775039942188 -1.8387311106618267 0.6775422472683814
Ni 5.650634375565754 7.96833037851242 3.727295138947459 -0.4414689543157494 -0.2918906570325683 0.18482503630061717
Ni 3.1307090233558297 8.534071273945642 3.6921000216990567 -0.18496670408480403 -0.5314256832815557 -0.2622543222233742
Ni 3.3848919451699473 4.093434785780983 9.193937040690724 -0.9243624943248726 1.821459468065573 0.08851459720264111
Ni 7.149314681743159 6.15543130571514 11.483795518502378 0.185126626701436 -0.02406629692058436 -0.789719221084969
Ni 0.4651874392570455 0.2628255044039885 0.32276054783667846 -0.8460667466367623 -0.4914797390162375 -0.3797233976768364
Ni 5.007993838048861 0.2744122135837896 1.6070063655254543 -0.9763286029795186 -0.12855798627777215 0.5063831384906311
Ni 5.773575725887994 5.659561199865264 0.38077764081966703 0.7100358490207127 0.6013051818815128 -0.1401991700611263
Ni 7.822604285395195 9.070389065889126 11.20864046236752 0.8986468347263232 -0.3480088401823748 1.4388993722708896
Ni 0.13113078079355092 4.826742071829213 5.812295258711819 0.4035546957684792 0.8039991280427509 0.3809292450594795
Ni 8.397716984162185 8.608410016281132 2.6362419636445837 -1.2783866874633918 1.1759547088487101 -0.08549432231907857
P 8.556529093368518 1.761953513977087 3.532723969675836 -0.09561495569284822 -0.8638963186190154 1.1219540862625386
P 1.9300466144693809 3.5390635587333006 1.601504063548778 -0.06599507594388634 -0.5547862123843671 -0.3504313335809384
P 4.825352647497753 1.0248321219209275 8.288403797854466 0.08773581005508761 -1.0390599205704685 -0.4921392269771072
P 8.45461981331857 1.79689798997354 12.421002187373054 0.3693664799225445 0.37528875894425046 0.12425395958577955
P 6.50206089219763 7.761142691438855 1.7294319034161467 -0.41994033621535415 0.936594260504374 -1.7296682569941888
P 1.9838527527955205 3.2207491687572936 6.0681255110731716 -0.7033635792068597 0.17204099716207144 -0.2939110298967067
P 6.899853986415049 3.8947743499965726 5.988816625361158 0.5327320607978051 0.21188718262473186 0.4906639279831614
P 2.407935934853308 8.50968823910924 10.211623162569653 -0.8334086915531196 -0.2785391754263268 -0.4215567887728546
