# total energy = -340892.8104460253 ev
CRYSTAL
PRIMVEC
9.10753413122236 0.00000000000000 0.00000000000000

0.00000000000000 9.10753413122236 0.00000000000000

0.00000000000000 0.00000000000000 13.32979680470509

PRIMCOORD
 96 1
Ni 6.35094757165454 1.7169158781837945 11.509679781257399 0.902409387092549 0.8855691756067587 -0.09466416174380471
Ni 4.733795620827709 0.35801898276316385 5.951553972715555 -0.4581325310143594 -1.2374986909997785 0.43733924841809196
Ni 2.872889630217989 1.5531168793235623 4.81176339783314 -0.534573484881918 -0.021354811526692254 0.2709258818554431
Ni 3.287009200869907 4.363956880448709 5.029199396637079 -0.546282031568098 -0.2667205855248439 0.49091332498980617
Ni 5.2538813494856775 4.672638530066159 2.285726913703161 0.11424182676541615 0.3212711670772144 0.7853594014543764
Ni 7.346364606929934 6.101155236834435 2.4982439333975974 -0.008896531158681453 0.5373505334064229 -0.15734714259532254
Ni 4.860572494007272 4.697556743070419 11.353267903218713 -0.44955301687546445 0.45499321405442933 0.5746526122909911
Ni 5.807728706654899 7.894938701917333 12.849350672419261 -0.08028680997621011 0.9255336318148383 -0.7711093192932655
Ni 1.8973452341148518 6.38852525690877 0.43652319352076985 0.7413099765436459 0.9721091655815323 0.19233420019346875
Ni 2.721895824151612 1.5500294253000084 0.517886259198711 0.6649497553153515 -0.23179137774782663 -0.23369450830781044
Ni 0.5192915516937977 9.23440194130416 4.788382536566863 0.5811032530123411 -0.8916513772450966 0.6980092568734817
Ni 8.817194916628686 2.341938613506628 1.4674641651350198 0.3217272807780266 -0.4636781434229369 -0.07104960764865828
Ni 6.750212754364227 0.8922988031488873 4.790941753618836 0.7187698864596008 -0.5574048809541369 -0.11344118524099173
Ni 0.9413091758242594 7.446283362364774 2.6500965799194933 -0.18075960798199192 0.1043291956373945 -0.4912460257388766
Ni 7.830666834530251 3.940201538832424 3.609828475504358 0.40243189501794563 -0.6519386877676643 0.8546215781853087
Ni 7.794546354714867 3.6732050722999485 12.54108614785868 -0.39563312692855734 0.5175152438480506 0.3433813687126925
Ni 8.172600090755358 8.699470932237952 7.0915585746468 -0.588715003921328 0.5687066791202012 -0.3093505043802285
Ni 6.866789189471871 0.8948707707484497 0.49083506173334196 0.09786518517960564 0.07192995337108259 -0.3654820572664738
Ni 1.8374449830443071 6.626377614664334 9.414448780807518 -0.5254869491996175 -0.8640688396411377 -1.0052864236644494
Ni 0.012894446626984534 4.805745139370708 1.1769219909709983 0.40401389479308486 0.4633667828301052 0.7569245431524513
Ni 6.089534023459643 2.0469911251502966 6.857580561851767 0.5808140039066965 0.3305492499450307 0.9719597844878616
Ni 3.247373212933309 4.231815669747396 0.2735211038849063 0.7285542195398743 0.5473253852309476 -0.3612749611636617
Ni 6.224899301194401 5.673037386435606 4.745341241670362 -0.4282863941872043 -0.9406321780191736 0.3836762116769973
Ni 5.0271310756673175 3.053182373139154 9.443547351914466 -0.09126670602648154 -0.7960693316727129 -0.4974598678590723
P 0.2109523453544756 5.829732508781467 12.551883129407125 -0.9350911935962863 -0.9629167004489867 -0.5335386158595005
P 4.278254985576606 6.348014945708864 12.88024889224318 -1.3811251415748989 -1.3898239549004774 -0.5052130294419299
P 2.504826858967582 8.497292785132124 1.4838458865278414 0.23116325724552447 0.3221952215533806 0.11739579901336555
P 6.42476413466606 7.80551182564218 5.967629680966219 -0.4816581249401253 0.5181693324922818 0.28440489017848436
P 4.778959881897928 1.1986698713923687 12.870838077368436 -0.8070613119078422 -0.9716862191115008 -0.018046315978749568
P 4.095284627661561 6.116710904894112 8.449451819821427 0.22242767714473952 0.5464612374584396 -0.672726571047293
P 4.726664421711359 1.1559737520341942 3.785475465335804 0.51578257742766 0.1351071002501996 -0.04220208728934668
P 0.16420519487631047 5.665751359241378 3.5670931937500145 -0.2922603816671612 -0.80799256547286 0.20838662567064112
Ni 1.535530231183495 1.020927237989183 2.7507767251961313 0.5230392589900734 0.4910282533011156 -0.5928372536198178
Ni 1.5808948580015556 6.564337093105485 4.862109845745254 0.9846666905315686 0.0677143726278382 0.19777671136527875
Ni 6.08923347483788 5.534165708113626 9.240707997840763 -0.21781460385276039 1.1062328188725399 -0.32589221078899355
Ni 8.581291571147577 2.5815760479247785 10.49464238550135 0.2594950143106821 -1.5472302328685095 -0.48446705514383015
Ni 2.4560286918342418 5.463946621029256 7.210713352627801 -0.0028071304314919395 -0.9525153026100047 -0.5862027790224356
Ni 0.4426052047211515 8.966130420012693 9.182909765615754 1.805570050528826 1.1411532848988089 -0.5010995214941887
Ni 1.469345781657929 1.0978859002282135 11.420423215867912 -0.3649141005781457 0.28002398750196933 0.04315082435586117
Ni 4.589495852246029 7.0905795147425765 1.7370325992670574 -0.9806966501402271 -1.2018925117603945 -0.6048129379244551
Ni 5.662244958654156 8.181197602844547 8.234241702325324 -0.05965704954100049 -0.4782804667171441 -0.506266924627741
Ni 5.217150664892777 3.071297258250803 4.863883082613649 0.771630224793742 -0.02729457404989493 -0.6408407780822899
Ni 1.0512280035831776 7.276446068467325 7.054795102931526 -1.0385009627432051 0.7630016025844667 0.27082869415594646
Ni 5.142769434773704 4.500232911582746 7.000142612947624 0.6386944211632485 1.0162758327964176 0.1059127380744305
Ni 8.225778981739229 7.18756564423174 9.288975195742324 -0.7874864750997083 -1.3725286581551392 -0.3000950472202315
Ni 4.640716623421449 0.2732578961525148 10.62782003357104 -0.24519710963077126 0.025688148794723503 -0.4640239567981299
Ni 7.9223888093715855 7.51419824334897 4.504591777351693 1.4130700699126115 -0.21412995591232156 -0.3397291166720859
Ni 7.321464608993661 6.0324480003928675 7.013339429703168 -0.03630886173336328 -0.17755832743587485 0.17413156114251302
Ni 2.531821589722196 5.237997810202261 2.605842161495154 -0.5507626930472709 0.19909414462512165 -0.1925159771869717
Ni 2.137228571950807 5.195301690844086 11.483460101645571 0.28144452199857983 0.031275413074513876 0.47175552111443264
Ni 1.3211024508573728 3.405398035242116 3.7724790143281 -0.8956401866895157 -0.15381084730728994 0.020556998215745238
Ni 3.8259475248929404 2.9401123386187322 2.602242864061205 -1.2257659759438826 -1.0980160873897025 0.2391401048034139
Ni 1.0552444260739957 3.3884215918795646 8.203530186948255 -0.939605279416556 0.051191949492782794 -0.197285373551157
Ni 3.5275938188233074 2.893017280342043 7.20526158277972 -0.0028456969789112285 -0.9549200553967553 0.5565808423909447
Ni 4.285723163450689 6.922891598867425 6.095142442892398 -0.04057175077477529 -0.4235918169250124 0.042054505967888865
Ni 0.823504134380989 7.495892100023472 11.297349466009814 -0.6252120704060974 -0.19735762154998912 1.4253239475793
P -0.018787021120316216 5.443992014051065 8.154076277367434 1.1534393013550135 0.5883964442396447 -0.17324787298597905
P 8.71693007490212 1.5799749970682844 8.153730191075708 -0.5479555626157789 -0.49984405182053276 0.14580083251861983
P 1.608836772291419 3.2562257359742954 10.412263829783214 -0.0045428821756760464 -0.7323944192215709 1.5364619386084117
P 4.1057400766852785 5.9166730282765885 3.9182806152651906 1.2198341838404798 1.477139903809327 -0.8707092277757907
P 6.762079871156826 3.9466496728993152 10.507132457619052 0.4626777271828806 -0.5890672450544241 0.952551812274895
P 6.413980814418603 7.915421545867105 10.2957748270019 -0.6691308832762348 -0.2583860975172195 0.7188745303582652
P 2.7104021162527174 8.526737442530797 5.770042641746155 -1.762092181850849 -0.24721182606795492 0.7400840745563447
P 7.169459866654084 3.7397993608551903 1.4494822500196656 -1.5226386595720744 1.6821414150578191 -0.8856488798047586
Ni 5.442516593544234 3.241635466517854 -0.06954695107570229 0.12265319075756295 -0.4375017421378853 1.1581924997692827
Ni 1.5401295358498515 0.8110013117156942 7.059899875734481 -0.2420397949487122 1.0946901083402631 -0.397536000378225
Ni 6.741032360099501 1.232704725923405 9.224912801637078 -0.04608445306288838 -1.1608147678834784 -0.7449956529253492
Ni 2.57739568982209 1.5351659298237836 9.304357820656138 0.6543179866331184 -0.10789145906735613 -0.38260560432063784
Ni 6.38123012218055 2.0959623354295 2.5785423283517814 0.3807616091333636 0.0699435190686731 0.5118058521680993
Ni 4.076787226122216 6.990997738065468 10.594402669844715 0.4411761056656789 -0.3842901911119123 -0.14429159496294505
Ni 8.15392964607015 7.34537188572472 0.43806418827234905 0.5169447160565613 -0.2192333385771579 -0.647535416493646
Ni 7.393068041244932 3.4238407915775046 8.377124338617726 0.877097904910954 1.1493401915849755 -0.46196681715878507
Ni 3.200241724520648 8.33996013540677 12.69477851624712 0.5307980769998859 0.30452762907028846 -0.3351193858142164
Ni 8.968671421996682 4.9096529946943885 10.346774285101297 0.32062633440436394 0.5487634032290549 -0.15108393529443012
Ni 8.706875357374086 2.185753513064364 5.957005742563636 -0.12103596686911411 0.4567217667097618 0.050539403510448444
Ni 3.6144159403765235 2.517340610673668 11.486246096293963 -0.43227571785225555 0.4652040931491601 0.1126531421220576
Ni 1.0310730308571452 3.1814984195634977 12.761547669455021 0.26847613476336984 0.07435398943154292 -1.07308564269661
Ni 3.023847006148394 8.329568439121003 8.21864596111608 1.3281563026873513 -0.006670470041640125 -0.47121404678866585
Ni 5.598009521403046 7.827697778448603 3.819319972406391 0.0182975127576072 0.7963356979602222 -0.06796094142100555
Ni 3.173092165688157 8.15504076521727 3.68017051429763 0.18895037132290038 0.09447390010986956 -0.5080268447416413
Ni 2.9834004476864378 4.415268726964058 9.323699490596614 1.4458997148481227 -0.20249545699718677 -0.016907574388616044
Ni 7.155907856072821 6.0941060055240195 11.603761518156265 0.488153759966798 0.5461398495632788 -1.1342341891814725
Ni 0.8266289292939135 -0.09302344144890333 0.07326100343795988 -0.19673875701906762 -0.5591696861640434 0.7901794485508392
Ni 4.747320308806994 0.3835437575313422 1.748802265445933 -0.9037854415044694 0.09127441933596539 -0.44707807297241065
Ni 6.19487176162019 5.546843395431582 0.2895685787801929 0.1702409678388552 -0.10453334122840062 0.4151164324641496
Ni 8.137044278047528 8.998015896521434 11.031379418558325 -0.8666898222037526 0.32410812230537733 0.925023010727007
Ni 0.2674035733019528 4.700425616278146 5.959045830178019 -0.38310079878950154 0.11555848869431067 -0.10104358290758726
Ni 8.466682363382375 9.138590683700064 2.222810247374206 -0.8506006299513738 -0.6136958422363817 0.02863051925249908
P 8.530034369836185 1.6007219595038478 3.671239666464306 0.05125108486549238 1.0516025331221694 0.17937506892963945
P 1.7469252026900202 3.2737122012404423 1.4825936006038336 0.8145632767118424 -0.1049611727944386 1.4488621399105563
P 4.485852115408139 1.0433226640774405 8.169192962288658 0.7055862978897912 0.7205213219330688 0.5113795632639581
P 8.578368052735893 1.399645824011148 12.526302798681591 -0.12009854265650931 1.0742418677882402 0.21109733973358483
P 6.576386360577939 8.149721965365483 1.693750865473147 -0.3027823642444076 -0.5913601548536589 0.5981285839257441
P 1.7643661302862028 3.0665158029045907 6.077294408526739 -0.5554184466517273 -0.00655271351685323 -0.7780878074936277
P 7.174441687748137 3.9370503320709203 5.984305575707007 -1.191088222056039 0.1712472976161825 -0.09953794489633824
P 2.4271942392130854 8.567949033848148 10.376580511599482 0.8518779540019006 0.3885394533065696 -0.08113578824006672
