# total energy = -381173.16616773314 ev
CRYSTAL
PRIMVEC
9.23086115124223 0.00000000000000 0.00000000000000
0.00000000000000 9.23086115124223 0.00000000000000
0.00000000000000 0.00000000000000 13.51029836458560
PRIMCOORD
 96 1
Ni 0.18300827811047388 -0.1471953072400781 4.498321266504224 0.8444819186481456 -1.1677708874863373 1.2197220837426477
Ni 3.557084539009305 8.79015186796156 2.4576991647803235 -0.6225954587188569 -0.4069819762824733 -1.3077900803261735
Ni 5.222184144000791 3.7343078366201325 3.838883336193199 -2.650338647179455 0.5255283439605143 0.8613092746181296
Ni 8.112172830531359 6.001988807554493 2.487948695811663 0.38603776993063843 -0.8406268065681135 -1.5313963511600466
Ni 6.815070724500924 0.12083104554382906 12.848063224418846 0.05353936667903683 -0.6106619405060644 -1.4903283774751428
Ni 0.40216091499614215 4.06562189453189 3.6855956607869067 -0.9424334928939705 -0.4440639687364352 -0.8185538859284741
Ni 7.19989608280593 7.408448922168471 5.4236689132044384 0.5144777425733076 0.6156948749442815 0.74505735940122
Ni 5.770072659360606 5.776949650699741 2.345712207024449 -0.47752121995361635 0.2408905118356174 0.24639987168962083
Ni 8.298885453104107 1.6401578189534403 9.421149515969393 -0.14332280329177252 0.10674191884394521 0.7150461577511105
Ni 9.043483613345776 8.509875239733134 9.746572438481639 0.45776023527660514 0.45632221727849803 0.8037800700534093
Ni 6.405294349297014 8.274017513952924 1.429159724549641 -0.7604559533444775 -0.8242650773806386 -1.588486411304819
Ni 5.027717598307406 7.531219371578545 10.925332139055534 0.37632337085635187 0.15454952524552737 -0.4789687510334203
Ni 8.279159103450775 4.234906651804923 9.936742941531758 1.373557613640286 -0.5136704161806638 0.8368997354255134
Ni 5.496479174393299 4.698009710184923 6.099413159220944 -1.7561691314981949 -1.2667743000354441 2.6621664930523186
Ni 3.5716231448604976 0.39498668993738206 7.556782394552328 -0.7026758091112157 -0.3585616759975566 -1.1209408145066762
Ni 2.976638777403676 5.570962990655697 6.68525989751453 -1.5215778224077277 -0.7831942754822577 -2.152815787292931
Ni 1.2236152227406893 0.35071271200463483 2.376150970703375 1.1478371246768875 -0.006354995683750346 -1.562745040674657
Ni 6.104100590364586 2.4722645401280046 10.292820629867006 0.37112537159518016 0.08294533064497973 0.5675329705270742
Ni 5.852116550665624 1.6838936376981717 8.056636279265886 0.6505675184517505 0.5339121971488353 -0.4283398731329591
Ni 5.525990236556006 3.2293151316669815 12.474085050707961 -1.0944908478452635 -0.43362323301908545 0.4963707485599516
Ni 6.945299709484181 3.207622608650915 5.259815594460194 1.7829358580690777 -1.8759324023024724 0.5985376464387047
Ni 6.4643072427615715 4.213149512762852 8.60873499026299 -1.2245562719064975 0.05143569007247271 -0.9624662431751295
Ni 2.754839652710048 1.507131883130239 3.7664007705647946 -2.4535232712861808 2.459210037258313 0.23731462155890098
Ni 8.900876043952074 3.1247756324512603 7.685386748024595 -0.4436261098680682 1.0680732770836832 0.4083994254552902
P 8.997218538725981 6.736248403635313 4.227061343161794 0.41373137919116487 0.8867963631456406 0.8253007177340044
Ni 0.11646484835804223 6.6779093630133834 6.494818930241275 1.3700894525860274 1.7956679609237656 -1.351449211777021
P 8.048470659750988 6.51996933373471 13.766723112427513 -0.6290448138886263 -0.9580804554026081 0.2802808407077818
Ni 2.7837691706387075 2.301678231474007 11.317266183307208 -0.11648125761889619 -0.24834362567955295 1.944776774769696
P 1.6269023027614955 2.518640385078095 2.2310501457919543 -0.9478983726632836 1.3932234675003297 -1.1474051793457918
P 4.516946374457209 8.994126200338584 13.943032554813408 1.5832588443572926 0.0456494224079988 -0.3147207675532064
P 4.2683592915539545 4.982255608582247 12.721242273264327 -0.42303465886996183 0.9254495567414642 0.26054890949649323
Ni 1.1437775071807097 1.7953839751398915 13.214678863509471 0.11513219979016945 0.730185327385394 0.32124288494244024
Ni 3.8430473775261977 1.859963077701762 9.411989732740102 1.5123100239525566 0.6088575403074741 -0.6012972114617129
Ni 8.775548646084363 4.6650186134787885 12.552728292872926 0.29910722938566553 0.734797886456741 0.18876190946117813
Ni 4.721179170938253 0.9111330440651344 11.922500498660643 -0.018499858576400397 -0.3752501923968311 -0.29489781929000825
Ni -0.1353816515141373 0.38931247976803074 11.861527893435953 0.23384337518084888 0.16356149893615055 -0.8100355640448178
Ni 1.0249117119135276 5.090099755985096 1.3118179444100981 -0.5221542852819588 -0.1792470279922074 0.10970562945795943
Ni 2.6847312644942956 -0.24154301298259123 12.982531943794138 -1.6472541162623309 -0.3050210237669392 -0.906631909814329
Ni 7.094258111148119 0.5177432930561691 4.855236193919282 0.5954366389158777 1.5997678977559093 0.49077294275719985
Ni 6.895489984294952 5.378130307334159 4.482595571946704 1.5914588636695817 -0.46191693775745607 -1.25073061630902
Ni 7.690359412768746 7.473249565390931 11.780480012017502 0.6170706722458857 -0.049964761953901045 -1.4160790319422645
Ni 7.836354708097296 8.33663967401292 7.782782484022388 -1.4572115403165162 1.8486434846795325 -1.5351733017039755
Ni 8.48444421806962 0.9973114379484057 0.8958836619278832 -0.6410819475588185 -0.17588505349851 -0.9920637543265881
Ni 2.4984617232427255 3.7264892974734907 0.1357730400145123 1.245629804747345 0.02822068540859011 1.1004714909087305
Ni 8.50395825792322 8.41638508096432 2.363343151263038 0.13717349586092506 -1.1301859872540276 1.1355068852463088
Ni 1.7366110840576403 4.445167200426177 11.716198143175259 -0.05403224715505533 0.3875889164678421 -1.18583160164279
Ni 5.963920737376512 6.550477328870071 7.739684517762936 1.2160204665213443 0.6859988626761669 -1.3985793324956042
Ni 3.1303603032702902 6.270902246066844 10.609245309214968 -1.4470433415342627 0.6023878734227303 1.01216206773836
Ni 7.057980827976571 3.3298576681312313 2.791619094712266 0.23703925641032722 0.43913002176992766 -0.9880474340783436
Ni 1.6418839899338675 7.217425487575083 1.9992133830014454 -0.03349298955112296 0.02801576848663562 0.11042810944628079
Ni 6.7683256451165175 4.588457853523363 0.5405776735603571 0.1762907735773609 0.4301165054174076 -0.2978910975903773
Ni 3.3003189133859503 8.876552725591509 9.76252798147452 0.3506416498195316 -1.7024423313987003 1.6097165243281892
Ni 3.897380224535799 9.172383354365497 4.69226165312871 0.4747845377487436 -2.288391599649433 2.939479766491344
Ni 4.589648634574032 3.8548998028677417 1.5010616690300838 0.03694443843483315 -0.24974179157866022 -0.5580006055566067
Ni 8.593876073540027 3.3147836723502797 1.0667478194937035 1.4858981096179313 -0.2684195704938216 0.28312859456922207
Ni 1.9566378834665517 6.472596555811966 12.910494305659084 -0.09173670368436458 0.39887863044904853 0.07326281324989319
P 6.845643335662291 0.7715227351919929 2.7057480884955627 0.22181832569551477 0.31979483964200406 -0.42072580823112704
Ni 1.8298243170007173 7.466215649417211 8.189388981607694 0.3298095435655288 -0.5755751241052603 0.875500478516847
P 1.565461692891311 7.938844956202565 11.06671754247165 1.2234144449925703 1.6377248366156567 0.5361333731698702
Ni 2.4580859378502695 3.8082839555353454 9.500211839217311 -1.2105715275916313 1.9308812477345265 -0.42967170457050513
P 4.295488791615323 3.5446967237380025 7.882543166571973 0.27846461343464946 -0.06632880513422125 -0.29781756403996446
P 1.0836753721349208 5.194786948974544 8.054596259016291 0.10072887988064588 -0.1610356471905033 0.19302171317879663
P 2.157778341560199 0.935713903443637 5.7893116195606416 -0.4495216494168968 0.5109571310145588 0.5446324117798168
Ni 4.65700622625413 1.9498162772925633 5.615582202784529 1.3554408494349173 0.21956269689211863 0.5234146400516211
Ni 2.861419172175365 3.2945496253497626 5.578145523489229 0.39496695409946814 0.05464956902408008 -0.2355189631110589
Ni 6.512778493126405 9.273045892020898 10.069724569222842 0.16341494605595727 0.43439173575399387 0.4165109988188311
Ni 2.784590717255061 4.228925053969004 3.268600752392119 0.9951295377361055 -1.6193653602718627 -1.139346570707373
Ni 5.686690293231193 8.20985380012966 3.614302030037 0.9578595976410536 0.00470100502009513 0.01419917431851748
Ni 8.729200493716846 1.713958551512353 3.153586995360939 0.3870235308826754 0.973504246156846 0.6279775489663765
Ni 0.9580433558588979 4.3925882169795765 6.002854662302964 -0.9229581577781782 0.5039462469143643 0.20912504649856245
Ni 1.5318152050642644 1.0718506393759506 9.607497519538256 -0.6603569937383466 0.6793337919511655 1.9720124705571973
Ni 5.829039398520872 6.7982797886004045 12.938393659516002 -0.8462881186189489 -0.6823502101799861 1.7685646769490702
Ni 3.413572345251529 1.6570595251842557 1.036502903892793 -0.06414131056459921 -0.06960053390695756 -0.14206861916969726
Ni 1.859843076510609 6.005754998784516 4.1608206856455014 -0.1747879637795893 1.4183716846311831 1.0944404542233022
Ni 4.85941131228531 6.498452197074943 4.896010752500799 -1.0437218448225123 0.24030275765294742 1.721920237617654
Ni 7.904783079636911 5.090782839688581 6.752230716124682 -1.8891789828997336 -1.315627316982405 -0.124060869738367
Ni 0.36935258933499293 6.289280890034924 10.787256922343062 0.12194073807157063 -1.123238352291601 0.5320296354141418
Ni 1.967631838748311 2.4467873641602 7.819719773745275 0.8831754785636016 -0.09368637121156768 -2.3376140841206707
Ni 4.824214039834136 1.3907953437381215 3.162341543798571 2.7911690230666766 1.3852625607820401 -0.8576099713896713
Ni 7.783923418424424 2.3975222597615855 12.2794154260757 0.2972208109962301 0.02960908111568449 -0.15437263334803092
Ni 8.619851715994159 6.535634104610566 8.71391234196399 -0.23474788927298926 -3.372689566122095 0.31934669636099194
Ni 6.649607543623062 5.066514906493161 11.477781622765237 -0.18499112956483624 0.20854989072138275 -0.8001743549800219
Ni 0.13795706169349148 2.149738261752968 5.523198824232577 0.7151687993719038 -0.33721766310414175 -0.5431573698961871
Ni 5.711613617547523 9.131093713748108 6.573056937614581 -0.2628204791394893 -1.6614561187943258 0.06129175693094606
Ni 3.9958735098895954 5.829944022884947 8.565677639791312 0.5300182614110678 -0.7558107412629822 1.7372602104088337
Ni 3.8379888657760683 6.796987468080298 0.9438573688924767 0.1665951435561518 -0.3757587566021335 -1.3078265899910637
Ni 2.0663743573452704 7.951075846839282 5.829545249695886 0.33593211152349883 0.06690730334551058 -0.05314933032946976
Ni 0.21015993223790178 8.120803685433495 0.1053195069582134 0.5609743434729499 -0.11600303243089699 0.3239708253965647
P 8.129480694639922 1.227076795562402 7.021436772926229 -2.832000198150426 -0.20762609335553275 -0.20553141561003313
Ni 6.0549001019919775 1.6706935066713744 0.7927057146887025 -0.4548844563907069 0.9741089696203805 0.9199620512643317
P 3.985498022285315 6.737633032763998 3.055989103510359 -1.9436447180477816 -0.21247159437329213 -0.01684818190559034
Ni 0.7208240781021472 0.4225121939295549 7.648909155172431 0.4296601346062794 -1.030662954756025 -1.6585803399084276
P 0.6146885630440954 2.8239695696748637 10.87149314310183 -0.9720384602445968 -1.1428880082017285 0.10947525861470823
P 3.9498576685129625 7.419932113075699 7.020423224404031 0.6304884883136884 1.6827368825499727 -0.1911836315287933
P 6.711712775475015 7.18046512070005 9.597350957283254 0.41901910995266545 0.02588175286276833 0.8962163709079598
Ni 4.486272223826407 4.368846442853057 10.42780166201991 1.028967826441789 -0.4846555170055525 0.9258347079950248
