# total energy = -340872.51533850766 ev
CRYSTAL
PRIMVEC
9.14029379420383 0.00000000000000 0.00000000000000
0.00000000000000 9.14029379420383 0.00000000000000
0.00000000000000 0.00000000000000 13.37774388287143
PRIMCOORD
 96 1
Ni 3.7929842653442964 3.945992782990856 5.067356013259179 1.2745986811758694 -1.1366718520886874 0.24631425395434997
Ni 3.869397121229914 1.1771510132704601 1.2309544384959505 0.9331497535991994 0.10805061035303971 -1.9726663020911124
Ni 5.1088849379860095 4.685150059277714 10.995247833873764 0.8624690992541855 -1.0061338592664093 -1.0301402494833354
Ni 4.764853420919172 3.1059449441124376 13.065801322824212 -1.2353888437456273 0.7460117528946895 0.2075132219267523
Ni 1.4735433192277478 3.5091690036093306 3.1716225249696275 1.2299483894563463 0.9764985528984794 0.5127669305297878
Ni 0.7672956706461729 7.140927627211234 11.22571942715968 1.4057282848355597 0.4568665198177422 0.014619806795703854
Ni 6.441503207926143 1.3543630288099764 7.1568792678920445 1.721602706377235 -1.650131437810126 2.650548706307732
Ni 4.5620028813654026 5.698507008257472 7.432554183998812 -0.4885844197463134 -0.7966455158911571 -1.5873024182990467
Ni 4.88498430188863 5.075431462801637 3.30976069868792 -0.33023377558714095 1.057941845076636 0.4136249355202877
Ni 6.240882900051331 4.376116727041741 5.6866913505058765 -0.9251168559923938 -0.6654328655993571 1.6990060520236416
Ni 6.433222101773946 1.358384758067114 0.2092359487788524 0.28359524979299544 0.05541138689076909 0.7202544414249273
Ni 3.07963917865325 5.720151223895886 11.278200251877198 -1.0917755057966294 0.3714876400306054 -0.7774272910914933
Ni 4.261168392637731 2.1381432192635312 10.562584716214623 1.5607570637103507 0.48395283451157295 0.4570115300360387
Ni 8.686405058379151 9.189102934933839 10.896640516665004 1.3452240568029155 -1.2367605272821731 0.30729027941709014
Ni 5.135903646358963 6.607655468008531 12.30603908230016 0.3452436187324119 0.21670851527277515 0.29815437855409294
Ni 8.482028089766422 0.7664693880897065 4.4769954072514055 -0.1277087509035994 -0.3897442722479481 0.008755891815759115
Ni 4.395421027476003 8.022627784782326 6.828442006019758 0.3971112541359806 0.13361046110001504 -0.5368933912643463
Ni 3.7176682447106253 7.251790250301742 3.3007840161801134 1.3452495107242124 0.8794208966171758 0.09920010194094528
Ni 3.3955094506263572 6.99668465128648 9.01914100040969 -0.7437527816571836 -1.4380401095943878 -1.735573052514398
Ni 3.150348491228745 6.077454447511279 5.234684629149279 -0.3089149595047067 1.0522165125570848 1.1141122216206167
Ni 8.293829441119906 2.702282150514766 8.012024129984132 -1.6927911814621814 0.5186313597303649 -0.198958904598838
Ni 2.682539115979726 9.159671189006604 2.661997219769518 -0.02818391863338372 1.2151360070338622 1.560007587138836
Ni 1.4557471672649132 8.593704199002124 8.81993286792176 -0.4565803560358911 -3.5765181401084085 0.9392175570598341
Ni 1.737633827015206 6.294774072096978 13.349303072482996 -1.6278433158358872 0.5066173659886243 -0.7074058675970333
P 3.210317958628929 1.5670211035749024 12.452659448633506 0.00956758908377707 0.2384541344799829 0.37051370615311024
P 1.3351958327822084 1.6226032299672997 2.310898427562637 0.5290062752067858 -1.5371695061983979 0.585497782535611
P 0.07480325015338596 7.971807751442131 0.05931136624901594 -0.12506797084664267 -0.5076072407057194 0.40463610175811604
P 6.672889744618059 0.2818976281028125 11.734193969374623 -0.14142610048969192 0.8978827028667892 -1.1773292205987336
P 6.810012431698924 8.199263961814571 7.748108201807608 -0.41951199042868403 1.01353349416459 0.3933528155348129
P 3.1718738830481987 7.887726189086653 10.801056808634113 -0.6752935604435208 1.669634797950376 2.2925153920098196
P 6.4749932442855815 2.6550816735059946 9.476700450229268 -0.18873157044387495 0.018474147544787538 0.04306237840711294
P 4.275317567387843 0.9979007122210762 7.5517628093272595 -0.0428201804893198 0.7742596919967892 -0.20227742744910973
Ni 2.916411812576054 2.3581500902164994 8.653299828387269 0.2840855591658527 -0.5223345196135649 -0.7100358490207127
Ni 0.8834084784760002 5.675939622948669 4.452514044427956 -0.10593047868624338 0.28925141963750833 -0.6247639271250853
Ni 8.653490860526984 2.286499327383084 10.285786458003987 0.1159292417701681 -0.7387596993179665 0.4962905301413195
Ni 0.1894417285987216 6.587885012592191 6.6753868728749906 -0.4001078748704593 0.4720396280137548 -0.01428556338473669
Ni 7.018886424844634 4.557935450639433 2.574840862591083 1.7694195687501977 1.9382996516857844 -1.6873895508306358
Ni 8.77679342343332 0.9384431012718008 13.035982942470666 -0.3981942027875142 0.4069616645674991 0.39878118563923576
Ni 4.880770626462402 3.240334683357203 7.384340962440744 -0.6681068128870945 -0.13717632407440247 0.5950553443170591
Ni 6.662753158831318 2.9163021290508593 11.645218693736709 -0.3476398868787303 -0.888820592664521 -0.5708057277410751
Ni 3.8506595190091586 2.810329563125279 2.9383549158206237 -0.14681333294353424 -0.045501841086540984 0.47730113352301023
Ni 5.167958656597104 1.724416962229249 5.483858177510263 -1.6065838922364784 1.1529878156398918 -0.6538605873807255
Ni 0.4071909469914333 4.219826843933108 6.351538952502725 -0.34754552739271116 -0.13460856334722623 -1.025798170464556
Ni 8.281352940129013 6.7979381036337445 1.775092578927938 -0.3803520323997708 -0.4297071857941309 -0.15887772030723604
Ni 1.60394789039044 8.235633190710368 4.9564943041980465 -1.0022952022466094 -2.276541642289383 -1.080610233208429
Ni 8.081591819868226 4.667509292308905 10.263926531432688 0.7145429928624469 0.7301585879125168 0.5906286760042732
Ni 2.319495787879146 0.19043893464861641 6.7890848150917815 0.3459092773408688 1.5585286886004641 0.4166377542046825
Ni 6.813430901567491 8.065194132851623 0.011565213702400965 1.0419051033287476 -0.36791792040147603 0.08172457086400119
Ni 8.63506402829428 9.045198149878438 7.08875940054052 0.4796439227235739 -0.660231781014392 0.24289854340458167
Ni 1.3757604565167028 7.5162280892523174 2.0645876192092345 -0.7027822527820928 -1.2435770359833744 0.30404863255134085
Ni 2.4260441923119984 4.608289328997551 7.52015110333678 0.7523842320799364 0.41740599982927473 -1.397719041377838
Ni 2.055588085967012 0.8455311011087754 10.56132701179239 0.08253061170506432 -0.049209886065747506 0.502103794388987
Ni 5.755972035165711 6.280798562928424 1.3149948695294806 -0.8117430336542278 0.03561363543855156 0.15921787725547418
Ni 6.527705318435386 8.527692997422466 5.357612440011202 0.015959351542733806 0.14546813176954948 2.3600207339506456
Ni 4.570265706930067 9.141390601474159 9.400674228769962 -0.25678404313742226 -0.2524702462534168 0.7056793718242298
Ni 6.552502935423146 7.546701828668903 3.3919136590587255 -2.2580440977058274 -1.2165830238930337 -1.332610738914279
P 8.460338172659176 4.973471485839427 8.000051259179758 1.5741129161919665 0.9283446189010721 0.39615403242903385
P 7.383191113484953 2.522757640652396 5.627027168917485 1.282473970158888 -0.8820871305954293 0.19827884781267788
P 5.640329038435468 2.6906556968441313 1.7024519222796404 0.459987324834911 1.003574068959033 0.5194507703078667
P 2.343927793116258 2.881441048626488 5.966260031757056 -1.3303767073774377 0.6766112508136799 1.6052032098388678
P 2.2551481197649417 7.0600268870864005 6.965336185756468 0.13683513868489983 0.2618514303580006 0.987436539967222
P 1.0398089591392052 4.882489001690452 11.458853588019698 -1.5267544815126608 1.2676435900142748 -0.567068629296146
P 8.79015653291954 4.642912761784001 1.2720226924169635 0.49517569981058585 -0.039910205931376425 -0.49302548623680253
P 3.8333478026159336 0.35025879920976505 4.685153715395221 -0.7337861573627751 -1.9997428465929303 -0.7521487190303627
Ni 1.0391325774005047 5.954645460468318 9.044077549862697 1.0975100942875613 0.26366277253512654 0.04893374958622541
Ni 8.654624256953994 3.4226561231120374 4.12861219632247 -1.3740147557823628 0.0030092191399690113 0.8577981761410773
Ni 6.775041667749358 6.226258430025377 7.003971293476913 1.4448291074917634 2.131263772153768 -1.512238547284673
Ni 8.67155208100904 2.463190346177925 1.7646982368569901 -1.6917344580628928 0.34708864236095066 -0.1781540520383448
Ni 6.835120818674738 4.442932274472826 0.2394025743248922 -0.9784255947178633 -1.4619706522680562 -0.8161085097117751
Ni 7.547570156576693 0.12058423954026316 2.4094390206269027 1.888364200307922 0.6023001988049304 -2.3615489976697135
Ni 1.9171217757025119 9.023956107165736 12.975019925138094 0.5138357381139345 -0.5203822809832006 -0.2225091811149523
Ni 4.543640031189062 8.905351655255238 12.537608424867397 0.0724176916407785 0.9459620748725194 -1.0539458365433656
Ni 7.500982079250258 5.921301668809138 4.598265168824136 1.7222454821675566 -0.3861704388537608 0.2492144583202805
Ni 8.279387776969275 7.122391111453335 9.409490042107484 -1.5418635692399574 1.0849880505611507 -0.5312014830858917
Ni 3.536004906106959 7.551747270827858 0.8715416350793139 0.37986018036501673 -0.2822071111962172 0.12382767068163836
Ni 8.287815127821732 5.978236558678937 12.71997373803231 0.4017037586026695 0.5939060612039644 -0.6282156331191115
Ni 5.701916337832273 0.8311543330438844 3.4595381224881208 -1.1810781461182047 -0.6822507084876444 -1.1882371257604891
Ni 6.509223644440083 4.6404266018795886 8.483777541993277 -1.5998128920612318 -2.2753597061661393 1.2098343923152903
Ni 2.3797851655611475 4.4912661479086085 1.2007960392143002 -0.9459841863597064 -0.7985974974112053 2.2496666722754095
Ni 8.785659508386557 3.433578774162673 12.287859037999143 0.9496575214462354 0.32307788126865006 2.0590491976627314
Ni 0.42687639767574614 1.8754328958347724 6.343298063643099 0.5387828949775754 0.1457740930457425 -0.9705546766102188
Ni 1.0572760605264557 3.623742585968926 9.12134685127421 -0.6369550698746386 -0.253976141374982 0.9506517670387048
Ni 2.206878228385522 3.1618012793178214 11.431469267896096 0.15250112735693092 0.18483454938231392 -0.5638064136051064
Ni 1.5314745011180642 2.6106415652146224 0.42871908089901656 0.4007467940060388 -1.4871111560894261 -1.2930203782161667
Ni 7.013777000629316 0.5170910971483593 9.483242158477754 -0.9255336318148383 -0.28991579269438456 -0.6207283236031309
Ni 1.9322032604167785 1.3354517610076626 4.616311764836165 -0.19635951930277795 1.1983868125999813 -1.8958707930976124
Ni 5.772653071289067 6.822296986520727 9.17099144283607 -0.21111533745571387 1.0454509116984771 0.39585115647663444
Ni 6.16230379454312 3.1577338485918527 3.8539143776193105 -0.6409914447275412 -2.852429155428739 0.03912164859181004
P 0.9156563489126088 1.3413381101931097 8.496419482301338 -1.1740276670293264 2.1333597354508482 0.19241313306052024
P 5.329257420689627 8.45517390668126 1.6571946717255677 0.40978267895606196 0.3642301871372437 0.3506311082965703
P 2.6529976865272955 5.43648220686118 3.1442912185498697 -0.4665516083159901 -0.6206000255553827 -0.04307394837133872
P 5.3311860226742995 6.321545992538243 5.209748079696272 0.3924817257837692 1.2494149828213903 -0.4357209960883786
P 6.858309743959642 6.467333678109488 10.957870430575552 0.3670378317893679 -0.8832466981211692 1.1541131874935866
P 3.8589223445738234 4.485946496936667 9.115768529988685 0.32465448172715056 -0.3989431651383968 1.0988313842021464
P 3.6884284449524802 5.335098068406244 0.019020037298131804 3.3877266629608753 1.0000213186107683 -1.5890978196365728
P 8.837603797859998 7.560083218742651 3.887719754113683 -0.0002712513835156619 0.7269236259149867 -0.4558182810588859
