# total energy = -340865.9589044115 ev
CRYSTAL
PRIMVEC
9.35625453684282 0.00000000000000 0.00000000000000

0.00000000000000 9.35625453684282 0.00000000000000

0.00000000000000 0.00000000000000 13.69382425937329

PRIMCOORD
 96 1
Ni 0.5400617331695262 3.5057605632760813 1.3360245170921983 -0.13853798030861947 1.1231553056594916 0.36472949537116545
Ni 3.9593985718815436 5.786038887361827 13.496126993398581 2.7308342307323614 1.8173752706938702 0.18004381286188995
Ni 5.3398952387624075 9.23851558018296 2.636157505571188 1.2248522058803615 -0.8305208284823631 0.1470917834159015
Ni 2.8915598679494 2.6031907421738207 0.7447138988626241 -0.6082890693985137 0.818385735781726 -1.3889901461452723
Ni 3.360673121810785 6.4714406808732585 11.362190784531954 -0.6500970065732352 0.31825012086270354 -0.20395532937216485
Ni 1.9494879395493714 7.495819581774106 7.881617258879176 0.7856424799124341 -0.4092910840316242 -0.8446001893935647
Ni 3.363573560764434 4.776555143926172 1.7225192351716134 -0.6218899480114 0.18036391520547002 1.3979519833242504
Ni 8.689106948578933 5.358654529414237 6.295009786199169 -0.47030130516640933 -1.1758678055618588 0.07616893115309462
Ni 7.617694155355518 9.221721103015863 8.47657307393566 0.06270817766249845 -0.5803679175082135 -0.7967499026795053
Ni 0.8765154586692683 9.127363274475364 9.504198595213657 0.8704359195097461 -1.502283235844174 -0.6733148394505952
Ni 7.372981313959708 3.403178586863783 0.2993823731702266 0.11294933320623773 -1.1934829475404607 0.6386946782735645
Ni 7.773307383346156 1.4639731712178332 12.10024677255775 0.6513995274347426 0.4192517947887618 2.038448490693244
Ni 2.325309977904826 8.308475795313235 12.992125201426669 0.2781542812830823 -1.1718684545944786 -1.953662764405416
Ni 7.975187290774846 6.9470846005077 3.831559385935772 0.8806581114583866 -0.20552987294813635 0.418870243079627
Ni 9.154720963186561 8.097857146004838 1.0378238388892165 0.8687621313517491 -0.10561886098309553 -0.48233355374059506
Ni 6.619802811479772 6.791939185251522 8.44411903329526 -0.10318222651714487 1.2556763903500696 0.2749676560249845
Ni 8.537339141265553 5.59384270353645 0.12243875573917001 0.37543736870697275 0.6720141183613008 0.8186919541682351
Ni 0.8294366563241933 8.16892725662394 3.435520352447912 -0.7887954237191189 1.46219819489783 -1.288786285530161
Ni 3.42474475392237 1.2795894600579314 12.406578036085639 0.42987379327898223 -0.998509509951932 0.15572734760371246
Ni 5.549840237733181 1.6527075408082093 10.715869131231809 -1.39457561065285 -0.5434034244687221 2.109252043769367
Ni 1.67874599760823 0.42201667463240067 0.763629438967763 -0.21436161230715342 2.033193155831576 1.3449435494480193
Ni 8.892961025747043 1.6705124934817412 2.5079964644641084 1.9429602903862473 -0.18485640375918486 0.4612152837047412
Ni 2.4250850779103663 7.738277565789821 1.5858954616981598 0.2276228481924338 -0.18683743874495565 -1.3581888444936996
Ni 4.176285911831697 5.86055209970655 9.268528573974951 -0.4780490674326283 0.49185434874683676 -0.7584121834415712
P 2.7629300784823916 8.960485115838939 10.957633816775054 -0.9764288760028086 0.36810329693940474 -0.7711784819683041
P 5.802870789547684 1.2654240904584952 4.930051051480646 -0.7687945551171598 1.1682879363320717 -2.0487593857009494
P 5.455697603050535 9.067838782142726 8.730881690140706 -0.09625824570380195 0.7185775679431367 -0.0969007643838073
P 3.124418334654004 7.269997018595775 5.7343848764737375 -0.030566559932947355 -0.5187444882694614 0.2826591111319713
P 4.874356074192294 7.038102246124156 1.7443745105000965 -1.0674986355271356 -0.4940374724410846 1.607523116221296
P 8.465632805327587 0.42430989265672153 10.40706033146222 -0.24770882030903144 0.6320087816129567 0.30129806638939727
P 4.552369925318449 4.067463313541708 3.3882768800203076 1.3845899601950478 -1.5590591071826376 -0.23194101595181346
P 7.8510859285774055 4.122936547593926 12.11594001854793 0.9058754912642786 -0.08185852533870419 -2.2809415711292913
Ni 5.95906410532905 4.572008703911062 8.725841475739639 0.2126878241491563 -1.3290505323668467 0.08802300227820326
Ni 0.7964530516683856 3.840125037103727 12.594032470034533 -0.3190960138027666 -1.3231740189814116 1.4012918463307609
Ni 7.021055150080449 7.34274189880424 1.6831630854469972 -0.12446710403785016 0.684013713925338 0.05225098688491646
Ni 9.095486514749288 6.897019281665834 8.389699313521046 0.7727373418149918 0.6118803862941978 -0.884850038052547
Ni 2.256120474478253 3.1956755703668884 3.4154315380047486 -0.9741758183025738 1.1982112062540655 -0.529576545887959
Ni 7.503098747922298 2.861526290397094 10.262316264544017 -0.18955663744833162 2.1601606576937766 1.6451915773063472
Ni 4.670838822192995 1.0690175920229819 6.796834377704907 -0.6749436333032699 0.5390307493223233 1.5614276074148141
Ni 3.32310775923368 7.280148554933548 3.5147528596578637 -0.1658567227282305 -0.2951122492936595 0.9305372556770167
Ni 0.8938816029978771 4.177380593630333 7.940638384709536 -0.3556303612833746 0.7009313156162832 1.1415379219317374
Ni 0.07467507555084613 5.683082660761961 11.361629409250602 0.5237126309080142 -0.07763831660976953 -0.02257145754261274
Ni 5.0008526375901665 3.3092885710577438 5.791364467530915 -0.6439173601250846 -0.5329989413059466 -0.10022982875704028
Ni 5.010367948609074 3.018739437939583 12.89020284096996 -0.07958746991634036 -0.09827630457509527 0.675367865324882
Ni 3.2071837636345943 3.119431450904665 10.387820129319365 -0.5510416577402704 -0.8511968687744759 -0.4941829968800135
Ni 1.6862871388877185 5.930377828451988 0.09287673342319976 -1.6649829010006614 0.21838307476172067 -0.46153487182768904
Ni 3.6038796062016356 1.5236099386067414 2.6343218084011686 -0.5356320080534195 -1.3030996168290396 1.6732685380482215
Ni 5.076413750460079 4.120026752385588 10.998277387144903 1.3173481563282539 2.223668448439435 -0.8267068540529117
Ni 1.2094456186530607 1.3108299944651427 11.30011671279651 -0.3130148406056932 0.37264489356350017 0.3945013273169593
Ni 0.2650598884683955 2.630127399424004 6.369340551577453 -0.5710607811746746 -1.3821908638352518 -0.5474153738415927
Ni 0.8674080803548091 3.5670814565090443 10.349792567760616 -0.6264413148275082 0.6925060676670654 -1.2609232405713058
Ni 6.450024213889699 5.6307531282853125 12.692518278143904 -1.1854893878120227 -0.1403529220301712 -1.3657265476316416
Ni 5.254566195996979 5.580257421727744 6.7125073898166905 0.08519890256584682 0.33020035124604424 -0.3537066618981005
Ni 9.012412329363954 3.6795249253637503 4.114679652830715 -0.28934012269657267 0.6101688029197297 -0.5778688052354435
Ni 2.797202039408901 5.004136682986073 6.915751439179065 1.0880450922199196 0.2646205084627056 1.9408936376652057
Ni 4.164506387178005 9.232359164597474 4.760164856961646 -0.6795284244604749 -0.379762735555204 -0.2120288504089187
P 4.248431991740055 0.4770295809539103 0.8472079264808441 -1.1016531699216576 1.0166913230672814 -1.0982400304750504
P 1.6300560482056758 0.9397609334917979 3.6443921890058357 0.0498277221554045 0.6255002910704776 0.1687499851156255
P 7.709217038725192 4.463663274610222 2.206965519217646 1.6813762547570203 -0.37576467013940446 1.4982736004641486
P 7.915194985707748 9.126530567808025 2.9000095015592087 -0.5961038401862315 -1.7688331001191084 -1.6602459005363086
P 1.2919210037382862 5.970020279570094 2.2527578365429575 0.10816682421592982 0.027573795853210577 -0.40923271998986294
P 3.2681023379159218 2.820583319877191 7.943158024097335 0.7964501120508993 -0.2692184122460331 -0.3530705709759984
P 2.868702537743704 4.270353696476832 12.794715712488475 0.16250271865433302 -2.602821832545414 -1.0607415193089602
P 6.019973323355689 0.2929836305882883 12.422257247693786 -0.2913147299244402 -0.010287497968937121 0.2821011817459722
Ni 9.273002734967323 7.6440881498337285 6.045454147376233 -0.8402619670295272 0.24749336186411566 -0.14367375887328804
Ni 6.020628261183933 2.112670377583565 8.653634580175801 -0.20555661242101372 -0.3818592130729166 -1.9453889544323981
Ni 6.036524537900869 5.23348655418223 1.2089357027724998 -1.5422680037672276 -0.5378153888579834 0.6993711702180149
Ni 1.6891782215866786 8.94635717125826 5.5001248428166924 1.0624330480787703 1.2180380111720055 0.44385545227005496
Ni 7.315430991366489 7.787931209425362 12.80442469797945 1.2538349662659567 0.9910617954246351 -0.15419291323705703
Ni 3.405218250386027 5.157195653446561 4.761192173726521 0.31185475885932096 0.3408084657791937 -0.5865568199277447
Ni 8.287003190801538 5.031737634319188 9.308815671041142 -0.03458262307087592 -0.4528396580465362 0.5037546997288485
Ni 8.654956618963382 2.0230093888970404 8.614524499949509 0.0767217183327711 -1.225842851928405 -1.265464580085085
Ni 8.572406383840644 0.624834078780948 4.69228522919156 0.6599764704704764 0.1277264915154123 1.1302510361640083
Ni 2.781249625163829 2.0965963320275334 5.34961545175901 -0.21383453615908982 -0.4797472810706576 0.9769261273542014
Ni 7.086258889009427 1.701303927663871 6.484162380374152 1.702459814900197 2.1060934435357277 1.0717900638136382
Ni 8.270012232285966 7.503819179533365 10.432557996741206 -0.6743790190490515 0.6315760649509122 0.5935013695663779
Ni 5.006616090478708 7.941588980185958 13.502754964220406 -0.40565888659567556 0.8505044706931417 -0.275028591169907
Ni 5.21207008719867 2.755744474881092 1.48498544799882 -0.33567988630337675 0.8152363915194669 0.40626875226553255
Ni 6.5314610547044225 4.743845677532758 4.830318990246675 0.5759132241709694 0.509450207451729 -0.9261499252425984
Ni 4.8806809023621875 8.514837348738048 10.844769316459333 0.2458298581187637 -0.5553785945527274 -0.0458769650377726
Ni 4.805016870690693 7.883533419839523 6.955230155840109 -1.1566164135314143 -0.2597804067615848 0.9137168416855684
Ni 3.2999884538966873 0.13596228626692777 8.686307557175926 0.06720555131221974 -0.21148274809746156 0.6697965418846917
Ni 6.553279840639618 8.911346066211305 5.978120924879995 0.6131834213763375 -0.04577103558752762 -0.003960527309644793
Ni 1.4849405379763119 1.8898418159057742 8.7721951683463 2.0339493172713103 0.1493978058412588 -0.6163713321860159
Ni 6.7074054241346746 2.586237208677005 3.271481817109658 -0.10925440085315377 0.44667569532766943 1.2236101059431443
Ni 1.048630313055233 6.143082922556074 4.367522143925964 0.052942870745618494 -1.229368091472844 0.9072566878825213
Ni 7.0018374029488495 1.2587717933744798 1.305292962940079 -0.31933769749992746 -1.489292737121777 -1.4963193049512553
Ni 5.572819199249836 6.935960013682251 3.999432114445657 0.29004229096991985 0.2905048324286352 0.2531081369477318
P 6.067549878450229 6.49734815010763 10.68755055516403 -0.44517545663305913 -0.2216326920472699 -0.6307841651772362
P 7.208900675475352 6.997075069312051 5.917484909490282 -0.834207276195015 -2.9145014992794516 -0.21655527752436254
P 0.3595178289340687 7.602031785005811 12.287578639570215 -0.9631313875629542 -0.5194026906787506 1.2633506190658759
P 0.37500336607014995 0.021365007582769362 7.290236468739433 0.32157070059550424 0.6530751153649527 0.6167318008492282
P 1.9007979901468177 5.5747465877158096 9.466267403078206 -0.3261061265720126 0.28025487256585285 -0.14135899469718236
P 9.32466797336104 1.6533437661270742 0.24572893065505647 -0.4740042079392934 0.3371595561726968 -0.27097190460203013
P 1.3495274638596397 4.276126505620063 5.492332953911533 -0.15699927233760058 -0.8013195243280586 -0.462740462100016
P 7.692366424029957 3.695720602230742 7.719934628471662 -0.17350524041242374 0.05801334328999041 -1.16602073756445
