# total energy = -381170.6110692653 ev
CRYSTAL
PRIMVEC
9.21564996487770 0.00000000000000 0.00000000000000

0.00000000000000 9.21564996487770 0.00000000000000

0.00000000000000 0.00000000000000 13.48803525576851

PRIMCOORD
 96 1
Ni 1.1879064567007107 2.159834947992015 2.0663265155965718 0.31318067675959615 0.07501553427494177 0.029118514632511146
Ni 0.7520384826016334 5.538872698926863 5.604763672424077 -0.5372201784761457 -0.22891199931750253 -0.3291356574269557
Ni 5.368788668819506 8.570738495906122 7.985482997703975 0.6186012499577991 1.131411889241329 1.2291284646582121
Ni 0.4711049321354063 0.8948589347576674 4.332249257768629 -1.4054827444836566 -1.4757260541809358 -0.20627857818870282
Ni 7.636197895281568 6.117753732259848 3.776582445926781 0.33877729428177783 -1.8649319374269109 -1.1872464797124456
Ni 1.016347922647907 4.6527142590123 3.0012090168234766 -0.5017489821527295 1.9413988594363987 -0.3049911989702683
Ni 4.525390843322919 4.444247048075017 9.316131573538616 0.7789426992947552 1.5055804185382071 0.4164019840447925
Ni 2.4804289683309135 4.342727451430965 8.101156910659356 0.20279370496389587 1.799375748792656 1.0896779998376525
Ni 7.7369986712522145 1.3608749851513484 1.2307131493669803 -0.45539610591980284 0.7034006030923822 0.1748697248601182
Ni 8.480231600604629 3.370550137598866 2.326186639987458 -1.1019925555389474 1.6102397438215104 -1.612019461429753
Ni 8.212074626825704 5.86593610532641 0.9039206830674076 0.5609501751032339 -0.5805540653770904 -0.4086889316712509
Ni 0.9056919309318763 4.119017555957618 0.5733516435375576 -0.6852689264886779 1.5395362066583616 0.1583599001305531
Ni 2.8987826002529737 3.0133976350625313 0.6303200250348835 1.2068655394949537 -1.063496456346278 0.8063709707090371
Ni 9.146873265640712 3.446072386554749 4.493700988840357 -0.5915540160320198 0.07107891822469695 1.2529060266937841
Ni 8.96503928221807 6.80101121363119 12.445261180149382 0.5177787819220825 -0.15397076992392192 -0.5012360470720528
Ni 5.270577490403051 2.3341673925921915 9.450822901130406 -0.2145001947675467 -0.8873226679627557 0.764256300927174
Ni 2.763303334615336 5.975620767568379 1.564908547037665 -1.412353503461561 -0.26743920885842326 0.1410607467304732
Ni 3.9288065469949056 0.281823782223291 0.38901745436241836 -0.38379576797399706 1.5598252959247008 -0.40605740758567493
Ni 7.192962009280083 7.362465453458919 10.67662963861891 1.4943940629040844 -0.2682894726738605 0.43266369731929355
Ni 2.3331905337283327 3.891814929263494 12.14586776185112 -2.4731384744139473 1.9160971474468165 1.0170674754597775
Ni 4.479174360282802 4.987426654628857 0.6638133821557208 1.996802018797051 -2.1186869639300223 0.2400790716779156
Ni 2.8672927253680127 0.2689246373955241 4.660669207797989 1.302972604332872 -1.7861582216611176 -1.7022983496216684
Ni 7.2019564833473115 1.2947434831980331 8.292282112068246 0.4054907364489274 -0.5090282894229621 -0.2527759504192937
Ni 0.35475735518994833 7.219337198604273 10.102726899231742 -0.04323361387765457 0.32823962797524764 -0.23596067863416784
P 5.190023496733328 1.5778482407239316 7.3464062623630655 -0.3483299709672194 0.0896206857826263 -0.5126458315708913
Ni 6.203956919170565 5.977869386085186 12.51897347551223 1.4575005323118446 -0.3926455050551432 0.35203878727737437
P 6.283865817364155 6.213836095605063 8.755663408224406 -0.45600520025871144 0.5842559397087099 0.16162520114538617
Ni 5.9899050245399 8.339610002457244 12.797839034194967 0.5134233331668642 -0.016704714349190585 -0.8879376758389353
P 8.317326561581671 4.289755897190767 6.521397344196139 0.014263451897549627 1.0928024043992468 -0.40774893635548487
P 2.1725894071201353 5.98373053926834 12.896517446049135 -0.7572320470905411 -0.12867060059623647 0.37882042624659273
P 0.7699509408439215 2.6775793614868886 10.40342893978159 -0.850167141958381 0.2722178611939892 0.7413925089551231
Ni 8.974402382271663 3.3822632283155127 8.380318291696149 1.2626538501091675 -0.13271674564115207 0.8784659889030741
Ni 4.047522545902738 6.646317318454441 8.319163240558717 0.8414161352386283 -0.47485601441662734 0.28767533339964
Ni 8.021190875437881 8.300941136487886 0.854418820923841 1.2196428937652803 -0.6167958213179442 -1.130056660765015
Ni 8.631285314166055 4.463922460097081 11.920793028663269 -0.08978960726032278 1.2796249307458671 -0.04306160707616455
Ni 1.8702608044054667 1.144261139915468 6.350693100866729 -0.37723508403734385 -1.793655044258795 0.2983235571421056
Ni 2.8350103046123745 2.907426879633159 10.308081985279166 0.3567171665896502 0.4019181886063207 -1.4824327767771501
Ni 1.5089981221211974 3.1910292822406463 6.525659582163447 -0.906497955339626 2.3969024374683428 -0.43307070294972516
Ni 6.170642345653114 6.759522358866164 1.5960122862019115 -0.7536697836605794 -0.6163505062504095 -0.2107803227137983
Ni 4.27369301983505 5.0844950924875905 11.720117649512709 -0.34369375774678873 -0.002001603811061069 -0.145757123764878
Ni 1.6872103552278324 8.366630287257568 12.968299984373376 -1.1270109319601558 -1.0746241908283234 0.8280926786568449
Ni 7.532641640062866 1.9054277235043868 3.614226659623501 -1.3049353844861977 -1.4571997132419743 0.37786011921585244
Ni 2.717400183663627 6.576656222681711 10.796524319118136 0.8143982118888878 2.1635977083997835 0.2712033038865458
Ni 8.000999387034911 5.262596737798317 9.732304782751347 -1.0551151742611184 -0.5771393832685867 0.5498057284506402
Ni 7.631884971241134 8.746250543662656 3.086722873139698 1.2314056907281632 -0.026274874536128943 1.3475131099474082
Ni 1.2790584474783364 0.13599165575868075 10.420855733286846 0.6528018070989081 0.13753422163445345 -0.03616616550791191
Ni 1.4693984755362761 -0.18233070693926265 2.232351052029118 0.4589673682108289 0.25055426017762655 0.18350143239318717
Ni 1.9502987216942826 1.404299126344774 12.209895330987274 0.09759804756114805 0.17686772912675347 0.4897565856775436
Ni 0.12632720396123903 7.484941437427643 4.322133239137894 0.9599547896071855 1.2142132381092765 0.18292576239537528
Ni 0.7011782336983235 6.893416532762446 1.9261859743613883 -0.9121782935538547 0.27648049312508516 0.0018956743608160899
Ni 2.9584262848463205 6.086577189463294 6.3101746540108 0.6362199914808269 -0.3549101952878984 -0.6863852994813082
Ni 3.02867718219723 8.832997453903259 7.843494718712153 -0.6439150461322395 -0.4177253308419064 0.009405095363983802
Ni 2.021010401528144 2.49302676141483 4.242431693061633 1.4139740697841197 0.05882041257231805 0.7804269971497656
Ni 1.2712435765674654 5.040988010447234 10.19665740838157 -1.25424120056544 -2.2736506938948327 -0.8048599333811495
Ni 4.684840013723735 4.077814386332023 6.907505417961196 -2.4518152874561387 -2.2787527910080883 2.4974071171533248
Ni 7.642105126713016 8.001358797371614 8.365157626442052 0.34770647845060765 -0.5702861077921791 -1.804320237282125
P 5.931192120562117 3.854436254246403 11.152689825575987 0.6225625485983923 -0.6482180443829674 0.32920173477820075
Ni 4.031044964312364 2.3861620879685304 12.050614806975219 3.7287955814903078 -0.6254043889225617 1.134953069625368
P 6.810807449218757 4.853707578076097 2.1038498763133098 -0.5165932462544135 -1.2152365371674683 1.1461425105832843
Ni 2.819546444484495 2.0157114029741923 8.387345224561171 0.450461644732663 -1.2291672883159477 -2.6687911974576872
P 5.3692494513024585 0.5920501966957623 3.5687723108101874 0.16010002275011137 -0.4332979884691828 0.8220621561920488
P 3.505734502447414 8.611370295252856 11.941550357955304 1.25589287723625 0.5901391379623643 -1.7455718155983226
P 3.200447676192191 3.9970300014208244 5.3358805054520175 -0.5130464094434197 1.2070069501688243 -0.489199427622493
Ni 9.055546177519565 2.419992737866889 12.729818324061545 -0.9096483280431494 -0.09825213620537918 -0.6954522947795828
Ni 5.04652661589232 7.545036688854283 10.455331478661337 -1.8455622746510472 0.11023244849570692 0.4200526934235024
Ni 7.1169789778412476 3.8044044922474414 13.784771524696163 -0.05736542529334636 -0.7867511395955805 -1.5585063200029612
Ni 5.498913642005238 5.32999999940458 5.54503889011373 0.6997254682336401 3.339165723333036 -2.5609491035710286
Ni 5.895619712878198 7.449332167145089 4.054098833499434 -1.0015403263584557 0.5300750827909323 -0.2026062715434382
Ni 6.4292611220349265 0.5956912998760515 10.7012722858072 -0.875530303313518 -1.228410355545265 -1.1620332136716116
Ni 4.144637062009767 7.204186670564802 0.16535271557240186 -0.3721790096706752 -0.393372870139471 -1.3144070714220588
Ni 6.811996268024773 3.5436753320937067 5.086540045146933 0.2095269099226714 -0.2607042041274349 0.6575915151780675
Ni 3.809261139617759 0.48603059832319745 9.89738471509384 0.09738875976381937 -0.6077303686815663 1.7615051989991275
Ni 7.773124017915676 2.5750644746796585 10.513383620558566 -0.3914903084047774 0.664468701913875 -0.16708956669406708
Ni 3.7125889746943646 1.4844752783784756 2.5062521402405267 -0.2690129811034464 -0.0019206140614805632 0.7586345838650225
Ni 8.379430824633982 -0.061382677684008846 11.96996957837387 0.6175689520385429 0.2728305550773237 0.8693128616488964
Ni 5.289064083619098 3.7805912535284656 3.131611381063946 1.3291353787711688 -0.532835933365521 0.29339063861686243
Ni 8.614005971055343 2.03080663711571 6.3019736473792145 -0.5440981365429017 -0.5328860698771661 0.13023434553893054
Ni 7.456160963542442 6.513123533932246 6.155777502753072 0.05760633765955886 0.3030433312152781 0.3555087481038458
Ni 4.807334428991777 8.08487101458189 5.902849390035721 -1.3867849109638375 -0.4616174042391663 -0.27382300089758005
Ni 5.256551271621983 2.5526243677598814 1.0121888999567796 -0.4295207808149377 -0.2267144774455515 0.0183281088852265
Ni 3.064599784568191 3.952850176955357 2.8964750015783487 0.31245716833001025 -2.1890107491562496 -1.935075745431848
Ni 6.625720341466473 3.5635442727586106 7.940352118193694 0.9529048247389397 1.012106017689444 -0.13756816019618243
Ni 6.339141284019114 1.3990093434404813 12.776824588277442 0.15999203641733736 1.3183133484550005 0.4924431313707713
Ni 6.552428279728078 0.571522337080237 5.455356795456723 0.03247097604451182 0.024957184165969922 0.7220210464070468
Ni 4.581449640198897 2.336674049299452 5.1767345299249845 0.26308658831668236 -1.3555478073264269 -0.2152319307272487
Ni 0.53139739846475 0.7729239094239297 8.265359513154309 -0.3449222308372511 0.2424437152553502 -1.0163336826175466
Ni -0.02638993436364462 6.096520875445406 7.928860203068862 0.4238646109704249 -0.782457140205917 -0.926312933183024
Ni 5.8889475825250495 -0.3077612281886765 1.6629805691442683 -0.7803557775921981 3.1553285048669855 -0.9063948541028582
P 1.9374889686682084 6.656343945283483 8.523790290283078 0.18445531166602425 0.42590760954238266 -0.3199748168632941
Ni 1.4034328552768236 7.941816484924516 6.306330806538012 -0.7870067072498123 0.05254769218972885 0.5232261781898989
P 2.1755568463103483 6.961861162780182 3.5456401086010154 -0.8179563615537913 1.0683704966091279 0.3253062563785365
Ni 4.030197124543732 7.840601004719212 2.457236864398958 -1.216957119403001 0.6921707958148338 1.148133572871384
P 0.460334602378879 0.8773040437221503 0.4490675491057292 1.0494006403748444 -2.169896396924302 0.46061338845468414
P 8.59336291581908 9.10640734798784 6.200760010303843 0.6275273488028354 -1.1998029762212175 -0.0010261272716692005
P 8.389171766323594 0.09826462918447754 9.792596327515726 -0.1361504539130494 0.14948470912811032 1.4095432877062755
Ni 3.8617442644260267 5.71860551422724 3.7444133776619486 1.382121186939581 1.6535080675918425 1.87995849274273
