# total energy = -381169.555192876 ev
CRYSTAL
PRIMVEC
9.24546669937486 0.00000000000000 0.00000000000000
0.00000000000000 9.24546669937486 0.00000000000000
0.00000000000000 0.00000000000000 13.53167506062665
PRIMCOORD
 96 1
Ni 8.464021343467774 5.0894167605208525 7.759874582162475 -1.0665380713860795 -0.09771708963751558 0.0988972259885458
Ni 5.083388716246779 6.87687981525073 7.866030106012924 0.38058857389060907 -0.8888167360097788 -1.499055987156128
Ni 2.508517000949286 8.656974233038218 2.776064164771397 1.236146033626626 1.6392518147831445 1.8231306851204083
Ni 1.9842805493717386 8.407429841931563 5.319707467270515 0.05769195539482967 -0.5539086948754202 0.7109218511700918
Ni 3.206540489673726 5.575663589518382 13.173207192294708 0.15984162688240214 -0.9095663098523045 0.16756239256542754
Ni 2.9762913875241153 7.647859281531489 12.204664122211168 -0.020295259913926337 0.37966863317950095 -0.10636422378955229
Ni 5.404696419708288 7.6952607891897395 12.264704182818283 -0.7814886056450606 0.574634871679178 -0.6436018857671948
Ni 5.969575942802447 5.73086723864244 5.528324951033543 -0.010942615054432768 -0.8251487655371724 0.6045838526327846
Ni 1.0417052215467777 2.489156993725495 0.7904707591313788 0.9724513794122994 0.2543654063936006 0.8868457283263371
Ni 8.340233790115656 5.094566485460515 5.548879472552135 0.03697349190055568 0.38267039612030224 -1.6369419357030452
Ni 6.61150718519129 7.778691880492265 9.449858983519231 0.15467782329327553 1.5359950262743223 0.8229689842770342
Ni 7.761754185538118 8.221660679969945 12.158318446847552 0.845446339443944 -1.7593393016960601 -2.0158256110874055
Ni 3.9684871350100526 4.413415973423475 6.313297431131499 1.3607296086376823 -2.5723267492803505 2.2067163939661287
Ni 5.534299371600885 0.1833801333720154 3.824308704899544 -0.635604469384015 -0.041252578891883794 0.9950932851815314
Ni 6.122754834724016 4.239813845610143 1.3498862114188226 1.353712296779585 -0.9386267175533706 -0.3085892007341718
Ni 8.347121662790787 0.8402502008192174 10.665030424519175 -1.106738554864365 0.6044254726780494 -0.9930297177842832
Ni 3.722751876174745 1.4116348342680363 8.420003676613682 -0.6898426619022894 -0.10507275867163839 0.9365806336576192
Ni 8.077847445793218 2.6258327276267837 6.077061889307865 -0.13703079963547368 1.212206234981577 -0.16784572813380128
Ni 4.020751758140945 9.215807220924948 10.48216341454779 -0.08297952631702483 2.7738444157453004 0.413215873007327
Ni 2.4003080589496455 2.577257045700424 6.92718902217922 -0.7898395487129172 -0.008491582410778924 0.14250622092774812
Ni 5.943522217703763 5.580535950457704 9.740573437743146 0.01668903061990674 -1.049935686942708 0.2699087534448384
Ni 1.1783624645147106 0.4102934711441937 8.347744807244885 -0.302949228839575 0.6865565349518499 0.14058123599089334
Ni 1.290898284919668 5.613662457565079 4.396873984443148 -1.5878768027452783 -0.8455065032579181 0.22055385716079434
Ni 7.421927812320519 2.9046390207693977 8.65794500703941 -1.1514837202905395 1.1376010487711763 0.1353744949789733
P 8.781972942525158 6.454602370198477 1.6539224585791075 -0.20855683269991826 -0.08367346706025588 0.37033604292466543
Ni 5.816924042481524 1.4777676574159713 9.717366391834627 1.1539910600934253 -0.8803796609860193 1.5428585861633752
P 5.891812322573552 4.622927493814269 7.667885886902766 0.7468735866743524 0.21435595588019857 -0.380684476038525
Ni 5.975770405476725 1.7171050533100836 2.167097633823062 -1.0096020203206677 0.9760370398810285 -0.24061437535609528
P 7.068094557085706 6.285262402523714 11.755331668019002 -0.24382774008707037 -0.45461346211750736 -1.125591168794494
P 7.966236172056064 1.8009891724798321 1.6350459892625775 2.477772630751849 2.365354487458733 -0.08144920571542748
P 8.62222052379551 8.590184981756144 9.079794386984473 0.36323285622098084 -0.43945140966508833 -0.9220688131946895
Ni 3.937690485505541 7.582669495984715 0.9942306747017713 0.10206791040704356 -0.5682971023866084 -0.5453350942737963
Ni 7.874253024076363 3.396571811773915 3.6814949056707125 1.998776626024919 -0.784020628038295 -0.43290743789898345
Ni 4.340848305467633 2.6718659062166856 11.293549268398204 0.2763863907493821 -0.09096897228040463 -0.40801273153983275
Ni 3.871529925957572 0.689718286007568 6.175288500935238 -0.3945933728101333 0.2651401284116014 -1.3292968440496977
Ni 7.423379350588968 8.350514749061622 1.9684929904723378 -0.06223355201892508 -1.9130925562925374 -1.1347797772722972
Ni 8.45668044292542 4.105948733578974 1.5348029413527262 0.3615384992376935 -0.032651981707066347 -0.3405446705948457
Ni 0.9896347532161236 7.124797004222053 7.651323557895747 -0.27436293256145006 0.690053749471831 -0.05047949680679049
Ni 3.653882394890114 5.0788491921078665 10.69829099089338 0.46025523378431704 -0.5815416261013404 2.8121826492038666
Ni 0.34589417299838926 3.221268518091825 8.319490661076832 1.4933442814833313 -1.533426494216198 -2.2439372259907997
Ni 0.7688335934647897 2.2626800419805195 3.1255058233341457 -0.436169653590023 -1.0756860564339343 1.3864002739309091
Ni 4.347458814142422 5.312935162928859 1.766032062970208 -1.7251827104190096 2.6927384523019042 0.23098328002423446
Ni 1.702423252225375 4.163529500049733 2.376283713786789 0.3787798028166444 1.2887487474240062 0.45082879826409455
Ni 4.125586104803106 3.232020995838371 2.419178980986168 1.476160056394561 -1.404147570612001 3.933452822025503
Ni 5.671816442969874 2.051236219054018 7.036105242379729 0.28250561627324244 1.4770902815183142 -0.6789931207822951
Ni 4.7918883973552315 2.5619465528816097 13.592567692610045 0.2182720031051531 0.31290942537608046 0.21924670831359658
Ni 4.236947750939954 7.172901167347832 10.069744410614316 1.263423124175024 -1.5590025429130894 -0.26413019908984836
Ni 3.2356822006428705 8.422509198083427 8.044025679591657 -0.08009217746690077 -0.8975695425017445 -0.9107891265158121
Ni 8.20626697795103 4.509217499141202 12.251199329641688 2.383364293772592 2.3209019135723126 2.255805695293612
Ni 4.720060366733631 3.3844417594923417 9.055167237394208 0.5405530995041207 1.6090410955277192 -0.7715870302606325
Ni 3.3200470840798766 5.422521679463525 8.583533793027971 0.24103809315707522 0.4648197132265478 -2.48315394966842
Ni 0.42365964232061887 7.758287135533857 3.5139596530915016 -1.1936783513807183 0.057051493597353356 -0.3110520604523675
Ni 1.973565053491904 6.702112758635965 1.910077358360553 -1.3409876501240645 -2.284360624113169 -0.6678124215751273
Ni 6.7985614670211545 3.7119624165614864 10.929628284470994 -0.8408659191621132 -2.6638341105627283 -3.1097536444506635
Ni 0.9248979955365711 4.970307413307817 0.215146632331052 0.2376087557605521 -0.8080614710375825 -0.33284241685458166
Ni 1.2939770253234513 5.958268737055218 11.358934133291886 -0.016989078358828805 -0.9552897800313482 -0.09432606167809561
P 3.7275040460472515 1.268108209558329 3.6561771197196 -0.9230581736911523 0.06317020490058153 0.35445896668309274
Ni 2.8323487168138963 3.168384448693504 4.639591522954747 -0.0705829524248849 -0.6658720100193048 -1.2121591837937253
P 6.288803416261399 1.0387466722098087 12.074530480531255 -1.5356294154047876 -0.004240263333592698 -1.7368719738314795
Ni 0.07477363630521974 3.7364259213915485 10.440471907109888 0.0987730417058557 0.03782349860567679 0.6315390410653897
P 1.7006203862231595 1.5928552266240643 10.922700656289148 0.043846050650672874 0.6594743340230772 -0.12395545450875427
P 7.0259259835672205 0.6684232026080659 5.558026937283376 -0.6426572624657384 -0.05807736375870643 -1.1282175506737473
P 3.019643380777389 3.4929003290922895 0.7871618066073125 -1.8778257626704433 1.17606629472591 -2.902000281488647
Ni 0.8387755488840719 8.970876317690628 11.703153027728215 0.9707238551982315 0.11957635160445214 0.6020780554917954
Ni 6.511018207867803 6.600597534511217 0.4854313788365277 0.44077629912409894 -0.5498373530195241 0.8811638474502115
Ni 3.260312123873137 1.2189962905646436 1.4874153018944936 -0.7255061767421699 1.0091176244850815 0.4849337103676035
Ni 5.151500069263811 0.18270059157118032 0.593804890143037 2.131360702742948 -0.40147364486973436 -0.8729530295046449
Ni 3.1103506543555226 6.674274658468423 3.950247678347639 2.264151496155146 0.2638574050444359 -2.023666190177747
Ni 7.726797076028493 0.5525701087590319 -0.019191739730250647 0.4134467580712105 -0.07896397739972852 1.9644014909791587
Ni 7.771036634082858 0.7013259694218321 3.3671675295511143 1.8794373301319371 0.6951095667281835 3.1222597473374747
Ni 4.679565222683869 7.774346511153592 5.361858474402313 1.4956634165348113 1.6525382474794057 -0.13462064753208428
Ni 6.9505292028079015 7.702000734398022 4.548172348442406 1.8377515203573769 0.2873883982868405 0.45094295524445566
Ni 2.377444019854882 3.376915949616427 9.511982972315572 -0.23864902409960834 -1.0913335331632041 0.3606684379279143
Ni 7.416417514180413 7.49379282480883 7.018148696997662 0.5025601652001151 0.09090392337042408 0.23950700122452948
Ni 7.147577834116714 5.550876493354589 3.1730968630592953 0.3693489964210478 0.819209260124286 -0.3835224597079524
Ni 5.426275338934805 7.208866032725362 2.771152048325361 -0.4188833557057495 0.16612951677364293 0.29630935492555416
Ni 8.381681217233256 6.29311180373336 9.631359513515603 1.0274305638616563 0.4814532080181709 1.7956561338492236
Ni 6.015960449126113 3.1355168146531147 4.671580837660724 -2.592518393736877 -0.001730352427545407 0.6029440030365164
Ni 7.099935944324835 2.8038726794455697 13.167429700167608 -0.8418437096943502 -0.18239662936478265 0.9845805585756657
Ni 5.493822718484479 9.218220287727911 7.970968926448546 -0.12160675177091959 -1.0004555779347093 -0.5231858118702667
Ni 0.4106568179846402 0.9114634079067286 5.236284696888 -0.366402255087898 0.3441575847570847 0.05571503417411695
Ni 3.3422639405071783 0.8703358739361885 12.67848966672677 -0.19546863205739237 0.9824162039344952 -2.4348192671187747
Ni 2.1602495166546465 3.5236599967300886 12.029144484608814 -0.401320921341954 -0.27949536869200897 0.7330027422295312
Ni 0.745938119783321 7.161233388400161 13.415059355125244 -0.6814626653687103 1.863068401855611 -0.0478464300593176
Ni 7.77149890741676 0.8550568157040793 7.464112103132356 0.9547804444950977 -1.6314361753934679 2.366611242683969
Ni 2.1341218278225393 7.790147013706342 10.028039959523067 -2.122933655021518 -0.1319685546212179 -0.9194740558843196
Ni 0.5887614880701728 0.17272935575892706 1.644234134047202 -0.8400344243997533 0.2926421904866121 -0.5123414129565951
Ni 1.4758168639469071 4.902639842691331 6.672036330985672 0.21559317072140935 -0.019649141689495192 1.270651266492347
P 0.777111984328296 3.356224595191 5.39503860521642 -0.7915650160444561 -0.9151456037122949 -0.8224938444128286
Ni 9.219671825996363 2.0781959998871478 12.5545255249611 0.4826400292374204 0.35489014068324043 -2.4510753239663203
P 4.384727290321554 4.788051528683851 4.293004864502173 0.15956523329256392 0.41055066747033814 -1.8964256371598176
Ni 5.6390412635962655 4.796215275760549 12.436692052149633 -1.6557788659038903 0.6451846568732823 1.163030030367242
P -0.17412357213397367 7.26189802959053 5.516051594018461 0.5618732011381355 -0.5178590003407145 0.5445709624142621
P 1.3242836650940273 5.486916354875991 9.137385323468576 -1.7537147564204312 -0.4489156404017817 0.532623817354715
P 2.283325169072556 8.888887519189874 0.37385616241941727 -1.6571973435179714 -1.7439394222012223 0.7718531394378255
Ni 3.2674681150819307 6.398630314929695 6.100159838709582 -2.2352232431565695 0.998377612359758 2.3699858155831572
