# total energy = -340859.913212344 ev
CRYSTAL
PRIMVEC
9.35114968603713 0.00000000000000 0.00000000000000

0.00000000000000 9.35114968603713 0.00000000000000

0.00000000000000 0.00000000000000 13.68635279420941

PRIMCOORD
 96 1
Ni 7.875940390811196 0.5197883325755581 8.242359581768797 0.4148436384187371 0.09731625465467111 0.937181757576728
Ni 1.259749485229941 9.113480895464063 8.956158087745901 -1.8282415239844125 -0.38874385600789174 -0.5372464037283909
Ni 8.38368911812655 3.2103993161257938 2.125421883985308 0.7623140895991387 0.9325956808679421 1.0244259727073775
Ni 2.910190005622052 9.426800517870566 11.490336493031 0.008168908964037545 -0.918574683998502 2.138394726771595
Ni 6.358491921689463 3.0951931516165083 5.9248220673145395 0.7465113182389272 -0.4583341055022042 0.31204733448610134
Ni 1.2857456814422634 3.3305148342363267 3.532721290364527 -0.022302777262258367 0.8253487973631204 0.40574116189683673
Ni 3.949392624784502 3.8370198586393656 5.288310813745652 0.47232399202339304 -0.5204010500362779 0.07198240387557281
Ni 2.7779086417301406 0.4819049548434139 7.124937400571378 -0.16864379855506442 -0.002393697043157168 -1.2987829917315568
Ni 7.1591467115798455 1.2047179691473806 4.411795756893816 -1.24994231607977 -0.6984574001544939 0.15151588062552615
Ni 0.049666761490110935 1.197078079828867 3.108554074331676 -1.2373737353861398 -1.128746426594024 0.1128914833851088
Ni 6.7300972602799245 3.7977824344282483 8.322670995995384 -1.0355241395030683 0.4255509975339123 0.010466703859278748
Ni 0.22870013350544957 5.9634058461604615 3.418111729207165 -0.12499700839939118 -1.476186281646806 -0.129603396823151
Ni 0.6754980669675965 1.7165437977392004 7.655051272664076 -0.2396514972221937 0.3302000941357281 0.41382522445655184
Ni 5.168483311046392 1.023137343949223 6.041073690362147 0.701186883270515 -0.6458482585992104 -0.16614751449577192
Ni 8.323888515688493 4.355597217326616 9.972465351942073 0.3313565763376745 0.4662880702419583 0.41754895316504215
Ni 3.80184083340528 7.156678008054646 0.3939564566432289 -1.560714897618506 -0.8823406413671321 0.2419225526445576
Ni 3.3820116157259883 3.6516239643568094 2.7458931104452025 0.7777193684106154 -0.6101577471761362 2.551395398444322
Ni 5.184847823050553 8.947114590854916 0.194852711991017 2.8446433408357334 0.09314978198180732 0.3704846526873877
Ni 1.6028712217834478 6.551415491493932 9.735349183691628 -0.3209628918081762 0.9289436859376519 -0.06298817079676249
Ni 0.6466385487120317 4.106725718767353 6.051366500855278 -0.029982148184387075 -0.30600189962296975 -0.6760147548802615
Ni 1.8836301408765306 6.229043956161701 12.596645767905136 -0.3098241015825374 0.7717896331897417 1.339972064375357
Ni 6.623288428216203 5.24089861445223 13.537171314797472 -2.0125883350970306 -2.816970557510813 -0.40759878393086574
Ni 9.22470347019405 7.426252952086601 11.818754481770027 -0.4859693507209695 -0.17912952857773667 -0.9196933709839773
Ni 5.332455721328075 5.57770832494699 6.189667199819805 1.5373700522449782 0.38338104903408166 -0.21339642018040667
P 7.0845338879905935 5.421562826978154 11.3783817232782 -0.14646674823739292 -0.1629529188178742 1.0922246775189062
P 1.0178632955090252 3.4278135470382027 9.399937470079509 -0.31006655661064664 0.13451831762626512 -0.9525489840614176
P 1.5234706095392643 2.0933577267218433 1.747925321073349 1.841528470901306 3.0021298372223977 1.1536545026896132
P 8.37245838731684 1.5123988482747355 6.381535959936235 -0.8841093032317806 0.5414858957310352 -1.6709797420140449
P 5.748217188880618 6.798388706660712 1.121067259356974 -0.8173673218195406 0.6760978015123711 -1.0197059415238892
P 3.398918494413715 1.7534527856708684 5.283917643608765 -2.4685770802955096 -0.9355547634962663 0.0886935459826666
P 2.263370979720489 7.816373567116054 1.7641159016927788 -0.4623504257504489 -0.26662674025945693 0.7049460932026311
P 4.163636815942962 4.5675316745050605 7.547571963165669 -0.3303222215358892 -1.4672696958834666 1.0066570787597307
Ni 9.000135609748394 7.523327237295277 6.998817509227776 0.5229667538809252 1.0223806601425747 2.1729045876230058
Ni 7.250759925353991 8.824352697374566 6.424538157023281 0.4575689452014055 1.7731178435373915 -1.5802018026985236
Ni 1.2544847879394598 0.5093945296654875 5.0083018568598465 -0.685591085714787 1.1305120031348788 2.727379953635174
Ni 7.755983842245847 7.113447642914515 -0.019595334231266824 0.7797302281930572 1.1986274678558775 -0.13742674952231168
Ni 7.487942486767425 2.517909275008049 0.2245725360205146 -1.536694366334192 -0.3514528328669173 -0.3824801344863671
Ni 5.11892221754808 1.0922610426547943 2.369298933480901 0.699697443209182 -0.7472546241628549 -0.5589735109928373
Ni 5.279612374279213 7.980523649242353 6.225729908702116 -1.6733559555557052 -0.08657084321270897 -0.5841746928488133
Ni 3.3618037811882804 7.008621254590725 5.125511972753412 0.7161735864873343 1.0581192511947648 0.8576017438595553
Ni 0.4192943319154983 0.8004387783319277 0.8347864863562017 -2.962731795040749 -0.7964328856597186 -1.0171379236863967
Ni 2.6717730924460183 2.8235796569463214 7.372961684966311 0.9787279564496307 1.9058962956544143 -0.6571256312852425
Ni 9.070287934922797 7.812754672175705 1.8383238204992995 0.9961394670578586 0.5569711358508279 0.2588697220218574
Ni 7.470352974150382 6.777890986481788 5.3689233349931165 0.27077110144513367 -1.1367327872336102 -0.8396898965761409
Ni 1.189176358318287 4.483399380504245 11.363135608780151 0.7078568390915229 -0.9279669238466792 -1.7478402999175255
Ni 5.344621567109453 3.6355680402932995 10.82383890766569 0.8816400157556816 -0.8980475105794276 -0.6909140405895972
Ni 0.4843203568152279 5.082041283065562 8.140081381742798 -0.5542527084784004 0.49468847576152225 0.09751140138461271
Ni 2.470723373537769 5.418009390085822 1.3836625052404108 -2.062474678404512 0.11518567873592421 -1.3857153320487425
Ni 7.066056016150467 8.552103324523648 3.1679394857223144 0.305966418399344 -1.2554401059695475 1.1931749293817386
Ni 7.454072622493673 6.531048687411041 8.503290323002668 0.8550830912027596 -0.9603507394940236 -1.0618386090278809
Ni 1.450241756108078 7.938911033003204 3.8002894776672855 1.3719977253523339 -0.26374196251249415 -1.1572465909162457
Ni 1.4373652229482337 3.6218499036589553 -0.08132788420078772 -0.15372137291727722 3.286621116467101 2.5891859869295346
Ni 2.544690967796571 1.874858762442301 9.540345918190173 -0.08201973350691681 0.16392710980568545 1.2492704868237259
Ni 1.1758696722714759 6.506969476890634 5.925848823553428 0.32026715129273226 -0.26180232228762007 -0.3490843326347407
Ni 6.444681468627944 4.637702701978898 4.1327855027977485 0.3722525432210879 0.7279854915205979 0.4020565139563979
Ni 3.2299712724827687 4.740210005172956 9.585497009482108 -0.04906873250219291 -0.868802240561065 -0.5969885567840298
P 3.184861326249588 3.0398436964435813 11.43921749798989 -0.05631975763765139 -0.7947269587122054 -0.2651964355708336
P 7.416826993172205 0.6537931133602505 1.7488146154114035 0.6989183989513124 1.5777674822254182 -1.691988483055228
P 5.780076555965288 6.986356167115351 4.0361600727754725 -1.5690810101950137 -1.3413067240263803 0.46040384354703934
P 3.2980195889709236 6.986861129200051 11.080813177454443 0.5665045292625599 0.6040894294948693 0.0953673584584164
P 8.966228340875775 2.3386944906882077 12.261220027568442 -0.030620810209650493 -0.8590747288606561 -0.6085963162262874
P 9.560896004807509 5.712542552711549 0.8529894343946574 -0.10874737930974819 0.2634622264885463 0.42316629935181954
P 9.072111409117548 7.781746259715252 9.634658808887517 0.12036773715749594 -0.41104380505667276 -0.30792585611856
P 2.3759027154108088 5.167277012732944 4.830817035237587 -1.624718654163976 -1.2286186149013292 -1.4282475489839983
Ni 5.64176370050613 5.921306970136046 9.915666468563064 -0.7204485597136044 0.1585643028318753 0.26735359112315243
Ni 6.60527811386191 1.736097051796742 11.709837900560169 1.3630577425502266 0.06342320145165206 -0.3814249537489754
Ni 4.101161784685939 6.704811751446068 8.187805909436758 -3.693472480708981 -2.3315887038621974 -0.17266474678899937
Ni 4.497042707940857 1.5030009428094895 12.77155715312537 -0.20380440561659738 1.2232694347742739 -0.8778566374538493
Ni 3.395813912707783 8.936837677316305 9.410189135513885 -0.020895355391770464 -3.473913383361288 -1.7157773579447098
Ni 7.961737189461577 0.24108666642014104 13.100932699595383 0.41236818029505107 -0.4563715824591947 0.46017347270378817
Ni 6.997839378967413 8.355467348281662 9.877276258516275 -0.3510049466962213 0.3353566986360031 0.6589135764236007
Ni 0.6980689370387053 0.33436157949893713 11.320967534247833 -1.6731577235019703 -0.13086837957850367 -0.35078460315529914
Ni 4.191765074290684 8.123736507153044 3.079197074911185 -0.15475804171190766 0.6245168441112857 -0.8692601540340901
Ni 5.31929865367673 7.083177971281677 12.373721839579668 -0.06134060789101049 -1.5153673227216418 -1.2449448628651787
Ni 7.278299061269562 6.110396568556683 2.261245463389891 2.0284129608341135 0.06419144707624429 1.329625688144026
Ni 4.950676331845884 0.5557341520864097 10.536096549964205 1.876649225863839 0.17629385890115445 1.2571059237077447
Ni 4.581109543893655 1.1425982815795899 8.338930775122716 1.9024255634969947 1.1243804363158445 -0.6171724879310726
Ni 5.732451150458325 4.472393077287733 2.0002464587630886 -1.1631333887143258 -1.4637681104881113 -0.9895684987085602
Ni 1.2680907107772041 8.401998669271777 13.562163197530227 -0.9911731241915188 -2.1539797256940454 -1.595212160064427
Ni 3.5715874739318925 2.4487575228533283 1.0906685418580464 -1.6446783851153546 -1.893836793386719 -1.5268524405431059
Ni 8.644754515916343 2.8797052575457314 4.516660484931443 -0.7293744014483245 1.2730465061974012 1.7231625946651872
Ni 3.8671025072778695 4.9895397100683345 11.937291525808387 0.26411785779467417 0.838488162958556 1.2609787763995897
Ni 1.792334866192752 1.780608524448057 12.814148834739854 1.1634666036840284 -2.421516379362281 -1.9386007278659712
Ni 3.040797513714681 0.14590318368417413 0.45808477117015883 0.3399394329106791 1.2800185666398598 1.477883981064203
Ni 8.698149580798487 4.445218636211112 12.818090344345428 -0.045816544113482384 0.8656017313458965 -0.21489717309564924
Ni 8.653600703548305 1.9601131944091152 9.863015755198365 0.563875576280145 0.35559205184627146 1.33092512368174
Ni 3.7567682917709653 5.723324428334861 3.122404997291997 1.61239818492541 1.7134399680607844 1.3630158335686977
Ni 2.6648812951048377 0.9205945063862425 3.2896652718140573 0.9903971652574426 0.19279519899028733 -0.8898855435939256
P 5.380006317637305 2.5430077608475723 3.8506828234903816 0.7330955590536536 1.569919189825593 0.8005469078280922
P 6.421715044923819 1.7464113699342212 9.446964402004605 0.3015258661294872 1.3844868589582802 -0.07894546545696728
P 5.118183476720464 3.358717901781782 0.19764215995149753 2.5127339773183825 1.2008067348953837 -1.686502520239992
P 5.599122457798147 7.905106626777467 8.313418968465717 2.8322691355410967 2.342185762651753 0.4764632110027472
P 6.481936449099128 8.7059016839136 11.892427514812752 0.01332782745715769 1.7011981745789542 0.7826535724874392
P 2.3617076701409143 7.784598360378834 7.357030131194033 -0.8166823799373742 -0.911252696415792 -0.5858952750843458
P 7.631585497565081 4.841202422112913 6.445163987953324 0.9019702426726014 -0.2446450937820432 0.3504153927413384
P 8.916311903688229 8.358871166778528 4.657657120359285 -0.4075118806440143 0.07544156606876685 0.22766167185016922
