# total energy = -340897.57095463714 ev
CRYSTAL
PRIMVEC
9.04320372907041 0.00000000000000 0.00000000000000

0.00000000000000 9.04320372907041 0.00000000000000

0.00000000000000 0.00000000000000 13.23564275853973

PRIMCOORD
 96 1
Ni 6.405174439227531 1.9384287581532034 11.45141131399767 0.3023190514547439 0.557333147175937 0.2529669833841772
Ni 4.671492851678506 0.3627599698040299 5.94895838709976 -0.377673200016027 -0.47688898568625615 0.30732473219945133
Ni 2.58891542962218 1.5584785628025333 4.7044499025397695 0.6583607892439243 -0.22296812302924182 1.025232527769073
Ni 3.294122525512599 4.240701766210938 4.84305417837269 -0.13220946698743036 0.6079823367913724 -0.11590430206950361
Ni 4.957900149951767 4.579360694348204 2.772271806650671 0.1630331372365063 -0.1867883306745751 -0.7357394244344038
Ni 7.0872128477327685 6.056260518313218 2.8093046293325825 0.28609693316892665 0.22648616348482928 -1.1454578258114338
Ni 5.164085189913574 4.518300984268286 11.45608393724979 0.16789149377007215 -0.017128175039854372 0.31461175277916786
Ni 5.749243759247283 7.937156415754271 12.304462126744214 0.2465924473164011 -0.35607670479217385 0.5945845753282276
Ni 1.8190675150630333 6.430115594500104 0.4602429906494808 0.7005461643627225 0.29672818763052766 -0.8230414893861826
Ni 2.8666683821391494 1.4920652762464148 0.3495939698180477 -0.5976457307520545 -0.3426717442401776 0.5623341999349541
Ni 0.4681340900297734 0.25527968748148355 4.840407232706163 -0.23121673619127922 -1.4369031677764674 -0.5622190145133285
Ni 8.69413585172282 2.3060892399377293 1.4007940318899885 -0.3435153231873955 0.7314256275503984 -0.12071509319458566
Ni 6.8668932806893705 0.6385821983722344 4.689520477869903 -1.1540157426837738 -0.4149341412500144 1.0946263449818632
Ni 0.7327391289677752 7.401138614278126 2.491304899607279 0.0895623217408651 -0.5677854528575125 0.33573310813881535
Ni 7.572932351302442 3.927626060795248 3.863854293983552 0.44009058591098404 -0.5231711565822473 -0.14811971045978362
Ni 7.862993103792571 4.01975821812555 12.691803332321234 -0.8692239014795159 -0.8285436501513344 -0.11874305706987937
Ni 7.89479805052703 8.81233956476408 6.813695731738523 -0.5209229839780191 0.3401078401677433 0.29181378104804584
Ni 6.971767311761171 0.7063384006491569 0.3458790218173324 -0.4764745238566568 -0.5009195442728985 0.606360227806917
Ni 1.9519573905998202 6.603708929022334 9.223562062162642 0.34466794873459994 0.23283267452814738 -0.17731073020144303
Ni 0.23173299418970505 4.841902978566237 1.4655695942909719 -1.0552815246356535 -0.23415782109747416 -0.08461706192044782
Ni 6.430531581861431 1.9242309286470616 6.819916551431055 0.24504232922046185 -0.6223429763884185 1.40936433892625
Ni 3.4114128749996437 4.277986894270698 0.3490830288198968 -0.11898885453209829 0.30743786073854795 0.11066336538553843
Ni 5.816507106933068 5.422494730128863 4.846627148078344 -0.3968379458699359 1.3397275524647183 0.5532993434261955
Ni 5.522358826457732 2.988290426106094 9.305636368552351 -1.2846288117183617 -0.564273325939196 -0.6046213907389394
P 0.28442593238485636 5.634738716440423 12.359403205331228 0.5804345090800906 -0.48290793818682637 -0.4285301347668942
P 4.056157112241614 6.14175496426931 12.664458493556474 -0.1023802994411398 -0.06693378570807182 -0.45682666771874225
P 2.2728373806421347 8.435373626570753 1.248199015911238 1.0702080640384988 0.7996169398146551 1.1721281360137685
P 6.314425892033815 7.529588276892928 5.631514814390143 -0.22214279891446906 0.45971993010613726 0.7920553254173134
P 4.7343069432388 0.9520684652271463 12.526992757045097 0.6364740164731619 0.5327472303064568 0.634648790338965
P 4.0716571630527785 6.072303161334807 8.214317942761877 0.0844784794600545 1.2821803501778692 0.1283543549073983
P 4.622867546420847 1.0542476216538326 3.8501692141162627 -0.25521978397409595 -0.33709502148334847 -0.6750801588811342
P 0.17773783468953172 5.510240933758222 3.6306825261158684 0.12527340198922943 0.1853819372453517 -0.24338525323301308
Ni 1.4111828640789412 1.14075490640272 2.6693375427311423 -0.39957179986133123 -0.485284665949119 -1.4123902702367677
Ni 1.8179280714211392 6.398373950190194 4.867367735321871 -0.3477442736670785 0.38358210930129427 0.2062104439549287
Ni 6.177584136564428 5.449434433376505 9.303796076638656 -0.6804401376414669 1.1257642040372484 -0.5424878546329883
Ni 8.678292159178385 2.37682517777024 10.03816298223771 -0.358962253870085 -0.6637878737967665 1.1602239283770148
Ni 2.4057362993824283 5.183347213383689 7.062406436192452 -0.7734387387573906 -0.1543222397260697 -0.12021372807813491
Ni 0.5791511692439453 9.172883045388522 9.251595088714293 0.44573055780558074 -0.05134878678562124 -0.28746373160946626
Ni 1.4069144720235915 1.337019552117241 11.229092294658853 0.6927176694572392 -1.0847530517322093 0.973452052762672
Ni 4.013663098961767 6.851140020180008 1.6644215005288732 0.5025789342531926 0.8207966592160638 -0.5406947672883076
Ni 5.654814628226178 7.875906798400705 7.838769074558111 -0.42391474748207 -0.13556809904701814 0.6560532241566701
Ni 5.103242516717826 2.800598737316301 5.022066200436372 0.31726050325592453 0.2387516111157436 -0.5192530524747637
Ni 0.7456012773159189 7.533241731109794 7.161607665704251 0.4609075226563352 -0.627412420491526 -0.6008583241520813
Ni 5.005865301353408 4.483629342022078 7.066972349643185 0.042032394480701805 -0.1810869094144236 0.37883071065923785
Ni 8.32835635626777 7.211728716821984 9.172630740010673 -0.05103176976583469 -0.3508193130479764 0.22531425466391516
Ni 4.642391822792668 0.19887994016877322 10.394929116757236 -0.10569702251919862 0.25789501681341387 -0.4284663714084943
Ni 8.270651674688986 7.149285396605481 4.747532628367929 -0.0663275195826406 0.09754893949076748 0.5942696151909701
Ni 7.251464553032168 6.030623036370598 7.238665707108574 0.16859494759499996 -0.22528237298471523 -1.3947033944799658
Ni 2.3792306699031274 5.231547488076514 2.5780644897340146 -0.5998347679835735 -0.2971737598083785 0.09467084661202405
Ni 2.3263460157936255 5.388148643208909 11.358047472349703 -0.06516923760848133 -0.522668763024532 0.4864673734033106
Ni 1.111762395958968 3.385721133835982 3.7207636848907604 -0.823550310701801 0.18447279516752102 0.10124310051290307
Ni 3.5124345013774216 2.6757663561043374 2.713465662884722 0.7257949116271822 -0.13942886755400502 -0.11441614755975135
Ni 1.1626575452969083 3.3226538325774895 8.22093575908837 -0.04998944454424939 0.09068152294697286 -0.6285241654984659
Ni 3.469352679869613 2.6216066103003346 6.952073927483767 0.5520289613542042 -0.16183088939828905 0.42644651276498813
Ni 3.9444735489289693 6.918728923192049 6.076615865087342 0.755576256654673 0.08195674147946531 -0.34767176855793025
Ni 0.9717012600410534 7.569875748517044 11.371534506060188 -0.45394728928841815 -0.23625069907076082 0.16454134635091663
P 0.2957398842925852 5.567050338189804 8.021420986033398 0.11772052934263598 -0.31335345489203453 -0.6122848208214681
P 8.474024278360085 1.5956461292167008 8.013175393075628 -0.3452161079285861 -0.61397223582622 -0.7533167711965348
P 1.8806607741498695 3.333017343796622 10.391196986669856 -0.28356542499632453 -0.3610224788332234 -0.08009449145974593
P 3.77985107228578 6.221814444917638 3.8473495432627502 1.0076217566658452 0.18461703405486915 0.25226044423545585
P 7.089753987918263 3.8668466900240506 10.436079309995929 0.16342651602018304 0.6446066728826254 1.0048187399994115
P 6.495371351007314 7.731604400037963 10.161703993988858 -1.3972148480479096 -0.08397839989518441 -0.5615998928720909
P 2.2668598231239434 8.492825098451338 5.842675424921554 0.35483974706127924 -0.2180668290728825 -1.041347945273697
P 6.843082525855185 3.985457347223132 1.615132424133793 0.41700285085358507 0.23792911521444832 -0.03989143687829904
Ni 5.210259787020809 2.820900729189733 0.5342543767922621 0.6310890980121648 -0.3862887095991799 -0.20460196181722826
Ni 1.3056758087616436 1.1056582335916776 6.935158615323743 0.009579673268635115 0.5818154485880173 0.5960467616960509
Ni 6.706801449003236 0.7931658148021956 9.257974164468198 0.7019291607531782 -0.5411917615293841 -0.9290187621499613
Ni 2.845751452427235 1.6375071182510517 9.114910684985928 -0.05979640333234218 -0.02980962716226479 0.9508628546082462
Ni 6.255120563434275 2.1869902497492646 2.775567150008657 0.3502408148366871 -0.21985143177713104 -0.5338566613205515
Ni 4.294047623699301 6.730648376651451 10.419891975718226 0.13380817893311794 0.31403659700198816 -0.29860766404142763
Ni 8.229930129296529 7.004196239537621 0.386921600934291 -0.31873965890461237 0.6042077002402885 0.43463496211305147
Ni 7.703136395397621 3.6488693126889906 8.209459933837865 -0.09795363112835388 0.9098969537188459 -0.9192197737816685
Ni 3.3214420433075382 8.255495265611092 12.397177570700723 -0.8654266392206127 -0.13729330926824096 0.4019904366051529
Ni 0.17634065974768529 4.729034755594163 10.033292312828788 -0.32180184276970386 1.0621270868025774 1.2156689967191967
Ni 8.646125484303642 2.3613432133660903 5.610417020608088 -0.4011463434373027 0.32521086845125285 0.3552462384710785
Ni 3.635801883621236 2.636500766476523 11.522116504938259 0.36469118593406225 0.21077132385273378 -0.2735682045742966
Ni 1.223373613643556 3.3247337693841215 12.62771595770714 -0.31287677236593214 0.32530574215790425 -0.006677926240807854
Ni 3.0008876085914795 8.571039765584217 7.837737245037951 1.0071486736841688 -0.4661692852759069 1.1257541767349193
Ni 5.358921009473972 8.012224048066681 3.5389066710037462 0.19656186512157114 -0.9070515138502508 0.7509654973555389
Ni 2.760474043355313 8.378555178935663 3.5569994082603946 1.0932137809050528 -0.39705057610137423 0.10816399600245244
Ni 3.4836228550038117 4.303515857771232 9.335442767311742 0.39035156681464384 -0.09061107472035362 -0.1340228660470853
Ni 7.391579948171124 6.128144942991129 11.373228298077068 0.09410134726179922 -0.3349196110985845 0.22726006553637634
Ni 0.5469365653906145 9.02321802734607 0.16494351036769123 -0.12112209882501719 -0.2745889325293271 0.3111014256330642
Ni 4.841170479082162 0.4923382242165179 1.684248724218183 -0.42624648093904005 -0.614277939992097 -0.7284860853061003
Ni 5.985976740656062 5.638437386674827 0.4266628630665784 -0.06201089448515773 0.2652350021182529 -0.036646447578440114
Ni 7.950540356944774 8.92123782139654 11.262578372925281 0.6275872555064933 -0.24083626155891427 0.15160869744964856
Ni -0.027352073327564844 4.835355699227099 5.8031412521495795 0.19172433452361173 -0.13013304407437587 0.594343405851699
Ni 7.8264133456063645 8.629703026734754 2.741842331169641 -0.2607641108310928 -0.3265298443729925 -0.8933354498157389
P 8.325082716598201 1.4949319717581646 3.474104883312592 1.199841799878953 2.114356197765152 -0.4212798809623841
P 1.8321892033518308 3.2611510055257247 1.5577560108423163 -0.541585397423377 -0.7259072688353305 -0.4221725679799826
P 4.760695011072508 1.1389191360907793 8.175987420376696 0.3140034297712076 -0.3855605731839037 -0.45937720205473787
P 8.588185679433673 1.5981601397916738 12.442800532394026 -0.21129634311826836 1.6952812948738865 -0.33404286492058605
P 6.384158034277038 7.7284483220139855 1.383772914248931 -0.9763412013850089 -0.19053828463531053 0.03543905753390025
P 1.6793409776748816 3.198327870761923 5.9603935179344845 -0.48060628663684324 0.31738391620766626 -0.19981405351028167
P 6.822319330602891 3.8746238450401536 6.035704412421236 1.1494304373059365 0.6201184579332739 -0.26066795157286077
P 2.541312006360823 8.613045445874683 10.252156828427893 -0.4985009075290769 -0.105545841653315 -0.6486037098571603
