# total energy = -381167.56482749595 ev
CRYSTAL
PRIMVEC
9.21130070755860 0.00000000000000 0.00000000000000
0.00000000000000 9.21130070755860 0.00000000000000
0.00000000000000 0.00000000000000 13.48166967805182
PRIMCOORD
 96 1
Ni 4.415372598080351 5.023530316129971 5.851638240000354 1.4475886725147715 0.06286372940375624 -0.05762870625706205
Ni 6.594563737845934 3.3912233209552745 6.020441776550676 1.731032227221251 5.030144019956195 0.9413873110176433
Ni 7.067895644904046 4.548420628001874 0.5022424960024282 0.11898679764956928 0.7024819479328548 -0.6338458348216954
Ni 4.069709321229405 8.073944715798454 0.910315099710706 -1.1538334514696384 -0.4635889261432403 1.07861582848622
Ni 3.2230341781736978 0.6630257528758832 10.43176600789394 -0.0034146821085037967 -0.9055893274824275 0.47250525479626365
Ni 8.989676981557128 6.8370604448325025 6.841327119400465 2.447531315368804 1.075299105408161 0.29528836986020757
Ni 6.292912056603201 3.6661345957411964 9.028135083864338 0.7278096280643659 0.7442448908022538 0.3017791197908738
Ni 9.07150096728081 4.4403444347680585 6.1942203367066915 0.9811252530372134 0.1913075587011673 1.388807083600189
Ni 2.6860337594278554 7.198364510578959 9.49673054000957 -2.3676661663110448 1.4828531521440205 0.48239217489267244
Ni 4.894083904852821 2.037337106202064 9.638882098591537 -1.5446226200423334 -1.8070080685269332 -2.106406346790456
Ni 7.472483613489137 2.3923959099513734 3.641574504202858 1.5470643967146067 -0.31983623440290077 1.2442995159716959
Ni 6.876217684876562 6.60991897641414 6.158844335674178 -1.9102350322390842 -0.8546976828388828 -0.026280016742451517
Ni 6.517345402562623 1.7911743014649564 11.081918967788978 -0.6485692570747992 -0.1436922708160493 -0.706205676641345
Ni 8.832965119672963 8.97172415614055 1.2483891857660045 0.6447974487371928 0.5756275746097506 -0.32644191264487654
Ni 2.2445453195144887 5.282073109250804 6.389880342104922 -0.7896462017551885 -0.10210699117509513 -0.6633466724942898
Ni 4.471266771824729 5.9150552831740395 13.085645879337369 -0.7928104584157829 -0.35113015942017595 -2.507395595824604
Ni 5.030015071950018 9.083595405337233 12.586729584082978 -1.4811359123425976 1.6497511716525717 -1.1567719652726725
Ni 5.916759373836978 2.09221803684956 13.443854026857805 -1.8178997757387725 0.4060268114580556 -0.9686559169256093
Ni 1.1007873004528996 5.051385289993354 8.339896158217671 -0.2989249381715303 0.7736822222267643 -0.9067278119622448
Ni 3.8709847160281488 0.12534185560468927 3.3669524642645916 0.47602175258995444 -0.4415509725065944 -0.5750501048397257
Ni 4.4872483788528275 2.3730153328982797 6.680355951989043 -1.0670900872348075 0.19447515779587154 1.4742427847671902
Ni 4.038667237261284 7.4955579221954105 5.441592575643421 0.30205937003545397 -0.08828139814591249 0.3984839661137911
Ni 8.821920769916947 4.1152407814829415 10.081417863415044 -0.0830448323373215 -0.005995555461802578 0.3986698568723521
Ni 3.74845599171244 1.848090929607098 0.9496353797803547 0.22718473221375066 -0.9309362908876484 -0.10139093894467699
P 2.07632854283027 4.50488802003946 10.076672201201283 0.9254927512745738 -1.032977976042447 0.9194033505473843
Ni 3.1553403280010817 0.5712664580222246 5.637293110765526 -1.1139322443993267 0.544316680311611 0.33637742659103353
P 1.0385741743043282 4.856363627746158 0.3538060668295277 -1.7216682695078478 0.10267957584911348 1.2410797234828175
Ni 8.688752993083973 5.027380639898125 2.360572707668565 0.9305033171152878 -1.271932447197616 0.006714435905698113
P 6.561467533781405 1.5681502845402877 5.357183898892599 -0.11391812487741027 -4.514424434555987 -0.45325900497214194
P 8.100298247618273 2.4629544746979026 8.999877576152468 0.938109925817952 -0.6197384488860358 -0.22332267815518314
P 5.699492419962777 5.184755715445702 7.538491795600577 0.5630955035810109 0.4756486855212518 0.3973897046083478
Ni 5.466916284024772 1.5450943984357757 2.416360030322727 0.9447066051988634 -0.18076295041610158 0.04771710357030492
Ni 2.819910806428646 3.5353801797389792 13.1003811973563 0.3505241504050608 0.9354853437109115 1.5001808447891904
Ni 7.792778967714504 5.35013541145865 8.197367857429683 0.07215183957390155 0.08494590601477628 0.15609501535577633
Ni 2.03076023737321 5.482382058203549 12.124214507649127 1.9019781915469307 1.192465819129856 -0.5670891981214363
Ni 6.264992603633654 5.546999333881995 4.187811094341826 -1.516773459040549 1.4262320612158663 0.5459135924850856
Ni 9.054810090084896 6.780272774902692 4.135340761134822 -0.9609552058472418 0.7799770540965406 0.3255245430369297
Ni 2.8801250802860947 3.4341295604577984 4.991076139736832 -1.7923921183859712 1.348640024463 2.534271851390158
Ni 4.356751879275271 6.09091743958928 10.182138832895584 2.1235581759793942 -1.8560940274203066 2.459416239731848
Ni 1.6479017275658032 7.903075084460579 13.407008823334813 0.793890064633207 -1.6331572718496323 -0.5380442170393378
Ni 7.855756631836178 3.153452011320528 12.171224381694024 0.632615047738388 0.41809017038049284 0.5554127902247725
Ni 7.3797166023191245 0.5793696394070186 12.816484298561209 1.8447950574677197 -0.9473846662516588 -0.18103343046866888
Ni 1.7736728297915354 0.778879047443314 12.35226973711486 0.12571151796791252 -0.4090018349259795 0.4891989134018607
Ni 1.5851911911696714 3.635838627144416 2.1577546003559056 0.28757814570014345 0.6775018809487493 0.15526017815930682
Ni 8.972295256795155 2.224059386355705 6.88138154015031 -0.41391521306719686 0.1250782552592878 0.46188068520288195
Ni 0.7041403943571015 2.483035110617933 4.637505882209852 -1.2191458995242035 0.3065631714430785 0.41001330690962934
Ni 8.781906878890977 5.401037060125663 12.243742190137889 -1.0866937203983476 -0.4619519047604496 0.528491026133264
Ni 4.031390309565493 4.001223299181044 8.387620829210915 -1.4123583885575677 1.0458093234791601 0.5180628888214045
Ni 5.275422550014904 0.18652884283514543 6.642283803188736 -0.6254077313566714 -2.1712115161912995 -0.7176195749052415
Ni 7.543594856288511 8.758021975707198 6.321420111699028 -0.8253583104448172 1.1199116019112132 -1.7552201373213643
Ni 7.621936970279273 2.2656576211331627 1.327917715310206 0.2712781229885392 -0.8778918615671589 0.7272722675036571
Ni 1.9266356922172356 0.21026175955439244 8.385194572558925 0.8410407541770806 0.7334421437597949 -1.5412966409928939
Ni 0.6788922186429714 6.233637335435587 10.46579347447751 -1.1338405532874796 1.0843697002508614 -0.5647836899167112
Ni 2.879305274507708 5.539814519195012 1.2429278054738089 -0.031869080794454795 0.5433507168539159 1.0323812229987124
Ni 6.368011792683938 8.701446165697643 1.1368366475797949 0.04222934098285631 0.6303563336111984 1.6975461796486637
Ni 4.891256035482431 2.83769782842937 4.535179382985799 1.57486779208012 -1.0668005810188466 -2.4920923898086307
P 1.91203578032125 2.3653146853619744 6.6630322584226205 0.5643599721157312 -0.6461197670930421 0.5672578624888167
Ni 8.830284631116665 7.9751995703568355 12.304571778894172 -0.41050927270944143 0.28172965733916644 -1.1897797876572607
P 3.9662019332324405 4.359008647991055 3.232459181234879 -0.23048062935620306 1.1540846482484965 -1.1431960263604506
Ni 1.5969540223943866 0.1211166318906902 3.8283492887715194 -1.6037505365527411 -1.1673379137139768 0.01936709167270213
P 8.164289154836828 4.752828605846552 4.464522257319846 -0.42451844250433984 -0.5803437491384973 -1.5803817799198137
P 3.7943927492047305 2.000749819103733 12.129094654855749 0.8904943808225181 -1.1401171303248105 -0.6302144087166953
P 0.6071057874890387 7.569395710055486 8.825384219048107 -0.9307730258369067 -0.3865923568825278 -2.6841175434021127
Ni 6.852747290232417 7.62019603441281 8.525848373617682 0.09896124645726183 0.5850684083076763 -1.7923885188415452
Ni 6.311961026824587 3.989580214867779 2.6603517314422422 -0.6877274153314994 -0.5349586361354787 -0.8849289709195985
Ni 4.853812097402191 3.7625677046617456 11.067642372553905 -0.20647269647737987 0.7641724829641162 1.5150793591675777
Ni 9.015938400368139 1.4861973406042734 10.698864257272811 0.5197698442101824 2.660930306652372 0.5196101787038665
Ni 2.5755257827615226 2.074127041919771 3.390033220881482 2.1725253499067163 -1.344337026212272 -2.24431312127298
Ni 0.9951705245542439 8.833738868946945 10.420171743475343 0.057542574301158965 -0.6055791266665184 1.3361138669715311
Ni 5.375853363517699 6.028455608316928 1.6690177137048299 -0.2341763330402354 0.9014107706247056 1.135964798719334
Ni 5.792222585929266 8.086333915483058 3.920981814948673 0.2164704311200401 -0.2534740049275829 0.07810959981923322
Ni 2.4531168053572636 7.465455390917127 7.138220242608204 -3.0151995259221622 0.9674582970730822 -0.9693030635913049
Ni 7.784203246594528 9.128518919732642 3.3420119459998783 0.39197213313720236 0.6369985215180642 0.43460282332353534
Ni 6.2937226510807065 7.264492439601849 12.835615249360435 2.0532282201055803 -0.840203860098082 -0.5773005914367993
Ni 7.704571550480462 9.17222654241179 10.396686610749788 -0.9537242353164411 -3.5025606147843353 -0.29514773051728527
Ni 7.2977636583831105 6.5527628544490994 10.449467364796472 0.4190965001578202 -1.0722554334858307 1.0737965527207056
Ni 3.606878297175345 6.955554619362444 3.2480041726012296 0.7607284902795737 -1.1156070609985884 -0.366678134457104
Ni 7.343543823760428 6.858006943035324 2.462184409944272 -0.732054519383649 1.3377735140621412 0.6593041269938
Ni 1.2774416287438835 2.7988998291196596 11.641853683467705 0.1913337839534124 2.4080900786540465 -1.238109328000584
Ni 2.00612921881809 0.5682221230811374 1.1875236729362861 -1.1470971611870695 -0.16438785149218785 1.9454272638695012
Ni 4.2879987295013695 6.875922923248378 8.054003170521723 3.830337958411184 -0.09193827817220941 -1.5841080797314653
Ni 8.571612879783501 6.693529954508689 0.6677797052604371 1.0981333296938571 -0.37490000814626406 -0.036179278134034466
Ni 0.36896418355888644 2.7531657202467463 0.43833449049179907 0.5766709282726005 -0.6320321786517245 -1.3842510887983903
Ni 6.693622067517496 1.6605672662768316 7.638202285374496 -0.4199763316596121 -0.23338366193561097 0.7718896491027158
Ni 5.659395627228881 8.361539951897164 10.34501121280879 -2.4714276623704277 -0.001082948651533619 0.35085787959539577
Ni 0.5454499450437524 0.09743529845637537 6.003644048264546 1.306943416055162 -0.5646715898188791 -0.06082741570001781
Ni 1.5920075538214251 7.513934467452502 2.3161373922198374 -0.8902236436596346 -0.4107589268264023 -0.5331658059011141
Ni 8.603778742459074 0.2471272279393218 8.168503324989771 1.0059824212902095 -0.5924981251128442 1.634745699382675
P 3.132680527834441 7.7237586902150595 11.600194654104435 0.37290457498279 0.15929063947493857 1.0480546678699112
Ni 1.789037279660623 5.317306335119665 3.9295427979872395 0.18697704964661346 0.16698415146445436 -0.23306355959203087
P 1.6990612926574773 7.306228843892518 5.016219306620922 0.98582085874067 0.5192705359762606 0.4409015118480536
Ni 4.796895469260049 3.8701649102497626 0.880977106405524 -0.6898616880656828 0.7055567302034365 0.6664816185788457
P 6.357980686024804 5.1764102768477445 11.925049602265773 0.14526012952380143 -0.07833302868394897 0.022267810259264876
P 4.444397407155588 9.191192610925249 8.630439010598222 -0.1573373724033097 -0.2563143025898553 0.32797043347426097
P 0.3679205431690977 1.6650808037083982 2.5987806329650587 -0.5408282075423783 -0.40195804070532065 -0.771930015422348
Ni 1.4684379525061915 2.5069844929078777 8.935880221023295 0.012418685379327 0.7370491443847629 -0.10058489810361386
