# total energy = -340886.6392053946 ev
CRYSTAL
PRIMVEC
9.10014440084862 0.00000000000000 0.00000000000000
0.00000000000000 9.10014440084862 0.00000000000000
0.00000000000000 0.00000000000000 13.31898118733845
PRIMCOORD
 96 1
Ni 6.274085568296784 2.5045144859879933 11.433732852951437 1.9523116496941604 0.5400167673846765 0.009835240922866932
Ni 4.936264216056258 0.7026822226052187 5.854531593384483 -0.841977407058737 -0.9011338628142351 0.7327500027887768
Ni 2.7040169552261397 1.388463656729432 4.712589032817415 -0.40475694360669645 1.4220013109639704 1.0710110195557683
Ni 3.95078226097682 4.97716936586356 5.344214596637239 0.0022060065123832976 -1.1944460827846786 -0.7000021189337945
Ni 3.9130075608989316 2.9683033536029235 2.5470421915707435 -1.21064866068647 -0.6853568582167938 0.28475713131158054
Ni 5.3660913441648805 4.697822228236257 2.712077863279378 -0.9928060318092514 0.3524537633276059 -0.5732467330823998
Ni 5.216730671464718 5.022624587951984 11.318550503198162 -0.8211985226401729 -1.5146235025770818 0.009768135130357371
Ni 5.590928615864323 8.132271386895733 12.206832904193783 0.6575331511363064 -0.3879563271095899 1.0298018923073102
Ni 1.887242580186202 6.720857165580312 0.2526982742912182 0.3243950574181768 0.7354260069590431 -0.2919402793235811
Ni 2.864161299232566 1.4158277914281094 0.14217974862609437 -0.0013853103833008401 0.8549697055533471 1.6146880094008513
Ni 8.321881998994714 8.875935200522575 7.175374805915224 -0.5697191795451155 0.7878893669650818 -0.7475718982929578
Ni 9.024576961802321 2.267109914648088 1.2318155882638206 -0.29267098684201853 0.5357806178161418 0.6349349541208161
Ni 7.03727829215421 1.048673358919683 4.670953141401765 -0.10411373719247875 -0.9687633890377509 -1.1151632885929503
Ni 0.3819767479714147 8.129723346418302 2.3132403674630315 0.9030737601494253 -1.308854774145262 -0.9477078539190325
Ni 7.918590892429604 3.6062598879947028 3.7527030543482094 -1.1482035068773708 -0.5398607014227864 -0.8815901363543527
Ni 7.940595041981118 3.988384058308026 12.58868862024252 -0.2486799259730491 -0.6373373929147218 -0.2628860422701021
Ni 8.225502367935954 7.28114396613331 9.272181885182048 0.2868296975698931 -0.6039156229211664 0.17693972001526947
Ni 6.999048584848209 1.195586092732602 13.814047655939426 -0.44767431179551287 -0.29230846129627724 -3.1123406884515497
Ni 2.0715114074271463 6.699535526870966 9.013674078602293 -0.8115332316362669 -0.5118436473845701 -0.3762524084091004
Ni 0.1855619577832393 4.965885186606373 1.0235797102892863 0.175535126358259 -0.2615806931951173 0.42046021327456623
Ni 6.835664589377624 1.9577778006881805 6.702471233506747 -0.22650673231011959 1.0480958055204916 2.263521832990947
Ni 3.4170223818227714 4.560455546069134 0.13394502781171685 0.1181838421322997 0.04365141814136353 0.6078905484085143
Ni 6.310003838883975 5.481745081406482 4.6419446105806905 -0.2551542208434831 1.060525289533096 0.5607794538533246
Ni 5.2577541231513285 3.2955900527841444 9.368304892164154 0.18111724843172677 -0.16515044068982523 -0.2208757592765873
P 0.48019096817392404 5.73272706843326 12.10674132416808 -0.3500610947257133 0.3639661348425796 1.3280966530940095
P 4.098231903318912 6.450146065142581 12.437118432442642 -1.076415478400791 0.1472805023879399 0.573580976493367
P 2.6694091054559133 8.610866189713438 1.4351337481169169 -1.3093854498377515 -0.6696497318941822 -1.1688036996262259
P 6.522783419038439 8.116264232610739 5.516442112593417 0.4830082112101165 0.19448852753231022 0.5807163019865675
P 4.863444859269157 1.0357784540749788 12.602327006897958 -0.141306287082376 0.5791651554493639 0.0016532193327068302
P 4.074316723409326 5.959630072948332 8.011446947513862 1.211503038266965 2.4663281363603327 -1.1588697283419653
P 4.7123460589576025 1.2709352897080093 3.75498082053214 0.35312302148048863 0.07959209790203067 -0.7508569968021327
P 0.3954804524873333 5.73928827266264 3.1209300681864773 0.21081606104774017 0.6071035337308447 0.41267234179903123
Ni 0.6234709242775941 8.792395873441144 4.495675256988322 0.377387293344492 1.8243283049729355 0.6518625831140903
Ni 2.014744705647848 6.686112813641652 4.673070745041401 -0.21253278662853073 -1.626146130639122 -1.3977216124809992
Ni 6.059003651568072 5.915457971243184 9.095799243218748 -0.47619787315650247 -0.03256327864800198 0.12506977061885557
Ni 8.656894720909284 2.5048420911922347 10.203005641977262 0.5589971651419211 -0.11598323493655509 0.39967824353220843
Ni 2.21159903281838 5.43768218143608 6.77893519819103 -1.2216668661738443 -0.08257946266512875 0.5876608516252009
Ni 0.30284371088702533 0.11145766058394775 9.388536333554942 1.2935873064632302 1.5480141622223857 -0.6246826802651887
Ni 1.7074419239253216 1.1855941340032548 11.338541700772508 -1.3389081418872169 1.2190307141025778 -1.6110131316524252
Ni 4.15147684915262 6.639620175073131 1.3995849433989542 0.3221893080161096 1.6192254922598888 0.15317115684076202
Ni 6.279618456190631 8.177954112598211 7.976511492539395 -1.4875824392988897 -0.45967107914607286 -1.1880100973513477
Ni 5.528092117662006 3.0524432902254612 4.960495170982154 -0.762026897376023 0.176458923724109 -0.6472201992460723
Ni 0.6839286446913396 7.359559911826195 6.557960027843805 0.5349378101998723 -0.6082782707652363 -0.07787820053471749
Ni 5.578607020127041 4.395588227034902 7.218608682716004 -1.1117187816877758 1.0006761785859477 -1.1545595310023857
Ni 1.0614590620296405 7.867502680857148 11.139516989123878 -0.8759774181532656 -1.8236143096250461 1.0666895093622792
Ni 4.909027483381452 1.1081701040676553 10.397529422125402 -0.49352736557388543 -2.154091825791877 0.8277792611814841
Ni 8.249635951315033 7.103955051361795 4.483888749751299 -0.6391114540960091 -0.14089311080435735 -0.3721728390230881
Ni 7.312266460536197 6.469647674939477 6.712167437537822 0.5778104411936823 -1.347259342065389 0.4418962716611551
Ni 2.383755567646973 5.282752220263821 2.410775716881197 0.279467343667551 -0.18537319549460335 0.035334156524919794
Ni 2.46793190484776 5.232009814184731 11.22295985467295 0.08536885248480781 0.6869422004260428 -0.10825141350993615
Ni 1.2348441163741368 3.424584601953999 3.6217774545022463 0.5052346267084848 -0.7466396162866754 0.002783990503040367
Ni 1.8785337418401318 1.2856775238988496 2.463345431988387 -0.6657475686262986 -0.8771534407392377 0.4406094345289315
Ni 0.9914152493340236 3.435113469212519 8.060301073596287 -0.07389144797282758 -0.4309392584290191 -0.3632889062698969
Ni 3.8842875046604797 2.793089170201415 7.12702664787046 -0.4673730757760209 -0.6799752821899064 -1.259640002983508
Ni 4.467561270377716 7.289871004768506 5.62204838022384 0.05107573562989268 0.1888498411892941 0.4955197134135659
Ni 0.6898064280640952 9.20133816977941 0.03573353765257616 0.1666517078257001 -0.77622478614296 0.43963575776175257
P 0.09539499541712518 5.8519480623432605 8.005267039341641 0.8683672099061756 -0.9431935109884465 -0.5818313894276173
P 8.586386800840993 1.7585210353532152 7.965949864760451 1.079578192399489 0.5561180438219132 0.7768745039118169
P 1.9879174794783434 3.305363608043998 10.265844870222947 -1.4689869356848893 -0.9122155745496934 -0.5115538840582932
P 4.070130656910692 6.372558232604861 3.6092975162495806 -0.20997248210052225 -1.5526771149156937 0.2667565809691018
P 7.185874552711145 4.285949685348948 10.315538029634011 -1.889606300245139 -0.6734331101960144 0.7876014034110178
P 6.2789632457821485 7.890380444286638 10.10585704870299 0.3522475608540708 -0.12172270852349358 0.9730666443987952
P 2.439939860174287 8.511347008780701 5.646182873617376 0.753705007773889 0.7784775867328786 2.239623686217111
P 7.045195417923365 4.114229957459342 1.4304453536384472 1.0711254336464455 -1.7142357244892024 -0.827641450052039
Ni 5.289577328685507 2.956072759311263 0.12911285104916356 -0.235337186117556 1.1936089315953637 1.5073809620820555
Ni 1.5543410918100746 0.9695112013726944 7.075123063345228 1.7887771473412033 -1.1053694424309803 1.2410650681947981
Ni 7.038161006176748 0.8084031520571259 9.294664702337537 0.21487300472593318 0.9357967043037431 0.4563139897483819
Ni 3.1409967969606885 1.5817871278098121 9.039220004417434 -1.807211442786991 0.08928541393039462 0.05339667045358546
Ni 6.206862800415464 2.3466997789895023 2.4040898406713143 0.41463049396666657 -0.1561533793975375 0.8100656459518049
Ni 4.161041101087542 7.301273485905002 10.350380663133944 0.04026578949858226 -0.599302035408555 -1.0777280265646279
Ni 8.158880209595742 7.148918865643859 0.06393306562206785 0.8406892843749328 0.9161879289338801 1.152002826018803
Ni 7.6234732042759275 4.166655890282449 8.177281611915063 1.8208575728155159 -0.4114904056757881 -0.21099860937219145
Ni 3.0855041154201053 8.682566228719383 12.08951930058403 1.5752871390057257 -2.023686501892721 0.20683470780248897
Ni 0.11718984164370727 4.8977706045579525 10.11085211805321 1.2100719622473932 0.5857116983186299 -0.21599657680741507
Ni 9.212076340362863 1.9318878894085871 5.782209104490478 -0.7168695841130944 2.1776894106061593 -1.608990959016074
Ni 3.522957164671891 2.8576000950031855 11.63620833941807 1.6928778276387166 0.14846989471035074 -0.3652943667356999
Ni 1.3074359695471827 3.289574857228499 12.654297932492954 -0.5211492410562121 0.19232417289113973 -0.26794263085740305
Ni 3.8760336735425214 8.34510556791757 7.8267795339410915 -1.4389657067324508 -0.3251291073707239 0.25682132413326086
Ni 5.846970283267711 7.763296925474855 3.394329351327895 -0.7739424178666865 -0.19750160332702116 0.713663675581287
Ni 3.2887649443624594 8.438700554740283 3.605115089808772 0.9001175057345788 0.7504936999254429 -1.3629055332430786
Ni 3.057639472770504 4.39424140563969 8.731391234339208 0.23386111579266175 -1.73485700028398 1.558152021987336
Ni 7.301946896602608 6.147302354255556 11.529549185061795 0.44611725172103817 0.4445342235046344 -1.7583075179974361
Ni 7.4161810112924975 0.17778224419697417 2.397709729318723 1.200071913611888 0.14362079414816556 1.4725412286950512
Ni 4.814231277476524 0.30712987897584376 1.3857600037799884 0.1528024606474336 -0.38124497652768535 0.837502659116835
Ni 6.123732979839336 5.691184908506601 0.35346690507235035 -0.6834634978488229 0.4204363020151663 -1.2118313681406612
Ni 7.874318689134271 8.733827343038522 11.405896420749981 0.07066085685067186 0.2487470317655587 0.25298498110630624
Ni 0.07290762818935606 4.925262141280501 5.161731217759408 1.1293362376592229 0.8380089093292923 1.9173870699028333
Ni 7.420430778803067 5.987876921669547 2.3733095117039693 0.8553147475975915 1.0090633742083783 0.8315497839675098
P 8.822590153098682 1.5267403533527786 3.584537842924618 1.0956948954556938 0.2578641635754785 -1.221040288333439
P 2.0615831497097346 3.1909292901737394 1.4887554399355023 -0.4188609871082464 1.0537494042618434 -1.2317648738397946
P 5.143720211641809 1.0542790479700272 8.219995870461338 -0.3446957166487419 1.3296683684565034 -1.521839560709547
P 8.574902418403436 1.507211443122196 12.261041555336632 0.23167490677462035 1.4764125387249991 0.10028047948931762
P 6.430398751442505 7.747135068732304 1.3389443100795075 -0.1779131396721323 -0.6341975617341593 -1.8418773696002921
P 2.149390444590858 3.472669765820913 5.741919124455586 -0.32046949711152545 -0.4481409670192863 0.08142478023539526
P 7.273590846146646 4.085154995582963 5.891251586707606 0.26286315945196664 -0.6361408015034593 0.21470074081412702
P 2.481017912728271 8.650379017402715 9.728050896984454 0.173691645391617 1.6723303425046683 0.24054984066674703
