# total energy = -381165.654419638 ev
CRYSTAL
PRIMVEC
9.24561702450823 0.00000000000000 0.00000000000000
0.00000000000000 9.24561702450823 0.00000000000000
0.00000000000000 0.00000000000000 13.53189507665918
PRIMCOORD
 96 1
Ni 6.650390773694649 4.869490788403579 4.081815073933817 1.1527116791603695 -0.196793521516403 -0.05851625106833793
Ni 5.968831627933273 6.281333481328481 13.5704604766907 -0.1678405859274787 -0.6608182496454813 0.06036718823414765
Ni 4.874437193479509 2.9634051494151397 4.1647519563508695 -1.0297404429417556 -0.849937285335762 -0.8679380927885569
Ni 4.410390432421555 2.3767430161759067 1.5317564958291963 -0.27494117366242327 -0.6253357404681552 0.6008009885515846
Ni 4.026336749339203 3.1112333190582153 11.139510408252777 1.1213092535896882 -0.48031600908993416 -0.07135376915263841
Ni 6.598763248565689 4.018894027682897 8.577002606905653 -2.5071456845973272 -0.8992114489805416 -1.9893288503484576
Ni 3.174944865559587 5.499357689717243 6.257310594769996 -1.0385140753693276 2.284260608200195 0.4062173302023068
Ni 0.4813434612748693 9.104658288116674 10.466041177335216 -0.14468728773946693 0.0920642622271124 -0.39920670321242857
Ni 6.855883856344407 6.39870658869097 9.038128677564567 0.8611112996747105 0.8020779997606381 -1.0790809410480964
Ni 7.003795236540164 8.073605575485708 1.7167640649710336 -1.808183834002589 -3.2937582417325144 1.7333351643228148
Ni 7.000559270602638 7.393211377461841 4.300097618530369 1.8640217669078154 0.8143223643456298 -0.0717196371324894
Ni 5.6370526631673865 8.409988857499844 12.684554704783144 -0.860846476049098 -0.3356570034852413 0.06141054189699746
Ni 7.047822864524422 9.023666683508923 10.602199529245881 1.429896911661963 0.5486806137072615 0.30461453235713987
Ni 8.315988669823245 0.31730772509327876 1.2882472853454008 2.3760939853634238 2.1799635513523166 -0.2003961512659968
Ni 9.032801353069706 5.509601833313749 7.611812895843664 1.058281744914558 -0.08186083933154933 0.7073169074276527
Ni 5.00921979758588 6.318805966885012 4.9952857282589 -0.4690995715488243 2.2731742684790466 0.22043584352569134
Ni 2.7638292616225675 7.7587553353815535 0.03240311377497579 2.8039201520847583 1.5955898551188197 0.9286053287616266
Ni 1.4224381699660527 0.2511183532454596 12.961417478465853 -2.1186998194458284 -1.4070814564293443 0.24564833823557694
Ni 6.591255807590633 2.598637823320433 11.446643331876784 0.243492982455471 -0.8680309096126791 -1.2892210590747346
Ni 2.2780368094644503 5.680969343748074 0.10182752699862281 -1.9840460046829635 -2.1722407287867624 0.4719894915021097
Ni 1.8689090131747668 1.0551652816740056 7.003946864658378 1.052355352127794 1.7410147923552597 -2.481561922590952
Ni 8.23372117007441 4.414976258435876 9.758999262096683 3.4761978085200904 0.11874819927620192 1.3885702849990345
Ni 4.927580999790623 0.6019026082432759 10.971105193493834 0.2019534684507877 1.673681457215924 -0.7427721629114692
Ni 4.573973133371893 8.628407312665772 4.0081201102343345 -0.37006453443083365 0.0571139714041726 0.04931607262630861
P 1.6069714389576188 1.5097445309604591 9.069265141815427 -0.4750892134733559 -0.6725918452416417 1.7124878885601604
Ni 4.246548854196217 2.6005886484999112 8.105267190780141 0.1962978128269071 -0.23434216919413836 -0.1408152063785704
P 6.181138730285763 1.846553111354956 9.553869532193623 -0.27811777161819196 -0.49332939063046655 -2.3427321220735267
Ni 2.422379381511964 1.436297349795621 11.303516558460082 -0.5435602617615606 -0.49154941591190826 -2.2104956585029023
P 3.0816658360062075 3.494750756356635 6.149163688576237 1.300195041587735 -2.6501054481227264 -0.9599511900627598
P 3.382860299854008 8.713846059033378 11.768012656502504 -0.666180285288343 -1.498345848462981 -0.8431351748122641
P 8.739437926790714 5.7224174445992775 4.6826174537583345 0.17416781369708714 0.8015074719691486 -0.04048716148076899
Ni 8.4848321268263 0.9261611881703569 6.858112974594514 1.4828652363288786 0.34289671576679015 -1.6260592273522705
Ni 8.171082115140905 6.895223956527739 11.042987091706605 0.24726684767560642 -0.5597538408022875 -0.9855256960977544
Ni 2.3211306301353103 3.5536175995686845 1.6525421604132293 -0.0041255921325993455 0.06247395016450531 0.05576362802386525
Ni 1.5542621766438298 5.863080261094979 3.5372916891330264 -1.1092482086600963 0.35224601819217394 0.5775389326998506
Ni 8.119001554780692 4.371013349770367 12.198218610347524 -1.5308561623858603 -0.22114289689504496 -0.3789839484076506
Ni 5.32525347666147 4.35439897608542 5.948255507379101 0.04456390265330389 -1.9675053267154632 1.7510814325626425
Ni 6.982530317522145 2.7594006110966416 4.844472148898033 1.4953134893945603 -1.7222480532707178 0.9245776956594723
Ni 8.517774260070297 3.2535788378414288 7.278238432263297 0.294369457590364 0.177058762091637 -0.29461859748669256
Ni 4.373001157417702 4.62476855297406 9.284436536303474 -0.6799254027885774 1.4248493219357268 0.1598961342694214
Ni 5.8345945152278 1.2890424084043353 0.04852192239063271 3.7205497965417473 0.801358347985794 -1.3740147557823628
Ni 3.6841934479562735 0.23333903182300453 8.928587532332582 -0.4861971504610594 2.4165217543611672 0.021115441822376537
Ni 1.3602706414977281 8.528101614219482 8.019014830119671 -1.0919215444561905 -1.5537083843936854 2.2824904036736497
Ni 6.535264351254497 1.941468615111027 7.240389650096317 -1.1700961931854041 0.08161401342806589 0.7874965024020374
Ni 4.940302968733576 4.52533194252242 1.6080087971810195 0.9458111511169517 -2.099466168027197 1.2676595308538747
Ni 2.0277672038563184 5.280763567828993 8.721698361521206 0.41646471896192794 1.6847099471159437 0.7841658953669076
Ni 7.21662933905962 4.5018665666668864 1.2223010732237443 -1.419686803898181 0.06627301219562136 0.24615921643372446
Ni 8.493264129497792 1.501460458160397 9.060686133834201 -0.2665424080757668 0.38339981808715906 0.9128159271378538
Ni 2.3704929791080027 3.035872295181756 3.9679710185666215 -0.1781910759238673 -0.7635155661064077 0.7846166097510809
Ni 7.828162181932969 7.81281445777214 13.225708986762125 0.7442808862465118 -0.33304142023926514 -1.7831209774966903
Ni 1.7948423756733172 0.23007070622610495 4.346431103385539 1.0800031957520495 0.05579808080622649 -0.19505082779368343
Ni 5.600560213009076 3.5769905192545743 13.066154601123158 -0.06667230451656905 0.8677069506143573 1.6056991756386798
Ni 2.7680175261074207 7.711380794056198 2.4229674027508974 0.24582728701560247 -0.7082353054768641 0.613174422515273
Ni 9.139153685010683 8.15222105653362 3.4364922747408397 -0.025814647070258764 0.4796236110085998 0.1676580376030274
Ni 2.534343802950306 0.6237305853344222 1.4724597314283039 -1.762117892882462 0.46936722338791426 2.2925537014469226
Ni 6.605031776867522 0.5530191822293368 3.2850296530690755 0.14268671236967037 1.084088678675333 0.24298570380174925
P 6.5580640426885966 2.5287779415377645 1.8042756786620489 0.01743645030889255 -0.474399386495183 0.7269704199925221
Ni 0.4323842212018226 7.502808920957308 0.9865859178409004 1.083908701454043 -0.12235854233527961 1.2467734314334848
P 8.060116220334713 0.656053262241808 12.612659862706623 -0.490911010996961 -1.295544173079285 -1.5004405262084806
Ni 8.255873668321007 8.151694056366651 7.420417529941153 -0.721817415036673 -2.1484752509360483 1.479405817025368
P -0.17823607927714377 5.795559520404292 13.196736921442621 0.9112737794617145 2.628100404606545 0.7418049139021935
P 8.163232586338166 0.6825817109976324 4.758003440800598 0.43174195683597255 -0.4431440280253271 -0.38620720562896715
P 3.7011961375537226 1.2791033701676535 3.2391834122279275 -0.4522225932878276 -0.589750644274694 0.97155277885743
Ni 0.7839488062714304 7.6064337958938015 5.953153835246816 0.4960334198251909 -0.8591983989227139 -1.6326937019496528
Ni 4.978598314199935 9.168600975042155 1.5062487631862365 -1.6148106510216447 -1.4999820985148231 1.5014725670174205
Ni 0.9575500577643428 5.366784788065353 11.265072358560598 -0.013314200610402876 -0.5083145511853892 -0.5503325474883878
Ni 3.2557515578280523 7.40785643473338 8.776651535072244 0.9042610955893071 -2.0370276990863174 -1.685730160850342
Ni 0.9900299101601228 4.288366779725995 5.640215588730892 -0.032818074971285416 1.940756340756393 0.48742510933088956
Ni 8.546703795551764 5.9493603586063415 2.450666346614409 -0.8157927782435692 1.896423837387605 0.5315133578993556
Ni 3.376850648827177 8.441849253559012 6.692969613500594 0.3156520211182241 -1.2153051856218748 -1.369388826974577
Ni 1.0304055194434623 7.482348370615189 12.15134425689994 -0.5854715572833659 -1.0731612331295517 -0.9607757428465842
Ni 5.762996457455833 6.4343854245564165 2.8068666840299445 -1.993566285468573 0.44110385766684684 -2.965088468198384
Ni 5.208259439594519 7.347417836637389 10.414836176901526 0.32950358228933574 0.11318356070423087 0.06436011144362463
Ni 3.045182631464862 6.620324027326565 10.714500491141724 -1.286568709053552 -0.4052611369366246 2.488803434644714
Ni 8.870485301643484 2.3115983990450597 11.52407260026817 1.4237882276610638 -0.8400099989197211 -2.773017034747998
Ni 8.847417487317419 3.8857386521622534 3.4741247094708547 0.8672575217817645 -1.4038287538200018 0.3965908628561363
Ni 7.402669643616377 6.151081229534644 6.367514650738325 -1.874464045287062 0.03326518981103303 -1.1303700782403758
Ni 1.8071852743207315 3.2978930799515833 7.833316613390597 -1.2383435554985769 -0.22398036634384008 -0.4142828808192607
Ni 0.46681952158556367 2.2259100210194154 5.178372058195544 -0.950250417835228 -1.921675927086174 -0.06324296712004593
Ni 4.608265126692686 1.0748214633402247 6.134968892850862 -0.7590811844841379 1.546449388838427 -0.5030741287220561
Ni 5.160801687716484 6.246274101799646 7.364882807083056 -0.0417544582289668 0.95771638719497 1.3257260959793038
Ni 6.222263234543215 5.064342165927366 10.782619423250004 -0.9950534330825315 -0.28326769125024764 1.4221260094672927
Ni 0.12166307363395053 4.262580754012409 1.1074649631562736 2.443020057762012 -0.5083477184161697 -0.318732974036393
Ni 3.6929767840724113 1.1063952452734978 13.235721989934522 -0.22242433471062983 0.49530271230675343 -1.8950117875314265
Ni 1.0892816082724763 2.335359634643453 13.231297037655382 1.3875166469235396 2.240658041018896 1.1880121542338766
Ni 4.131856975753389 5.107121635621437 12.289450660304997 0.2580685662768007 1.6691527161076352 -0.7291491728113959
Ni 1.8651830295381318 3.4678737478412542 10.255444514121132 -0.27889887275859065 -0.3224651873853156 -0.2910977288176277
Ni 6.007274903271062 8.780608659132987 8.317108314037627 -0.49805867778533575 0.2976021055950487 0.5254848923170886
P 0.5507521569496769 1.7997517982813898 1.8795128112711859 0.845928164176369 1.2892570545189925 0.1954210666489086
Ni 3.6590731066641204 4.966948836824847 3.562230816332678 0.5846423765138512 0.5864737732956351 -0.0901611316671286
P 4.085499452294112 6.190097733124223 1.2007726541222432 -1.571012937110404 3.9365345462746206 -0.45817186889272704
Ni 5.992361723107558 8.570178417024263 5.9270516094330485 0.9779658814726254 -0.3496008672598431 0.9696360214506913
P 2.763237542136849 3.5929576997520165 13.027872199520548 1.075460827797006 -0.2884320090600065 -0.9210869088973943
P 0.5299264047374668 6.805828086099389 9.136072120876463 -0.6453543496819273 0.677225230248595 1.3347223859406432
P 2.9399675104104994 7.340243237873049 4.735310998523284 -1.089263280897737 -0.4929200710071898 -0.09615180203292473
Ni 8.123014152543222 2.4295724715102325 0.18897024057276018 -1.8260640567171194 0.6649824083254999 1.1939282626079952
