# total energy = -340886.83822183707 ev
CRYSTAL
PRIMVEC
9.11087686742201 0.00000000000000 0.00000000000000

0.00000000000000 9.11087686742201 0.00000000000000

0.00000000000000 0.00000000000000 13.33468923702420

PRIMCOORD
 96 1
Ni 6.722788442289066 1.884411760498356 11.130931299584157 0.3322742030559374 0.5855214366846948 0.2967729248255341
Ni 4.907409795343785 0.6487900927373951 5.548390955571435 -1.4684765717073742 -1.1330854202890097 0.2523895136141524
Ni 2.912009333604363 2.013385332552906 4.769938508493016 0.509288227952568 -0.35282194530030203 -0.17299847597933432
Ni 3.3653210090475785 4.6056666664320405 5.171792862828086 0.6413388007646309 0.2695212881984326 -1.304865964700843
Ni 3.6498354699206716 3.601930479678878 2.92884441176503 0.2519231155006951 -1.3387065673993719 0.12100459941054645
Ni 5.580011164611596 4.95105089524074 2.6690978694868996 0.18720202117322599 -0.9697859167649943 -1.014939373373181
Ni 5.707654548652586 3.266531771848688 13.221037503538374 0.6472579944625434 -0.45960911555988593 -0.10205376933965649
Ni 5.674062745871777 8.015621860948341 12.488763535547161 1.9333788173453994 1.2071373050991017 -0.8731762012590446
Ni 2.152307982078746 6.620455074012949 0.17347473872191738 0.342308704473804 0.012199113169353184 0.07927353822034734
Ni 0.9910538462403105 -0.2455891508105143 13.253654442501027 1.1794177276966462 2.747584967828139 2.1438791469249336
Ni 8.146554271516013 -0.04379962915336577 6.659063325562706 -0.2831152248327834 -0.2026929177199735 -0.31813082167601986
Ni 8.617158391135517 2.2106358153856993 1.2522499290181492 2.62280033254987 2.877280153034148 0.9508014052426916
Ni 7.072017461109565 1.0522151622336842 4.71045268274412 1.5182911812366562 0.5976979241462288 -0.14982049520097424
Ni 0.7335021141845557 7.722807391305704 2.257616051631764 2.2427768871341116 -0.8742015571997654 1.0332695391409366
Ni 7.9914233721537045 4.0546863916369755 3.8206015449684 -1.9865006368710434 0.23139954162604662 -0.7560048595516593
Ni 7.998730295351484 4.005059445678998 12.364377289964034 -0.644828044864812 0.7327744282688089 -0.16470898227703248
Ni 8.109782772730187 7.705305396962895 8.850793160489914 1.8275637811910979 0.11982446305951622 -1.1646549675651747
Ni 7.518550644209704 0.7450847718670189 0.11711394371720882 -2.8556168091281013 -1.0928335147474986 -0.539977943726941
Ni 2.1685526754224353 6.480493784531316 9.333069224384573 -0.10354475206288617 1.508261564914796 -0.38652653664159886
Ni 0.3132128117218233 4.785324046153974 1.3527510999687387 -0.46500277577163146 0.14887252946540813 0.329026128432285
Ni 6.286842098036581 2.1265242007200023 6.854003290037698 0.9013107547117316 -0.3473784056872275 -0.03318908515745897
Ni 3.892877219576449 4.545516657764045 0.5389584728505905 -0.8393176008383868 0.20810020477847385 -0.1478515444000615
Ni 6.242189690814247 5.996524008638569 4.650846593421395 0.27173372246871913 -0.8534059606106529 -0.3357058544453057
Ni 5.193573324918622 3.0368283458357377 9.006382336955525 1.5635317982420105 -0.8229854393372665 0.880686907813793
P 0.4569314267979253 5.760707184289323 12.273194723809814 -0.2757528709304412 0.5963182701898827 0.6620958308063243
P 4.2444112902286655 6.537199881766942 12.748056356160392 -0.8255223468265072 -1.7269295179067872 -1.435037318212322
P 2.815734698403711 8.540007486349 1.4198381302362206 -1.146010355880794 0.6587405411808461 -0.4453677751495233
P 6.66672921730661 7.86335177690287 5.416444504415344 -0.7804614499321268 2.0398571981153126 0.5033006429105654
P 5.040638146866369 1.3363925206649843 12.407928192180618 -0.5288252695442311 -0.3992002754545254 1.4771823270114883
P 4.355144886919185 6.413428620368166 8.205847857764319 -0.08679607184963761 -1.03671944536275 -1.0464312733338752
P 4.892695729303371 1.4223627541989443 3.488421709913491 -0.9105456430464384 -0.07058706618994294 -0.4913085035456958
P 0.4434646397921447 5.694070231336018 3.5507473959625706 0.06213944964322202 0.630753826159933 -0.6621878762994983
Ni 0.8207943359429517 0.3549205835607129 4.556702992305482 -0.2558039386123401 -0.5558449926661847 0.8486766734557835
Ni 2.0221955504235445 6.777490146627547 4.7377215370221135 0.11701707551770814 -0.9466290190325568 -0.6892137700690388
Ni 6.4807671108354725 6.019875185890322 8.616142528371736 -1.3167868845081452 -1.0572931557490437 2.60645223020915
Ni 9.104353417417308 2.703069595830486 10.313115309268829 -1.2224785634418625 0.005466936651842198 -0.8983012784614465
Ni 2.4301077267463995 5.797806674640137 7.0256476536094485 0.1632809915812543 -0.7876587390115145 0.5253630220272436
Ni 1.0793200207291835 8.993118722502501 8.774145176103046 -0.09397227788310268 0.25952252511450785 0.444253459039422
Ni 1.4656576407773014 1.0832468086322289 11.353794279291757 0.9922241911638525 0.4808978497353331 -0.5230058346489767
Ni 4.467910209137268 6.911483811801767 1.5095137573668596 -0.27711632693687116 0.6740303774603811 1.4987238006276897
Ni 5.801387249224585 8.430749851700924 7.408872998140907 1.4745955401209185 -0.26098985368865374 0.6726813196316545
Ni 5.3946868195168225 3.0566445028870692 4.7948604009059865 0.1593664870181965 1.2715128431616942 -0.28340036017336995
Ni 0.9414086785287221 7.647068672423994 6.714376369734816 -0.2872369603106408 -0.0517935876325237 0.6462210685575968
Ni 5.269630924488514 5.070330494374547 6.650036268824105 0.4988960860849666 -0.8602070426928863 0.4906042783898196
Ni 0.9136296151496373 7.689060703619206 11.32996569209541 1.873846209197405 -1.7528125563211359 -1.7437003096072228
Ni 4.510020681730948 0.6428835113045777 10.435807842853869 1.7425798228495342 -0.6424382044763968 -0.452079382841744
Ni 8.63246466416827 7.319815088457662 4.735348153614356 0.09912219751515831 0.14800401081752576 -0.9511937555851039
Ni 7.591164332347226 6.282933531887146 6.748085702826412 0.3111124813766577 0.47971334250892866 -0.15660897887771738
Ni 2.541205758509128 5.646885000361837 2.421805895801492 -1.2341984229819518 -0.030199406401515735 0.693681061811773
Ni 2.905321950029339 5.415778499320884 11.33209854835551 -0.8594542236872618 0.7971309401680078 2.020998927758229
Ni 1.138777602759983 3.5481945282817504 3.912091147670956 1.735075544052689 0.15766364539447686 -1.0265990690992965
Ni 1.8042815989965353 1.2781831287564986 2.6025046487422605 -0.40060949709722615 0.6493593570762624 -1.071920418743915
Ni 1.3442278747174647 3.863613083278115 8.341368505891094 -0.4689183087759537 0.10154160558992835 -0.35607541924059316
Ni 3.7836104740515677 3.2596257272303393 7.121630740752335 -0.7632810814980984 -0.7461881305715536 -0.14200562714224577
Ni 4.285947777583617 7.173831509407784 6.010757931471349 0.06016149998124477 -0.09843519875046274 -1.193599418513667
Ni 8.778830900043966 7.199952393208322 0.2675135647545712 -2.4107686539274735 -0.9479449096305029 -0.0992738926016742
P 0.3101971114992988 5.991841017960691 8.185245432044697 0.13347367841183466 0.027579966500797665 -1.5330014908636374
P 8.844256106382177 1.4515631143596417 7.951355558139753 1.3066965901516785 1.5227309621755647 0.3164274658316679
P 2.003900909798683 3.512734995755874 10.470117582726926 -0.18000241810099324 -0.5680021968540089 0.23521814404118843
P 4.173565112191354 6.209928076046999 3.824842658121225 -0.5632659677206041 0.26651952525763134 0.004791507851372393
P 6.837120835317644 3.925776595720062 10.162419584735298 1.4171552957255786 0.18607202133384085 -0.11463417710782839
P 6.709741666704006 8.132869734554587 10.22018618803105 -2.2120835718153127 0.966866172015038 0.9291483457492902
P 2.6824061272362703 8.609004156394853 5.765732743935077 -0.6377163735206952 1.7003239995041166 0.7079275444284582
P 7.171754229496196 4.1814733532582755 1.2882561141523388 0.5045579123564343 -0.3120594186709593 0.5095065146109613
Ni 2.9694351901076006 1.5765916767575363 0.32839335465466396 -0.35242908073725754 2.1593831560978036 0.7391260815184497
Ni 1.9050478964621562 1.3880420812737189 6.918383478806353 -0.17127326575811147 -0.37713223991089245 0.3880105773862931
Ni 7.018910160211996 0.9690419678789235 8.856860093354504 -0.8043899357232662 -0.4075656167000852 1.1096845248665663
Ni 2.89951832150442 1.834010390011935 9.344683770135855 -0.9303410805058108 0.18734034652330317 -1.2235962219860732
Ni 6.61160841263509 2.231636386421708 2.3501187838350597 -1.143300927369431 0.31344292928204726 0.6252439520852973
Ni 4.587572465096893 7.159363437041111 10.199489920280335 0.07134322762967713 1.0698550515744543 0.6097026619165887
Ni 7.520883028671838 6.48632474568665 11.387731384303484 -0.01877265262181283 -0.2139587204417799 0.17075184603700272
Ni 7.902865649607065 3.568876218629577 8.001760572976895 0.18467025589030778 0.5264290013979127 1.3173777240146085
Ni 3.39512268707742 8.84721714134387 12.495083750786936 -0.3019678387629122 -1.788922414669816 -1.2381586931812807
Ni 0.17338180777850426 5.27469657199221 10.21833212460119 -0.22451824112518107 -1.0365099004551053 -0.34115170805122536
Ni 8.962998163784476 2.5648575946954524 5.823978579350783 -0.577030111384232 -1.421284230292288 0.41546815937661347
Ni 3.937556959429198 3.1164574091132717 11.462418708001872 0.04316110876850631 -0.8876815939640711 0.041483978176399525
Ni 1.3862290167894822 3.905951327791925 12.649099478828285 0.8831019450131888 -1.5297163923544623 0.15114281355682357
Ni 3.5791532876658536 8.468997312529195 8.12661329545245 -1.3996373414464733 0.5494763701356795 -0.6933036238676964
Ni 6.094547932185822 8.647688939309775 3.2952683883800007 -1.2419359008355257 -1.3788404593057801 0.09165597104510022
Ni 3.198919955077226 8.574719926976849 3.6385434492082944 1.4494007860228457 0.27340468241323884 -0.6343795958379785
Ni 3.5489780636869983 4.542227631237364 9.376526284570064 0.8035471281069967 0.4594301667798604 -1.7213579373562806
Ni 5.35674912849993 5.167734878299045 11.128771110693641 0.5494511733246988 -0.6747603136478701 0.7093077126054365
Ni 8.176693051987646 9.208636513329738 2.2827520496496576 0.7303249382870518 0.5387756958887238 1.2762884101734664
Ni 4.966639605454454 0.20157814931526766 1.153394182418581 -0.1217648746153387 1.3859397893547227 0.3008915749795979
Ni 6.284108834995018 5.881043645132534 0.26435209050316344 0.31894714692972814 -0.1197478441853099 -0.504153477829164
Ni 8.271601055667517 8.976126937260785 11.533826116050383 -0.9392571520485179 0.6423271328198292 -1.4179492523817838
Ni 0.12590229548351423 4.996268176824997 5.756211877673633 0.7669071082864599 0.255977745186043 0.2958439852533615
Ni 7.685635013940447 6.37775953767577 2.3020343093202036 0.0454650743113346 -0.6540032836061769 1.2382232278706289
P 8.758969188608608 1.9250736036800076 3.5308519742830335 0.058882890379137305 -0.27118299217157166 -0.17440178408476417
P 1.996302438543138 3.351882465759894 1.546010107673169 0.6515080279881489 -0.34697834203533146 -0.5638233828859709
P 4.59302076942641 1.3044224539555027 7.806033428745934 -0.5927814606812178 -0.559556894300133 0.5853663991640693
P 8.956702547912077 2.0502023857227596 12.438117993562361 0.11194865985586526 -1.3353751890332937 -0.8094452387589867
P 6.749966187799007 8.00967245839454 1.2371021852418074 -0.6073549876200186 -0.7907468910185349 -0.99239105575902
P 1.774908132176539 3.5634552469304768 6.148558120974787 0.9150700132793531 -0.5045725676444536 -0.020691981131712753
P 7.166351479550707 3.858665877172886 5.967486733172684 -0.4827433875845041 2.082736513977342 -0.9230571452498878
P 2.7214553452233994 8.553409586129463 10.096559789573478 -0.9139204730559422 0.2866749171595837 2.0914849495939336
