# total energy = -340872.36690517067 ev
CRYSTAL
PRIMVEC
9.23204474693511 0.00000000000000 0.00000000000000
0.00000000000000 9.23204474693511 0.00000000000000
0.00000000000000 0.00000000000000 13.51203067652378
PRIMCOORD
 96 1
Ni 1.1172528087530802 7.685751008597074 9.756888210787187 -0.03450754685856638 -2.09480912887116 -0.601875452562686
Ni 6.912788840130466 3.363224625686366 6.543255020219525 -1.5621732273315871 -1.6190617129885148 1.4876675428135282
Ni 5.327711401932806 6.134028947637905 9.135362039955822 0.08959574608196183 1.6385172506099652 0.7857558655618468
Ni 4.994111469324766 9.22703162708275 3.1333725641911694 -0.22951620856040475 -1.5373654242592878 0.9910659091896932
Ni 5.405620626542722 1.5143322802185422 10.690393788913884 1.8306994986066019 0.7043513970414257 2.0114513932791103
Ni 6.712767361235051 1.0956313602359076 2.157466051500139 -0.14581445936537468 -0.15731654646770324 0.15631947266175658
Ni 7.8628216245489835 8.016258206254964 9.790034020612637 0.6239185484056545 0.7539032398276242 -0.18056574680363097
Ni 2.35304507052089 4.814335864297052 6.1259361373176 -1.2537537194060602 0.08667600133200558 -1.284319765118375
Ni 4.074378255373097 1.400113424089396 4.95799663394717 -0.5715510905475318 -0.04006267234884068 -0.5357808749264579
Ni 1.7918106135371332 1.33342113370167 13.651474243452242 0.1869109722953684 0.7087670096106181 -0.5093663894886712
Ni 3.002113200088925 7.9046243226214665 11.641262996575636 -0.5677360876768158 0.15221470646476368 0.02872179341472473
Ni 1.996180385452014 6.67384506108629 13.531217630136833 0.5512943971810247 -0.5392953158376196 0.30233910605940184
Ni 6.414618479995902 4.979404822233452 4.361493920078144 -0.5078175569443125 0.5606107894859442 0.9984956259948611
Ni 1.2838912142761227 0.45027543581251583 10.624820422334988 0.5027869364989406 0.20934590426011687 -0.8723228521198138
Ni 8.973842803178625 9.155307872373136 3.7650595233393584 0.9043793663347263 -0.27137762468088106 0.6278081132680479
Ni 6.535336695542677 5.406026836506323 0.9816479212447582 0.9279707805014211 -0.6318609431811828 0.02200067264080727
Ni 3.9571312886061922 1.993927766562949 2.4979013899502447 0.08835827413043491 0.8045148913369049 0.53085824081386
Ni 4.801004791855209 4.011849617112291 10.027764708992784 0.0010605800540304314 -0.23602341355130319 1.1759855620866455
Ni 7.664748107069932 7.227813898948349 11.91961098849812 -0.15959454386860256 -0.44928279393321335 1.2595878095893338
Ni 8.771494849037127 -0.16611771820606205 7.7266249629800505 0.5910127988165692 -0.46792869116917474 -0.25252809607454574
Ni 3.4364993638933687 0.9867393938567227 9.553600434502627 0.428865663729442 0.11178359503291072 -0.0050113371716623365
Ni 0.8017402979788751 8.515914925574528 12.671987543854739 -0.42401270651251494 -0.2578093990781431 -1.9823411061767149
Ni 7.3941845751772 7.8628400886382375 2.611767581974627 -0.020821050510409302 -0.5187277760989131 1.4312531685795415
Ni 8.192701043172216 0.14011843412661648 0.3389212831312259 -0.8919036024652188 0.23396755946353898 -1.3127574516337779
P 8.44819787823317 1.9313068078558686 7.766985615681748 0.20651100591448304 1.8803313027011166 -0.6528108059599724
P 2.0342164093165533 -0.09881611287293293 8.349664265925831 -0.9894903371724572 -0.17680756531277939 -0.9739053382500066
P 6.920922271447131 7.824988705666244 7.808588901590282 -1.3275808897998556 -0.01583773836320498 -2.122183407119055
P 3.2722058977056636 0.2406083166904817 1.298271970192092 0.36624053269905316 0.6889692581584005 0.30787726226881174
P 4.324114294586606 6.013024538707683 5.0038291194994775 1.3128926916600616 0.25331459653158306 0.9989301424291185
P 5.622389034392086 2.898640443905974 1.3305970512501741 -0.11612464561042582 0.05399342349731991 -1.0043304875090833
P 3.5630706957338627 5.471509729047871 1.1395020363049102 -0.49736190882862724 -0.5674962037518678 0.4675417401434012
P 9.072293327084317 4.712626428637919 1.3253717139911136 -0.9429934791624985 0.33905085965813864 0.6635803857716507
Ni 8.26074121207553 6.2405852067263785 7.908564559268406 0.5376541806897708 0.08946719092389753 -0.20392627590644233
Ni 4.536285144211568 3.7408706432113292 5.4381598910361575 -0.8227638102447637 0.018671351157258164 0.07662607329517125
Ni 1.0719880939453528 4.487475324266952 3.923933779330829 -1.498971912082754 -1.1594798511221387 0.9749168102336564
Ni 3.7195076919437216 4.3607932078909295 7.829248371057288 1.1462913774563226 -2.203496344366934 -0.5573601437591305
Ni 3.566901994254198 3.152106229148918 0.41058041352844793 0.27618018827584695 -0.48122335139555195 0.7493053360442966
Ni 8.039846080277757 4.570794527028473 12.179027749707831 0.44664329942783726 1.3749611788560319 0.7794972862466447
Ni 3.0111144436005572 8.094702889453263 4.724765644118376 0.2122142269468474 -0.38205461691317427 -0.8281186467987738
Ni 7.660999896951242 2.3226808757416495 11.79138158144256 0.2759433896746925 -1.7438448056048872 -0.13755144802563407
Ni 7.947950308057458 1.2000642490600992 9.720108668196426 0.9725917616449057 -1.2674438152986431 0.5704807403014885
Ni 7.401440962254269 3.37741427827855 2.4553250465379914 1.4044499323437685 1.1080073942744597 -0.15881010029409423
Ni 5.189212268433821 6.775508336522287 2.656424828245877 0.2793472731499189 -0.5527910363312093 0.4272926628153674
Ni 8.351482978717414 5.642145609894541 3.250589065210805 -2.3598248158897555 -1.1442270387281261 -0.3528833946658567
Ni 3.1700348598151646 2.6391461335213937 11.539179663109095 -0.48205073239285373 -0.1861499257596278 -0.2029086332752054
Ni 7.574107892918949 7.266145348240963 5.384327838814281 0.8859088183343646 -0.7292360760982473 0.5176222017395602
Ni 1.0094686877291732 4.168157364697367 10.848795364220434 2.349882874185695 0.2605679356598867 1.5063327233231991
Ni 8.125002459920113 1.4097701427695681 5.595358530927769 0.976539433438744 -0.5169236330106388 -0.11607605176067752
Ni 1.4492094374174596 0.8591359194268948 5.580482014215313 0.41847172208962763 -0.2992237003588718 -0.40043774740605226
Ni 0.9688753875028674 8.725870084488934 1.387617851686325 0.2320258623561359 -0.1768456176395664 1.777213353763004
Ni 2.816309069919576 5.681704921122588 9.428100019838903 -1.5766837622429362 0.29206317805469056 0.5720205739847827
Ni 8.320647949662181 4.937288234643639 6.109478171360485 1.7712368244645946 2.1380764242002273 -0.8976996403217057
Ni 5.425617235205487 7.893776670184372 11.236361213697448 -0.17567576570118132 -0.045026701222335354 -0.01097501095426497
Ni 8.482522620157528 3.4688207521335994 9.814450009038499 -2.753613690520722 -0.5098721254804961 -0.7450933548454781
Ni 3.7244929960424717 9.192152962480751 6.765054892390777 -1.7352496077367083 0.8032648209798876 2.0390696692170107
Ni 1.33342113370167 3.0413032295318794 1.9430435061905746 0.275446652543932 -0.7111074848183366 1.0371881574690525
P 0.5194428373648254 6.290669048829565 12.01516818961761 -0.19508708034825759 -0.0421105560168049 -0.5361899374394185
P 6.470149228429203 8.116010448453109 0.8237504155748577 -0.5859698370760231 0.13113191765253543 -0.3366340226865299
P 1.2864300265486346 6.174160645632845 7.688251046282152 0.3935885856947028 -1.1089291347577805 0.9277098135305506
P 4.528244033341176 2.000048612150859 7.118448328679783 0.17740431835651382 1.113018731446122 0.12530965454380355
P 6.867127147403765 4.670999139413355 8.912319534577733 0.1475599813015717 -0.9017486135800986 -0.6225473790897407
P 4.034625071207878 0.5745092139533735 11.84886213770115 -1.4153249273850592 -0.651178155452556 1.183344059334246
P 0.31261734157907894 6.795541873363561 4.572200567425213 1.409036523273186 0.4628453631089965 0.29313687073484357
P 0.713626894442389 1.9335317306110518 11.837132825002145 -0.9697108405526846 2.52006342110026 1.128029088812025
Ni 5.30318185935803 7.825099490201772 5.945265947165501 0.8327512604747787 -0.9963145591831423 -1.153074461816427
Ni 8.63619923502382 6.906788011122711 0.5883434328274056 -0.1650753644775157 -0.9219888518863735 0.11162444374722712
Ni 2.049818564736716 0.7778311488030538 3.1613964356573856 -0.17879014296044693 0.004099109770038102 0.49850450707350275
Ni 4.777804663706766 4.377217015282924 2.765278020037627 0.5298341704247198 -0.7029899979175248 -0.9533653093151258
Ni 5.80109372224303 3.5764202322649608 12.332403399919272 -0.4387878079391604 -1.2941354656572164 0.7709216287624916
Ni 8.595458222083478 5.910844268772555 10.09424373914962 0.7321079983294038 -1.6799318090010102 0.9670574620902377
Ni 3.8566866430610007 4.866293811459584 12.469225994113936 -1.0877684415197653 1.8526922008276092 -0.8891674344809783
Ni 3.5603564746134317 6.643794755824378 7.054225610229863 -0.9876805376572281 0.9595984347090312 0.4550842311063389
Ni 3.0606258989368498 7.535850299983354 2.033750191062874 0.04060440378492362 0.1440123731596294 0.5694224742403032
Ni 2.1807289575520485 2.0010549050152364 7.709113620730958 0.6528331745574757 0.5484003634626813 0.15873888073652662
Ni 5.625241736181927 0.9894813111110353 13.506720399718253 -0.5190283380584674 -0.1648035988733678 -0.7214829145153897
Ni 1.340852929626659 7.889096023558323 6.472856987118394 -0.08669554171603135 -0.11140847108167912 -0.48177588146491224
Ni 2.949675186605774 5.521538178883293 3.559068604387921 0.06761024294980615 1.2598006969310884 -0.8215512779939013
Ni 1.419306844869585 4.30999849835144 13.457090774210728 0.31889366798397334 0.018846957503173993 -1.1878123795182445
Ni 6.230780775332169 2.4606722467861326 4.3301326644791525 -0.5787488938475516 -1.0837372088731851 -0.40516960566408283
Ni 6.2000011385447005 0.5892518660187335 6.674983372188838 -0.0509752054962864 0.8684237741757237 0.5828598306921317
Ni 6.170310883023254 2.464928219359325 8.858744133196497 0.28071921379678105 0.6741645890454003 -2.5675077306251524
Ni 0.931190181334166 6.566264045044183 2.4120461445296 1.3270602414096953 0.3243942860872284 -0.08027266890882305
Ni 5.582709706583884 5.490647757560295 6.971059659409156 2.2976339441833074 -0.2045443691064155 -1.4995082442021983
Ni 0.6375917748918195 3.01062514523531 6.0354048612932205 0.007603523378870777 0.24976056063173757 0.01071635797623961
Ni 5.91533104246143 -0.1585723681321572 9.099379222816397 -2.15545373913641 0.3779236254639362 -0.1274351855272386
Ni 0.8231761823990388 4.04950712714711 8.219449046070936 0.3870209597795141 0.8757809858717434 -0.3771924037248665
Ni 4.832384511543454 6.93932173638937 0.07638132122409381 -0.7692141591530817 0.8392373824197547 -0.01788330803832404
Ni 8.811571154764303 2.5403447919198645 0.3600257371492689 -0.08133453451443412 1.0566511512896706 -1.0494343218262572
P 8.175372495406744 3.452563121544897 4.6797021878835245 -0.12683097628433643 -0.30184339736990595 -1.8162774096440009
P -0.43532044672072767 1.3386464709607302 2.084473813858733 2.2288466502062647 -0.23228117290005157 1.0821408109203428
P 6.854663887156889 -0.1590348935679857 4.585226059189893 -1.4167709158029664 1.2125397070615955 -1.0368749971040079
P 2.318064853427992 2.7030134182531613 4.4480249511655074 0.01250044645985589 -0.04400674459825324 -0.313654273961905
P 5.939038933064376 5.658264759813834 12.245155962168829 0.8732407359483928 0.5843166177433163 -0.6003808702950306
P 3.7517459917823066 7.540272449359838 9.660858328982778 0.3633711815710581 1.605001635351023 -0.2001675801949585
P 7.1370998284403475 0.11510513241336819 11.53523388723538 0.04237486542178509 0.5652953394458071 0.0749402009523161
P 2.7088203743237425 3.4612966357623374 9.486553633601213 -0.7390872578607142 -1.3814282746376145 0.48295241827151664
