# total energy = -340861.5384151026 ev
CRYSTAL
PRIMVEC
9.34795493822399 0.00000000000000 0.00000000000000
0.00000000000000 9.34795493822399 0.00000000000000
0.00000000000000 0.00000000000000 13.68167695785904
PRIMCOORD
 96 1
Ni 1.78867511565189 6.48302184668579 7.8423921255708455 -0.4544224291526238 -0.09697789747864588 -1.2629189308450959
Ni 4.272847436753736 2.011820151219905 11.609518932011005 -0.012604319027571842 -0.895683124112309 0.7180474064712795
Ni 5.9206301735324685 0.07807225118583 4.514269594082154 0.8840463112043291 -0.45335413578910955 2.8387552574860724
Ni 1.7610145165883504 1.4645441214210095 9.140454775899526 1.7583286010433585 1.1490288309921435 -0.7099114076277063
Ni 9.275788860685768 2.8290464276416127 6.663359791584097 0.29573059960394876 0.44563002767197446 -0.7416563041394711
Ni 6.769910587902428 5.4504467292276635 9.340453339909166 0.22005480603718874 -0.0966595949072787 -1.249201067038371
Ni 4.838903508296007 7.224838169526701 3.372806691537231 0.8403779237821011 0.5732387626625999 1.463773252694434
Ni 4.132188756757425 1.4676476425055296 5.6888410839076595 -0.8654523502522257 0.7906095941097223 -0.44401254667320955
Ni 7.105006733434942 8.925025542449472 10.40506576899641 0.37113282779434786 0.11332882803284354 -0.1180408887965322
Ni 2.525406150932624 1.1534628724732316 3.682067893632129 0.995832220230085 -1.83895736774002 1.1304680372708207
Ni 0.8318717176359176 9.146637513385373 2.34324722438593 2.9198949023808813 0.47969997277249 0.2863666418905455
Ni 3.3401178274394643 7.899910093140282 12.541487617782265 0.7768094550018363 0.18362664511714183 0.19766332571586603
Ni 6.319881334736856 7.529114107180711 8.269972264626555 1.223357623612706 0.5348172254616079 -1.0353454478333588
Ni 2.063402167317442 4.132413107679198 7.679101111545223 -0.6375963030030631 -1.574114201743547 1.4525470449613112
Ni 6.704222507598443 5.842275614103408 11.533845366097127 0.11174451426485917 0.050962092870163844 1.0660179372165512
Ni 5.4449594795993095 3.7416498896818724 6.118336618958 0.7851629691728542 -0.019531899385340556 0.4153313766884331
Ni 7.364300311273558 3.583660100978633 7.832774014595356 -0.8622824371646763 -1.7524153208827171 0.22832527357609708
Ni 2.6018069877512486 6.346420179191533 0.7766215639673993 -0.18560459477911903 -0.17861685060737625 -1.134999092371955
Ni 6.058531206781993 8.220171033970587 12.601618338794843 -1.0525258162673874 -1.2985006846044478 2.0233913392498053
Ni 4.85391632414462 7.180715821578102 10.047057785577877 0.21026481652996046 0.024084294642713357 1.1048343958631164
Ni 1.2688353339947616 5.091831128729328 2.1200302095638466 -2.440078715745501 -1.61889202017987 -1.3078723556273346
Ni 8.322465706343792 1.3187534140891524 3.0040859516040577 -1.5051387030150982 1.5892608275769984 2.868451756109241
Ni 6.820221282109921 7.2010476238637375 1.2807427591678393 -1.343663140073699 -1.7067018780060026 0.29714367790139146
Ni 1.7774762654734109 8.723913636990535 8.137232237373306 1.6038335831848507 -0.7285768452476936 0.5102066260017794
P 0.18975320524869427 3.1579729228253814 8.737037231118721 -0.21798532510266974 -0.08106739689597652 -0.11926241990845911
P 5.749983253659229 2.0889501285342904 3.6830531680969134 -0.22536027741050219 0.2410902865512493 -0.18500295663937816
P 5.557078852755138 5.907197162091339 13.34436945714314 -0.7330022280088989 0.25243476502979106 1.4151734894088595
P 8.95416311841468 5.387581731355982 11.991469832760208 -1.1078194466333693 0.3102388205224528 -0.2602187798505841
P 7.099313828794964 5.556536671360854 7.117919998573967 -0.736795376502744 1.1976229378507632 -0.3830349785485726
P 4.8053630454910135 4.919604404448606 10.271053485057614 -0.5088107740955172 0.715061327259762 0.8031059268045201
P 9.289315351677637 3.6697921590291416 0.7591306052287076 0.7649954930860438 -1.4318926019357532 1.6609195295645651
P 1.955040672101304 2.258082679685566 11.541506950075659 1.033202433348427 1.5586467022355674 -0.027155991589501615
Ni 0.2492566784758168 8.729634585495734 11.47528790592348 -1.0485789158044974 0.3567179379205985 -1.250302527632666
Ni 7.53337677469439 0.7744294685025802 12.584720975203341 0.568228196821886 -0.17267683097385747 1.0251188850093442
Ni 3.37479874076347 5.018262722298082 6.120497866171076 -0.7512735155142609 0.5912331423574915 -1.1529582479535367
Ni 8.868526501983085 7.585884238344239 7.002665321286368 0.9669651594867474 -3.1755090935799184 2.88302605437899
Ni -0.3083516460662119 1.4770610332649026 1.0906128313296686 2.0529034897763094 3.373793854929867 -3.680711838609203
Ni 4.43111766410919 7.620789502590017 1.2582562532376789 -0.22094389351036142 0.3105445246883297 -2.2996044376461167
Ni 5.210475374526707 4.806550235785393 2.1278563175516787 1.578842717567468 0.629382142623387 -0.02946021424264604
Ni 1.3321677296201355 6.582035386828072 11.953133869002324 0.48305397684638735 0.9027659991010194 0.24448491405509507
Ni 0.5129101425608792 1.113341449296242 4.89553622451995 -0.8961580068661984 -1.3151781452601286 0.42109013354908126
Ni 0.9536316368594132 4.400633982613346 10.334304553473844 3.5779831546897087 -1.3311837766597654 0.8716062856687634
Ni 6.952130276157102 4.651579836571009 4.078330513599404 0.5445640204357267 -1.2664601112291352 1.399572035426177
Ni 9.365342270293308 6.253632377128439 9.76179465374858 -0.9628974171752771 2.907135288722367 0.1233712998705101
Ni 7.560887806476749 2.1152085343367517 5.14686908381767 -2.049718407180109 -0.7576544793399402 1.03351636504442
Ni 7.125385275495948 0.7765897809201483 8.02468659746611 0.11359442298940436 -0.46210462828823 0.1297103547146605
Ni 8.213253547215933 3.9667860396806187 10.454293035210844 -2.855736365425101 -0.8049308958284009 0.2611955419415566
Ni 5.494288638524047 3.5492222344865474 13.07790506296737 0.36753996823676705 0.7838290808527791 -1.200437781591739
Ni 7.56217782427694 4.427387830034722 13.589243814280334 -0.42323134826180014 1.3382638234349984 -2.945960232009365
Ni 5.822261642290283 3.112579252986737 9.866048657505267 -0.7475006787353901 -0.479340275440226 -1.2521172122439015
Ni 4.8116822631209395 6.90242719902941 6.3116317643841775 -0.2759369619167893 1.5959765490342772 -1.6661897768245693
Ni 9.637554722043992 5.4018373628436125 4.273170875999291 -3.02731996333478 -3.8854048174783413 0.525917866089449
Ni 2.6584088557234464 5.423206788142448 3.745509660331867 1.7917933084597075 1.2866604974364098 1.7085309607949415
Ni 5.1113590068786126 9.190348551310725 7.024583471548037 -0.6595542953313931 -0.5778963160392693 0.4181022545653509
Ni 1.7403181440548334 3.107923971359957 5.178254842978141 0.6930459993309354 0.9630395991800963 -0.016048568822430425
Ni 3.1333597571159184 3.404123275830156 10.090523907080291 0.6078679227006951 0.02922033031769806 -0.3353147896544741
P 5.076322871261801 5.5002152420408725 4.476275765479974 -1.5809296820034837 -1.0117846297942832 1.242820103212692
P 9.020776646270978 3.292256297461322 4.241018584522763 0.5399329494216185 -0.5251593906568698 -0.5365277803948115
P 6.271384143813692 0.2446247667367212 0.6883329326813522 -0.09036476303750245 0.015081062702838544 -0.22488488043598043
P 2.5019427836972454 0.963119811259377 1.0759888904121284 -0.9126937997376926 -0.509929718191309 -0.2631526656679274
P 5.005128845419314 9.027394998463267 11.124038494023342 -2.8400618921126375 2.1758862959591494 -1.2120684238521318
P 3.0501442610484535 8.36680305725909 2.9937424393148357 -0.9723333657771963 0.15033600138481204 0.30049742486497283
P 3.238066201898179 4.351117864587131 1.927146374160918 -1.381811369008646 -0.21523475894072608 -0.7882922588304553
P 0.6884432385512238 8.373935546980443 -0.12675827080148647 0.4279796615800629 -0.5484612986076038 0.828421008530541
Ni 1.0624885736944656 7.217070018860327 3.6475215908611873 1.619509599159211 3.2638977067276564 -0.7153935137882002
Ni 9.272545120275138 6.6911260225399705 1.257583200472361 -0.043191704896125616 0.9064285355542712 0.029311090259291454
Ni 8.117044393595807 7.476531859890272 12.887223605779841 1.4423325663221547 -1.101735702333135 -0.22455860744481326
Ni 8.207130636642557 8.98640421546441 1.4280665311318088 -2.1509237124765406 -2.9401317982530464 -1.2008841251005382
Ni 7.804673126847837 4.608083801612357 2.057505477256854 1.214334079957857 0.7593424085653245 0.8161969556605233
Ni 5.1533313251602255 0.14009499830535674 2.491351550598567 -0.8042269277828408 1.2209963224693812 -1.2770828810503039
Ni 9.193068806237218 5.19089140864698 7.6644481919669545 -0.26537229902706555 -0.3342549809313921 -0.5524220830275647
Ni 6.588186341266669 2.5654808343342443 1.2305507839897845 -0.3318276024368221 -1.2247922991767035 1.0311782038295467
Ni 3.867090098817945 3.541304516538992 4.280380953747756 1.7850847860912804 -1.1696781318113791 -1.2300301505368751
Ni 6.902128064467047 6.784446658042274 5.225935957423358 0.8118857298796792 0.8443983577954038 0.6727548531820671
Ni 2.8140710036132957 5.779186265309955 9.698899742420664 0.04169995084194754 0.06486147656007539 1.275753620715919
Ni 9.322883858347854 1.7442910249612222 10.45702918166096 -1.705214494827199 -1.0090165801308428 -0.23234827869256114
Ni 1.4298819040071515 2.588121581523124 2.3217534712846137 -1.4572619339384774 1.0511034819985638 -0.1881466444746824
Ni 4.377759536547621 1.0488872990620053 9.403595037251034 0.31321538665227344 -0.27514763324627456 -0.6186902101271796
Ni 3.5358453107758594 5.586160340989904 12.172998707134923 1.2256682740237534 -0.9448678133670758 -0.08435815183210632
Ni 0.17050857013814705 2.2238504682051055 12.671983201022279 -0.28104677233952885 0.7871730576243475 0.2914641110181109
Ni 4.675258206773086 5.58685208966537 8.061381060313025 0.5560442531611843 -2.7928232708406484 1.1111860491127574
Ni 3.7076139852579626 2.264037327067612 2.1101110944349784 3.3904085806684128 0.6787478375407084 0.28167412151088267
Ni 2.47935812423881 8.79757552297252 5.468949136705347 0.08614249742603874 -0.2956701786796585 0.22651495984023567
Ni 1.3554628336641843 4.46134895081804 13.1416749428902 0.48421431570307577 0.13286098452850023 -0.7394531258405652
Ni 0.08436809892807197 0.6925479256241539 7.5953284773553555 -1.6111355161629026 -0.4199225956035413 -0.17409967946331306
Ni 2.3141610621736275 0.25378389311808525 11.351332152053134 1.2957339204925877 -0.3580708524040672 -0.8271107743595497
Ni 8.167196172567044 8.508873278471553 3.8494626599351744 0.28230738421950735 0.7794921440403221 -0.18789210526171513
Ni 3.3847449649620525 3.283366392186085 13.656722027980964 -1.33968230104908 -0.4032279085566797 -0.4251792160167903
P 7.849197436864613 6.59577688078664 3.2007603827894346 0.39994640959193056 -1.7172120335087073 -1.2234897783151961
P 7.08732975039028 2.224065471171804 11.199684016071998 0.613254383823589 -0.2006332069774674 0.5092522325083101
P 5.448857576865108 1.9665667007073686 7.500732780780978 -0.3789037299890184 0.7363549465312157 0.49651524455761586
P 1.962575123890832 1.3930322651060116 6.713393786321403 1.0775377649306925 -0.12701429593973612 -0.5487513190441968
P 8.940617931512662 8.441783004906489 9.254738200654952 0.28961831605862376 0.32168485757586535 -0.1953591030627216
P 8.26389141985101 -0.3604777131490473 5.870205434273076 -1.9596997146281152 4.1179821814625726 -1.8524736570589002
P 1.3792814231923696 6.325845330073976 5.761887874445784 0.9686350909900027 0.5946215992137502 0.3945576344761914
P 3.7045572039488115 7.429539689733998 8.252035408430839 -0.09196450342445453 2.2458557831697514 -0.7034741366427949
