# total energy = -340892.9862888451 ev
CRYSTAL
PRIMVEC
9.06434912831008 0.00000000000000 0.00000000000000
0.00000000000000 9.06434912831008 0.00000000000000
0.00000000000000 0.00000000000000 13.26659118773472
PRIMCOORD
 96 1
Ni 6.351044828386995 1.8974854768067795 11.448988743208877 0.26024963308851956 0.23065854969496408 -0.6302424337411533
Ni 4.8837352216368055 0.657318482685884 6.116667958901277 -0.9333171324149991 -0.9361995961691167 -0.11468354228852508
Ni 2.623621402770017 1.6233886304449183 4.687842858272273 1.1709914513061639 0.45588384418949873 0.8331793491511329
Ni 3.553396991101903 4.404847540596101 4.7856571536780566 -0.6653768155504411 -0.15232526390069895 0.49942958999093334
Ni 5.029961298078141 4.5116255706282695 2.7997417018807997 1.3722512361240369 1.4174345175288945 -1.0115547731716643
Ni 7.156666029847014 5.933268987624465 2.609936048802057 -0.018968313572386687 0.47419575512480916 -0.022102488325994193
Ni 4.800370404811181 4.365453880280329 11.440245272260741 1.609782601679434 0.8023129985895795 -0.1794347185229813
Ni 5.678325110486539 7.901420128449137 12.659339468060857 -0.7129681921761591 -0.3474866491303177 -1.1478384102284682
Ni 1.9855365620132717 6.6602569623842225 0.17580848550865155 -0.07355360501743462 -0.7118191661733806 1.0369901825256334
Ni 2.953056099161283 1.827789698121097 0.542234789757411 -0.9009798537348741 -1.232233328835781 -0.2662202488496576
Ni 0.582559358705128 9.293404995847261 4.9920460330678225 -0.20183339793315563 0.19361280979557624 0.04121375523414838
Ni 8.777172197341997 2.1253632081317964 1.3115242679597947 -0.6134289617282402 1.604121546738915 0.3792112339271082
Ni 6.68559181755739 0.3823378623063543 4.532225209936513 0.5995372913478126 1.054898687374938 1.7696545675791393
Ni 0.7864618871918526 7.382431767878526 2.387720816234349 0.08707606498390165 0.06326302172470395 -0.15668662619318818
Ni 7.654824516647343 3.6714963929091287 3.8647437792648844 0.002696315885240518 -0.15044733015169576 -0.16048568822430423
Ni 7.5983536230055435 3.5996070417898482 12.605410217850384 0.9559351269248311 0.7275108658770245 0.1924892377140943
Ni 7.880735284261242 8.850593423425238 6.8096619059844965 0.48675739383990363 0.17891561279471768 0.5505163813644196
Ni 6.921618398542757 0.7062179256922114 0.37394427522572715 -0.7004381780299485 0.2818978074859145 0.13940084252954701
Ni 1.8091624611333121 6.40008295593148 9.166869404519586 -0.7720747685303283 0.46097051468378675 -0.45023513054415365
Ni -0.15257202710564116 4.6705054781328394 1.518122533809131 0.7804102849792173 -0.6276525615267899 -1.0560058043961877
Ni 6.789840894246692 1.8729573486856381 7.195958169455116 -0.8696075100711798 0.5771892626699157 0.07340088148965423
Ni 3.3312388639322594 4.500548936273489 0.43395117137309175 -0.047463335688286 -1.1543209326290185 0.59824839733306
Ni 6.017494917595509 5.472600647871083 4.77204612737107 -0.08165977906433679 0.3587519376314918 0.8080954095993115
Ni 5.020017707335756 2.984119622838722 9.333815676109523 1.5438291776067605 -0.3346714996435204 0.13434039728750413
P 0.44045393527335297 5.299163396034453 12.642596709209208 -0.6944943017416878 0.3701936038095302 -0.4597250723124599
P 4.096578098884387 6.065490645016589 12.586757600685681 0.42188691841876375 1.563386788023714 -0.5187023221776164
P 2.2865635889545532 8.609971217547994 1.2756122240561916 0.7248777991295516 0.35919905247123946 0.504639416326647
P 6.462762928569209 7.607671773673886 5.789699671845475 -2.1579322825838902 1.7714664239768976 -1.639848567826879
P 4.677947308579055 1.0770984509900208 12.562651871223242 0.693628868417599 -1.8665270498281727 0.5697492614521027
P 3.8190186712430445 6.254273839539506 8.169381317041154 0.44336205757340413 0.21691163242251674 -0.5955006593845938
P 4.6376925351178615 1.1174348035913066 3.6591117730081986 0.06610640471077002 -0.8656909486255929 1.0273647436207276
P 0.10801168791734429 5.566824554677907 3.443582404188515 0.3233126229872755 0.6556462185262385 1.1580161220924188
Ni 1.407874671018363 1.1362433275570747 2.669556803686317 -0.30467032529573984 0.2116205592269065 -0.28855953577680626
Ni 1.666344579878063 7.012896391957352 4.662729173212246 1.9137556437978331 -1.1324925239000174 0.07773139054420806
Ni 5.902740260532076 5.601939842313273 9.118950724064145 -0.23709762045208843 1.2338505527242298 1.6571932297529137
Ni 8.720855397631484 2.43690487979611 10.359973392721123 -0.5242438208211359 -0.7348305394668893 -0.6698255953504141
Ni 2.2760398798826222 5.463318754598338 6.7409006616703175 0.12810470079043745 -0.5200464949103366 0.46335212754208593
Ni 0.7571640986799703 8.871051658890654 9.006529230407358 -1.3593458409162784 0.6946362266361908 -0.1181830708013513
Ni 1.3978404367869868 0.8484058346989688 11.547930643617715 -0.801228250165833 1.0464955509129075 -0.4425151361920766
Ni 4.41518089834115 6.931752340612024 1.3644419368331222 -0.970211177227871 -0.54489852095701 0.8147867055765581
Ni 5.729103593019665 8.00260545521052 8.1421574515574 -0.6493040783582947 -0.43701374675787313 -0.36572168408110567
Ni 5.369112976489312 2.8512634610236556 4.820508668760458 0.5951908414536589 -0.22708034542540245 0.30574504641715733
Ni 0.8416800878157881 7.584195110025046 6.86662861951108 0.11968768037133579 -0.6226329968250116 0.6379225759942303
Ni 5.059193823277949 4.742014126598355 7.129399561923434 -0.10897286505699297 -0.2169077757677748 -0.9192789091543782
Ni 8.184699160245852 7.203990995449557 9.356595291328013 -0.07023431083621452 -0.5280853060544131 -0.3234974853045719
Ni 4.581140062335969 0.2519834607874573 10.469860494425705 -0.004377817352721493 -0.6066520480157229 -0.2407527007061725
Ni 8.46947380961093 7.354060355824138 4.641210408925628 -2.301932314448345 -0.9194614574788293 -0.03200072127631263
Ni 7.309046799190883 6.178124244437618 6.873288196647298 0.5839612912864266 -1.6758172726120042 1.6988952374773905
Ni 2.256415564515929 5.330752651948044 2.526118014531475 0.2970161511845917 0.3049456904443135 0.05426596043241622
Ni 2.4002939745923806 5.0622938306014635 11.235768064053811 -0.6262158290802634 0.22894516654828315 1.3617433946141773
Ni 1.153093952160623 3.6303351845580187 3.8778780208197747 -0.13129261160011582 -0.9199679648016028 -0.20980947416009676
Ni 3.723652656474926 2.8023522343637595 2.662485705110078 -1.044359478406511 -0.8707917601872681 0.03287463924083371
Ni 1.0114635006111645 3.5822125562523497 8.18569895792943 -0.8247469021130636 -0.18617666523250517 -0.3496291493946172
Ni 3.8558471208203535 2.7379862928307865 6.834456525963272 -0.808706046600117 -0.15244482019769875 0.45356573757928337
Ni 4.184049065761332 7.147130334805092 5.9897997059689985 -0.10494240374136121 -0.008152711014121444 -0.08331968326526296
Ni 0.6559107893018437 7.0987176473346505 11.41832948949234 0.4543416965133594 0.3221350577394065 -0.4696274190278364
P 0.0306157448418209 5.697242406639098 8.020290906347682 1.001519243312533 -0.3566911984477211 0.08350068892781748
P 8.738086724888797 1.5232638325047378 8.214553499780143 -0.6419314400433073 0.6860502847393927 -0.20126621257577595
P 1.7577404098283473 3.191947014398785 10.317454344904919 -0.2107049893911726 -0.6660157346860206 0.3910784176783394
P 3.845957916171364 6.290558428182865 3.789562256625427 0.09563218208402886 0.338529697047346 -0.4201380540484571
P 6.832189532303592 4.014137845646478 10.508824504603657 -0.2890043366237087 -0.007099072938626483 -0.029396193773930015
P 6.314651467556847 7.5803608904407005 10.3768484910667 -0.6607560289489782 -0.03666315974898847 0.17201991411614892
P 2.5192816825917244 8.789563162287157 5.889729294122214 0.9936357267993984 -0.9118574198793264 -0.1072211724732089
P 6.898468051454289 3.679137639031125 1.4887504176362758 -0.5571266875920856 0.18979163627727313 0.9218307290419543
Ni 5.165518635865159 2.8948085931352456 0.2646617655927199 0.8365377241004045 0.5978575896525445 0.8894744241984359
Ni 1.5849285980657597 1.292548959974282 7.040314234507548 -0.020385248524571346 0.23216830147127113 0.5617407893253293
Ni 7.067898861077487 0.5288150212121967 9.517823771632358 -0.05181672756097527 0.25001741383755005 -1.0411530556540713
Ni 2.867162328992791 1.7017317979804043 9.171101549020605 0.0682303930323083 0.4266604285480071 0.29651067230308287
Ni 6.416435041345574 1.7400468007771763 2.5888297123903508 0.7139043308371834 1.426855296622162 -0.489533413923144
Ni 3.8935910696364777 6.654637066066741 10.332020753585876 1.3206790204736998 1.4426506117832059 0.7083445773612188
Ni 8.173622525891073 6.9545854354890215 0.39812342591425076 0.6939088615518629 0.4698968706391391 0.7234845183264508
Ni 7.4512664334187875 4.028813026514227 8.372372878463512 1.0115275194781548 -0.5134202478430706 -0.3627746856376397
Ni 3.0337559974105517 8.486333498563377 12.447166627638534 1.5841109079449427 0.11933183969381385 -0.12882615233749425
Ni 9.163059658677266 4.72990415646907 10.317613877445545 -0.46374782031860784 1.2709842243517337 0.024495156927886844
Ni 8.845299843668124 2.689990565409705 6.13976482633124 -1.0828946583672316 -0.41795030236851893 -0.6177458439360394
Ni 3.518481119142318 2.5036003589961684 11.520508268893071 -0.9500491004576994 0.01652910800327476 -0.8072970820677322
Ni 1.312345497970059 3.2723477891343817 12.684969821008137 -1.0902711533369611 -0.16903794866968952 -0.2227675769826615
Ni 3.0234317040144023 8.661801164553422 8.252735256648098 1.727673595161663 -1.6150975861344443 -1.3216845789200788
Ni 5.615346014335139 7.663372197659257 3.5452309191786453 -0.8723953572289621 -0.36325033972247767 -0.03239512850125389
Ni 3.0430197619854984 8.566117897573832 3.4601520339761893 1.0695570607180613 -0.6201750222028222 -0.055917379992910146
Ni 3.1341708545155056 4.2399217123757875 9.017846070007966 0.8776121255432111 0.9442255517973867 -0.5751197817353966
Ni 7.388731490363446 5.985796889495128 11.737709103649761 -0.18146589002039715 -0.4194968209200324 -2.3503870675156233
Ni 0.30443522212736757 0.020469112684095205 0.4887786985594732 0.636596143873323 -0.7259126681519691 -0.5058866584701869
Ni 4.610707968445046 0.36982815439061617 1.5720644741080643 -0.1932417996094027 -0.6956415279722535 -0.6281935216319245
Ni 6.213611170377851 5.458714065357562 0.3503280206038418 -1.4014581967052961 -0.4159888077667738 0.560180643927061
Ni 7.927643289814423 8.592023806727646 11.58014171386579 -0.05974446704848419 0.6929740084424195 0.4517502816370994
Ni 0.09709096036362987 5.108404173451518 5.5928102301020335 -0.08957723413920057 -0.23101387615185376 0.5410025283367134
Ni 7.966402445707253 8.758798762123389 2.6883952400034525 0.5371075641576815 0.6429675946173056 -0.7570366432502833
P 8.53670408539604 1.5932496703551937 3.8343763975829 -0.5652806841577878 0.8855828024535135 -0.7633700416674789
P 1.8082378975455975 3.2496234664441745 1.6995826408564123 -0.839991744087276 0.048655299113858144 -0.07723902428882182
P 5.077603515892155 1.0657317574704674 8.321097669610714 -0.852166688886913 0.028265936824228736 0.13746840139352456
P 8.515384736785203 1.6381363261038604 12.39050538266985 0.23253288389954144 -1.414516829661467 0.16037718767089798
P 6.445332185636114 7.875441704504129 1.4758817615041306 -0.27614444994190507 -0.6473754938770141 -0.18061125532958572
P 1.823882963745557 3.294582636984035 6.002946637612349 1.2514345843545802 0.9783656880142055 0.08445199709749326
P 6.92027687490568 3.9205847006581926 6.167929571230727 0.08947310446116849 0.05424024940080336 -0.8628748193330364
P 2.264899795085548 8.35282470362757 10.311948659383566 1.2897108542269595 -0.693620897997799 0.8790961662879052
