# total energy = -381160.70703018067 ev
CRYSTAL
PRIMVEC
9.34838682102501 0.00000000000000 0.00000000000000

0.00000000000000 9.34838682102501 0.00000000000000

0.00000000000000 0.00000000000000 13.68230906200058

PRIMCOORD
 96 1
Ni 1.2615180678532882 0.41494778339034927 4.822343872026104 -1.2941015270954874 -0.6753634944495078 -0.4260083967863051
Ni 5.244688099117854 3.093390567792218 12.311971359032485 -1.4418679679809105 -1.4373186580473312 -0.4471433789927074
Ni 8.780743482568221 7.514597963208116 5.9472483533339044 0.5914565712222072 0.8583357938121025 1.914619791570341
Ni 3.3811806579686863 0.16058098083473318 4.447161321917665 1.1106965110708487 -0.4104259689670157 -0.5482841495997912
Ni 4.961188918520434 7.31174731624566 3.6269749897530885 -1.3825225361430575 -2.2385121983204868 1.6195602498914883
Ni 1.2115135464190203 3.5552569701069356 12.839916834025857 -0.7818303052551954 -1.3083662645446175 -0.10416464503507222
Ni 2.65936366161346 5.242958647544599 13.506984067765279 -0.17590536521348415 -0.3109880399836515 0.21674142539323965
Ni 1.7066695544221708 6.052949628975168 9.986170294288073 -0.42236257250360165 -1.2386387181414926 0.2026648926955155
Ni 7.366257760157273 -0.0019678354387573983 6.371741774569932 0.6839311815138608 1.2253062626986446 1.7652775215573662
Ni 3.7261828758657964 1.6690609939940424 8.201969893256237 0.2640404675895195 0.5681238100335377 -0.8803603777123096
Ni 7.339325057548911 2.640451874950248 6.902629186915212 0.7267171663311356 0.11619535094736116 -1.517687486214386
Ni 6.846263088207432 6.946412356879205 11.892964506057774 1.011900072326225 -1.4865807375072528 0.7738709411988027
Ni 5.187962087515099 1.9266744913139362 4.557166594879614 0.14797161491769356 0.3485194612702062 -0.05897622142389197
Ni 1.7746790689920524 8.980957884429822 1.8237833407695392 0.6696440754672274 -0.05258754428872879 0.41642023887723767
Ni 8.112978859167367 1.566985957624484 4.746652787954906 -0.588011035875768 2.1508532642499216 0.4748763261316015
Ni 8.141715800444043 1.2904980671889077 8.715754431800061 0.1068229085935257 0.20064503405200929 0.9261141869086568
Ni 6.973952704634925 3.093306432310276 10.434142189179394 0.5095723348518901 -1.0487110705069873 -3.7334865592080737
Ni 6.0368610551504585 7.370081250392198 6.211863792428759 -2.734451772880291 -0.3661857682017178 0.7958124784669004
Ni 4.350692513161517 7.4290976167811555 9.822721228357802 0.4381663723050776 -2.383225711312199 0.1370616528734091
Ni 6.286986494577503 9.081705449862072 4.538955937232585 -1.448037587126732 0.9898631471308436 -2.049729205813386
Ni 3.386612070747394 0.10377083375003622 0.10292013054373256 1.1920693550223858 1.002030635731313 0.3462684604525004
Ni 6.087239512060024 4.128743111798201 1.1252728077509695 -0.0011546824297334953 0.30058252837961136 -1.0075595359693421
Ni 5.427523849764967 3.548208286397562 7.919033485549141 -0.7768423651223008 0.7886648116785255 -0.07356851741577007
Ni 5.5441075825761 8.596570912596917 11.491539164292899 -2.188700931225314 0.222470614567533 1.8589268688834113
P 6.879655526151572 1.1627243152794724 2.3458870088000627 -0.6130666932928152 -1.8325110978940442 0.5414540140518351
Ni 5.47880910020213 5.3117160330650774 12.937717787912757 -2.649054895371025 2.170711950847062 0.2760873714517245
P 3.2083850748333336 6.443758942596323 11.67737200777453 0.08810116381430634 0.7939548564328713 -0.04090059486910375
Ni 8.727055696702266 0.9734662228441112 1.1482866665782043 -0.775697195774264 -1.247616753270387 0.16966246962756587
P 8.552642842636248 6.558426256096552 8.139810599197398 -0.42038513706225666 -1.7964128095095901 -0.6713906258446889
P 4.390273583221845 4.336754068319773 5.9931115393792425 -1.6697121881555308 -0.7420591960048446 0.5327408025485535
P 8.611556376769498 5.057748406629342 13.688602658440297 0.3637625034722058 -0.35227095789283847 1.0579145913831265
Ni 5.887539271476958 4.2885257403931725 4.497251848511252 -0.21113410650879122 0.9618669190282338 -0.340435141600175
Ni 7.3369879608282975 8.522475598166555 10.154462759462145 0.9065871726193225 -0.33098659459276547 -0.6699878319598912
Ni 7.108307720909611 5.291916149648031 6.704345226944838 -1.1945944354370848 0.3762372389004488 -0.6851956500485813
Ni 4.432631124186262 9.072562727491029 2.380270375753743 -0.6845446467281436 1.3809479925670862 -1.394693881398269
Ni 3.45083548862988 5.12099024388917 8.470211571622796 -0.314522021278839 -0.3677757383966569 -0.32156890082329137
Ni 5.731823191175855 8.625934195794716 0.34783758363856015 -0.06608352189263458 -0.28566987293383705 -0.7363770580184027
Ni 9.164952835050359 1.1354737675171076 11.034372196063995 -1.103413861366506 -0.5054138325988263 -0.07539142955712176
Ni 3.464465436704504 4.653514809444978 1.9379346233138568 -0.4150063892488466 1.5120315734801897 -0.19204263709497893
Ni 7.3499822185949135 3.0983919547743333 2.965640186849989 -1.0375429697053098 -0.16585183763222403 2.723412227236677
Ni 4.327527210466787 3.0767223939807957 10.060245977105982 -0.5828408045287382 -2.0900315049768587 -0.4024954012660294
Ni 1.5000608559329676 3.1506961793816854 1.5636822377002233 0.228219087015536 1.519164584980545 -1.1461404537007553
Ni 3.6474507615417355 2.623549991466764 0.45946947591805526 -0.8949943255754005 -0.000806040841063128 -0.5667372140986562
Ni 0.17451942567647802 7.71702793276086 13.201184310259757 -3.7170952623342437 0.047629943173137325 3.2916923603424215
Ni 7.197108047906079 6.820928959755971 4.478082981208772 0.7794895729371607 -1.7370655778995245 -2.2392917567989885
Ni 1.9470352779439295 8.269508249127243 12.508996091289793 3.7965634330639006 -0.20139631039573702 -2.754196816717702
Ni 1.1358944449268182 0.9089417869040101 13.44188377119322 0.1301674968567371 0.6988487220556416 -0.575902168427376
Ni 0.4001651792131185 5.705657056291855 12.075253376072263 0.6152811844456306 -1.048505896474717 -0.6536302165374743
Ni 7.1801500741013005 4.197575284413739 12.152066266569355 2.979216422959334 2.9231753729043657 2.4853172758683266
Ni 2.008669192659975 1.6299660400516034 11.18679296998903 1.938286539059662 0.5286823162084636 0.40853492259188995
Ni 8.64412615666798 4.376624938373456 8.028450744976181 1.4295775806493316 -0.34998319029992625 1.1293956301422485
Ni 3.6328485812313365 7.0978001340537284 0.6346666596435115 0.48071735829341083 0.7601687611213618 0.4526902769528655
Ni 3.921928748797584 0.22044057172048795 9.888957353936082 -0.9546449473584979 1.3187854029954125 0.8473155314421987
Ni 1.67513744546764 6.838354352904872 7.177396974164417 -0.41138961843186567 -0.41017965728416456 0.7287642786681513
Ni 2.6617568486553695 6.7910702120534 2.880768986860218 -0.666850314772174 0.7925757166971575 0.3377336835086119
Ni 8.231974475794175 3.159670630788845 1.0503352036624982 1.929754847439567 0.7981149013478319 -3.224797655402401
P 6.050453609677552 1.3391377241383362 8.05558256822514 -1.0228979660986255 0.48673425391145203 -0.2920392667952906
Ni 1.1634534894563042 4.898564074794849 3.5544997507694567 -1.6648072946547456 1.0195956411982698 -2.060633768541032
P 4.236006502887523 0.9936774352839853 11.998920057822241 -0.3416073075314052 0.9387323898932995 -0.22297146546335148
Ni 2.4460241245688876 5.752969242303974 5.181654730885505 1.9138500032838524 1.0885693401545058 1.1293753184272741
P 0.7951233069327079 7.384187966197827 4.317288857153119 0.7214237791426802 -0.17623343797686425 -1.0066498796708792
P 2.8025248583314215 1.5507478096096545 2.370405023076685 0.6085958020056551 -0.10692189606523521 0.045267870698863975
P 7.701425475054038 2.1468196540089384 12.38704638440813 0.13230356936313342 -1.546197677838937 0.5518677531859915
Ni 5.913144503148009 1.783775049428684 0.4695507763320979 0.9351117624215767 -1.0248561182662608 0.03766666131283835
Ni 2.144996718566859 8.174435154532645 9.500024261562237 -1.1627878324494492 1.0749985434486067 -0.5730279322033744
Ni 6.013312468593546 1.0479541695235361 10.261800002807838 0.31424228525489106 1.3049963196311203 -0.510927563328204
Ni 9.172870918739802 8.403620207342986 8.594775087476796 1.1345571197385298 1.4850182781161392 -0.1997096667219335
Ni 4.783401296789848 0.43382778553816137 6.255825516582206 0.06757064796112233 -0.6056696294977956 2.1357788864153022
Ni 2.1425380928167725 9.13490711961014 6.909045919671331 1.4078641002316397 -0.02352096594007562 0.799052839781069
Ni 0.8337396234667652 2.7691885107085765 5.210825437313526 -1.5676612470293518 0.6728522979918798 -0.3027718227214463
Ni 1.59454500215397 4.130435169823926 6.936109499696047 1.1056985436356248 0.6157540103169912 -2.804117869917861
Ni 7.3335757996162005 6.712291355794927 0.65637828817802 0.14712109399194015 -0.39182763713953805 -0.7296237984549693
Ni 9.482162298745923 0.8753436844484561 6.783086689655782 -0.22755702795150487 0.8178206073068754 0.006986201509846033
Ni 7.875782238798761 5.792241815597181 10.19445609338399 0.6291743974879551 -0.5371749270605072 -0.9747453176527986
Ni 7.717364474688629 9.104076139671793 12.516603808534738 0.06569219999148686 1.0694621870114096 0.7041181979846971
Ni 0.9339608747175322 6.222650896052427 1.1506948110391255 0.2906351873589124 -0.8272979506696914 0.3168164737399705
Ni 2.840610186490555 2.139060492896498 6.081799685733121 0.9062485583329812 0.07066085685067186 -0.3270962583994238
Ni 5.449071881529032 4.985429285706648 10.34775281115991 0.30759726913454766 1.7380899053989807 -0.02063927351690639
Ni 3.0719079747363294 4.31069076569148 11.502745075648901 -0.006393819341485762 -0.3861640110958575 -0.8428179006821614
Ni 6.149256710638251 8.541172371931472 8.122338464114083 -0.82940265571752 -0.47641795958710853 1.8858468332027072
Ni -0.04887430146017841 7.716766177928152 11.046042722248055 0.4288983167395904 0.5436183686930057 -1.9483927742557283
Ni 6.709197039736834 8.106135839969408 2.4483126096777132 0.49939205188477864 0.8799924528499296 -0.7726144430838823
Ni 4.8053045672554475 3.0073106213785454 2.5264791465953853 -0.23983918775296756 -1.8787441607196547 1.0478078419664276
Ni 1.3688936395852 1.1761018569082697 8.905938014536785 -0.021418574885092145 0.2550151241624576 0.2445661609149917
Ni 8.439985432315746 5.145268004622913 2.601362530039938 -1.00602355894079 0.8516925774639719 -0.6155539784910431
Ni 0.10263220022775285 3.4087210057244075 10.07314862068115 -1.1224657357916348 -0.6472281696658725 2.3391626595547135
Ni 8.968786284708862 8.081390659891541 1.8053810411914206 0.043281436396454494 -0.7021713586709714 -0.13918024187830869
Ni 2.810396200086451 3.704831160226263 4.056476341842048 2.7461868019290314 -2.4169403299558243 0.7121472389367606
P 8.021439454814338 4.043130584728651 4.850461015252472 -1.2056272962124785 -2.1888163737572564 -0.5880840552055484
Ni 0.6064345312584885 1.7926747137407837 3.0439030121525503 -0.42899987531446115 -0.7547997834999647 0.30859177183733305
P 5.323495000536974 6.170795394015433 8.28731973065439 1.2708788091221208 -0.07375157996085363 -0.3247087320038537
Ni 8.512407385494148 8.981509439255888 3.8453579815207473 1.1691551694283735 -1.4990030224310056 -0.16460999480532296
P 1.525488468253253 3.9041107233996186 8.835282906479168 1.6612265192820228 0.13998448294715893 2.001797929349746
P 3.706756927924049 7.791385002023931 5.905243246554956 -0.08781525714277134 -0.41341230528884926 -0.3812112950762725
P 5.965140230988241 5.906609980717171 2.152063164211309 -0.5255224304232434 1.3261423575811162 1.505682234223394
Ni 0.006627071460974441 5.28780285941975 5.553142798497995 1.4537714042867158 1.3643728618172246 1.1368073492252873
