# total energy = -340898.6778120983 ev
CRYSTAL
PRIMVEC
9.02114412184052 0.00000000000000 0.00000000000000
0.00000000000000 9.02114412184052 0.00000000000000
0.00000000000000 0.00000000000000 13.20335629353966
PRIMCOORD
 96 1
Ni 6.403929863145304 1.9311292810248575 11.323950963925904 -0.6982666242999264 0.15260859946907263 0.3139304104414271
Ni 4.642831108491894 0.34314087138164645 6.293207947373201 -0.5426444348155106 -0.2871762822760344 -1.8308139126972791
Ni 2.7713315908008256 1.5699136450720188 4.824902156061769 0.1587820752696362 -0.39504460141493897 0.06372504896278704
Ni 3.3305342790814523 4.195887538959479 4.810972607262419 -0.1973481084682924 0.9301649599392626 -0.4348794740236898
Ni 5.140735121756922 4.416526684438725 2.7709355625693046 -0.313138510667751 -0.3298301123908191 -0.504227525600209
Ni 7.227127316055282 6.002317543348485 2.5042804625077086 0.004409184811289181 1.2378463041471843 -0.12261102466571785
Ni 5.190387499576768 4.497545580732336 11.576808223893849 0.23794839848815794 -0.3181249081387489 -0.4943904849051292
Ni 5.65015913619854 7.892662231327645 12.280098431980822 -0.2622926316604773 0.18101054765053343 0.18720587782796794
Ni 1.854666062565372 6.391065711479044 0.4037431140629976 -0.13434348261129767 0.9721541598868548 0.18652376415927874
Ni 2.779811466373255 1.4249258150719184 0.5071804558726138 -0.11229498745169048 0.4050482495948702 -0.4320692582684043
Ni 0.5284432928132706 0.13294279822955954 4.608354099489008 0.002161012207060794 0.12169236950619042 0.7548257516418936
Ni 8.644078439631427 2.377297032153838 1.3251149732411498 -0.10085280705301987 -0.33348982063059335 0.3033333516518712
Ni 6.737179951997575 0.7977406860186589 5.036578794752495 0.21533914572907428 -1.072931633617249 -1.7192414052339102
Ni 0.7521532357870444 7.413152331139408 2.630967097216544 -0.29101082553077623 0.012641857133726616 -0.2585398494862644
Ni 7.565510435972143 3.955248516731213 3.5604958750038365 0.3599778396187929 -1.204722782120338 0.9969761040265409
Ni 7.686962100686636 3.5877361221086335 12.557897351504783 -0.04833699654249095 1.499571493339966 -0.34953556123954643
Ni 7.739952301870098 8.748101253701309 7.047489271083157 0.3830213517018178 0.6814138144086458 -0.00440378549465048
Ni 6.773598311237895 0.6961878612378518 0.39488164408980825 0.18452550278232738 0.35900287730003333 0.12388706316466405
Ni 1.791436862685413 6.516667102537493 9.127678526611726 0.8007579953976338 0.020851646638028604 -0.5730402734985486
Ni 0.17438232634606413 4.795477889939859 1.5245652551623932 -0.6329441489430325 -0.19586895281960462 -1.236852058554715
Ni 6.462314708575907 2.0234697133220845 7.001356943740293 -0.8465611697746777 0.1123968031368774 1.0427764501901071
Ni 3.309415780448411 4.439476475349642 0.4101869173836218 0.5590316179242824 -0.9168350755995758 0.24089282582846253
Ni 6.032231657601866 5.623700120183713 4.727078672303985 -0.22459177467559385 0.9885102326473749 0.32355533512570084
Ni 5.333381656702924 3.079448771839491 9.216721730694355 0.57108366399281 -0.7105102175539699 -0.029151938973607856
P 0.22390660391790032 5.405090732155314 12.34653825709081 0.21269579456895626 -0.08974178474152286 0.10865019161025158
P 4.0784141988486455 6.122659607323183 12.540098633946906 0.22040550450838817 0.8813798201157594 0.02735859451861095
P 2.382754824410561 8.325541837011743 1.4768217514607673 0.5973120015617197 0.3335576977540513 -0.84380289030325
P 6.240421624049247 7.6786806902871785 5.7442388451025375 0.17446297634000277 0.2504503876099106 -0.14928519152279449
P 4.763515975947179 1.0809315434464932 12.671379737410039 -0.20120347765864058 -0.7092403497026109 -0.7445763059997436
P 3.9191819821157075 6.260556817961656 8.13268691363412 -0.013043463447519471 -0.6287226546625172 0.17610668259101284
P 4.796163496901034 0.8491368510173879 3.8890883470922297 -0.3591118920740719 0.9170649322221949 -0.0720741922584307
P 0.14427876806393775 5.537214410489153 3.5647475402775455 0.28120926605932217 0.32910557551996866 0.8358849210077539
Ni 1.437726818728597 1.0098449269456973 2.552974794810754 -0.22427810008991697 0.45480989439902964 -0.1405123304261709
Ni 1.6922132973437563 6.475837403770665 4.880409256484281 0.6859687807691799 0.22493964493331584 -0.33627303980268536
Ni 5.967252355742065 5.613461121487216 9.075247636370277 -0.4902841760462394 0.1883667309052885 0.4111749313178983
Ni 8.629671672302521 2.4023126650925057 10.1940869299688 0.2785474029564428 0.12536133371734537 -0.002421207846982927
Ni 2.269719887258915 5.159977222390958 6.983096343598046 0.05298040885177327 0.43486584717693494 -0.24946539798882195
Ni 0.5364712090599786 9.108919959308205 9.16439728995477 -0.2276339039360273 -0.2066693858692183 0.01898785395641246
Ni 1.4964725099282397 1.095554818236822 11.353460930917961 -0.04806523093834303 -0.3313552907860939 -0.08168728986816254
Ni 4.260018853262037 6.749917807644674 1.5788310461394093 -0.5784313626071329 0.25328194352143474 -0.19857529600717416
Ni 5.671061127370157 7.868792283705677 7.956553583193792 -1.1059762227770435 -0.14158473755474327 0.3753476372066439
Ni 5.136738754864809 2.845828199819046 4.981982829896808 0.691867405641802 -0.7444150978315308 -0.3688360613403712
Ni 0.7237871498828437 7.615460511551445 6.967570052270695 0.5876114864445041 -0.33850655711889444 -0.02603061973580678
Ni 4.912040094483867 4.603661300262647 6.965100965096041 0.6958109636705823 0.09282376610095627 -0.0729671363863453
Ni 8.12003115039948 7.053560501147248 9.163789264833937 0.6510295456898336 0.8975996244087316 -0.526211486070468
Ni 4.538203877758869 0.3950963473223868 10.341977764180823 0.1469424023222308 -0.3693819065415122 0.27989774633675024
Ni 8.291054002635786 7.181489347416003 4.866268612910043 -0.9396898687105624 -0.22140334964528322 -0.37016069368906573
Ni 7.2695447362058845 6.166069353338644 7.004353767852167 -0.41480712875384695 -0.5487734305313839 -0.7101991140714543
Ni 2.3122455611402284 5.285019302507396 2.628022595741182 0.2659623672025807 -0.11740299810221716 0.3719872053748432
Ni 2.3234949279900374 5.2677347901704 11.453159008445905 -0.36316986419352937 -0.6931642700763546 -0.524090325962407
Ni 0.9956276036455383 3.2790596301279566 3.6590726243044895 0.2664279939850896 0.4345737698578129 0.22070915179173603
Ni 3.6365675758039138 2.486723511615088 2.7117848219939154 -0.2305888727992932 0.3068529347693554 -0.1164123520541737
Ni 1.2719181878549135 3.3906962899245747 8.252665425496511 -1.0367598116823822 -0.40765123443535595 -0.5921451126487997
Ni 3.483605054308039 2.761715051055921 7.117401334605729 0.03353412720170353 0.23583392324831645 -0.46186834390770776
Ni 3.961428000526016 6.770756650806708 5.934023873100056 0.40636516863408084 0.9004414647329009 -0.4015176107337924
Ni 0.8773017654053492 7.242625641835532 11.186913468332168 -0.9080041075715072 0.3961167514331952 0.8721462173326334
P 0.19580844599721137 5.643429362605952 7.798773770681239 0.6588351577771814 -0.3369777791791938 0.5967044498847078
P 8.489934148241947 1.6921321070457223 8.02447197384242 0.03816854064992137 -0.24899771432378412 -0.11379008393997822
P 1.8568672217565132 3.290570610160319 10.319888590429066 -0.0876404221278039 -0.43754493667099487 0.7595375552952661
P 4.039587194099987 6.022867709895289 3.789640155259346 -0.46331818898035687 0.8610187399609042 -0.37132926007587014
P 7.028120874429958 4.048806803498948 10.331784773319876 -0.27481904626226217 -0.13652377809206812 -0.04670820268981633
P 6.234034653937247 7.755297268198506 10.124901068556419 -0.13923732036848924 -0.2781565952759274 0.27528544437571945
P 2.379732741094855 8.531611834566018 5.7331617821074445 -0.21256698230057586 -0.10085023594985856 0.49853998829712853
P 6.808672519988542 3.979596584997158 1.3729513947283036 1.0471622379626289 0.05260322801801263 0.9453282979432623
Ni 5.132174055886459 2.899513029107908 0.6446482600459296 -0.2617280174062589 -0.5412272427530098 -0.534403277852641
Ni 1.4687415125775487 1.1520452233799672 7.021901697600561 -0.5376102148257128 0.29358038603016534 -0.5044023606151765
Ni 6.844991646642375 0.6259239730904662 9.30812847456419 0.06837925990534674 0.8939527716847636 -1.017348754145622
Ni 2.7956977013552224 1.599394744402552 9.127638833577134 -0.648089232114587 -0.1383909132077939 0.9375075163472628
Ni 6.335008321258746 1.940790926490892 2.7091831239991397 0.10793953869647217 0.3042489214876051 -0.33131055359108746
Ni 4.043547476415196 6.874301344232613 10.367393935923126 0.4040131234621364 0.08321709624912764 -0.1678179602196594
Ni 8.334220177757144 7.0365015174159025 0.28863602008264155 -0.2489627473207906 -0.008513436787649854 0.10343650861979606
Ni 7.636597052472938 3.8594529861954325 8.041425410186323 0.5568261256325313 0.22724412469677638 0.21864198485006217
Ni 3.1630206519490565 8.233291616156777 12.381367992832933 -0.19973280665038506 0.2370012040835402 0.3232151781774627
Ni 0.16699040076728844 4.865842814902576 9.911007032614945 -0.40619881825954557 -0.020621275794777388 1.0496847472741664
Ni 8.484927413196521 2.3724887622813853 5.788140243478314 0.9671171116835797 0.10560086326096652 -0.45305434516050364
Ni 3.596531737728973 2.6261904013488833 11.5698763766706 0.015731808912960003 0.338483674300759 -0.22851990608540645
Ni 1.1742191958874488 3.151148826147654 12.549143233147884 -0.25032851732006567 0.8471975178070957 0.3070838198332389
Ni 3.037599683775127 8.350349983633214 7.946228883627148 0.4145759865796473 -0.05567852450922669 0.22057468309640074
Ni 5.61842275081151 7.796054797811526 3.4575366538381975 0.16745929132865997 -0.006302288068943984 0.8037163066950094
Ni 3.0832556947028587 8.34329544884849 3.590863752811784 0.367128077510329 -0.6742275810728517 0.4069876327094281
Ni 3.545273596236902 4.452097056121802 9.462198792571018 -0.624743101189479 0.5277114676547622 -0.5140617380818114
Ni 7.314109188682272 6.1768045149675705 11.184615782897808 0.1500197556959739 -1.2479522822329345 1.3975848297928188
Ni 0.61467550835508 8.972565364332375 0.2684755669664006 0.12720121513956156 0.3495021368984497 0.014402548578575196
Ni 4.612862867373157 0.2844420901319791 1.687296773740592 -0.018503715231142328 -0.3717766320259339 -0.3313810018177067
Ni 6.166276839655842 5.756906335824671 0.2896815706984337 -0.3219717926886648 -0.2871361730667184 -0.4460642869959156
Ni 7.941241092984598 8.744988958943344 11.359018857875594 0.18427893398916004 -0.494877966064509 -0.06539163803193254
Ni 0.009360339248886528 4.765825388869032 5.757389869155184 -0.30026242603603126 0.09734170857596784 -0.287565290184337
Ni 7.841449195556703 8.89956626525567 2.591184753294354 0.516342306585872 -0.06809103924096661 0.19186471675621797
P 8.432216867484067 1.7767594610297281 3.556627608359732 -0.6706092675939741 -0.8867827362988856 0.28502272626814135
P 1.8381483474875855 3.301224581491213 1.5753055829758926 0.24137465056088755 -1.1785450952837058 -0.23027494110330018
P 4.708351679005254 1.2771504515059873 8.154868103056982 0.6642509294761141 -0.7446200147534854 1.3349648409687525
P 8.422104164806733 1.5270632099985697 12.35616291586552 1.0310095394621663 0.32098808861915684 0.25434483756831033
P 6.476369651279999 7.754007244574189 1.3118132960799285 -0.6782472437552061 -0.4619593609596173 0.09734453678944525
P 1.7080454054603675 3.257986237216046 5.83312417916121 -0.5067976003202304 -0.6993716844386472 0.889816380918887
P 6.802763670520518 4.010954082326697 5.869103208677723 0.5683320693896018 -0.6108246913361738 0.7064141931077252
P 2.3921909412709463 8.470728132184815 10.195869508067855 0.3747246589106643 0.4764660392162246 -0.23159417413535596
