# total energy = -381161.16862123896 ev
CRYSTAL
PRIMVEC
9.37732680533633 0.00000000000000 0.00000000000000

0.00000000000000 9.37732680533633 0.00000000000000

0.00000000000000 0.00000000000000 13.72466565433765

PRIMCOORD
 96 1
Ni 3.8768962374701217 1.9296193658111818 8.727844450869494 2.4422620965500648 -0.0033362634620845767 0.8575683195184586
Ni 5.228787893363863 2.0588014160282384 13.330822392555758 -0.1519966769166866 -0.43227803184510066 -0.4991120587505146
Ni 4.658477648728196 7.136942558757882 1.4255261747035866 -0.1826840786982144 -0.1762583776775287 -0.8216914031161914
Ni 4.055665590354701 4.043409424585705 12.883892446215741 1.081049891849009 0.023624067176843188 -0.7269010002071675
Ni 6.462778422850881 8.623464491580071 0.023635551507846356 -0.6764978651642671 -0.07473605536131 0.15639994819070482
Ni 6.9584826576486485 3.910091973370846 13.576603996257784 -3.707027850795912 1.1786227425991767 -0.14154899922080139
Ni 7.383153644014781 1.6243405007693497 0.548219138806592 0.15559056491553205 -0.21436932561663727 1.3243055614826933
Ni 6.7280161036282795 2.0463577037287295 9.50109129431159 -2.1856477462212873 0.3281817781541187 3.7242131043259477
Ni 9.102448953182643 2.2075539467042815 4.57131539867248 -0.021083045922544334 0.12146508398673275 1.9659564941711043
Ni 4.79991586471425 3.230442101446352 10.692049272372497 -0.3445908156397614 0.33765500775187657 -0.703758243542117
Ni 1.8876558296089947 4.794598920574218 3.2630254979249527 -1.050979040605558 0.9327147229443098 -1.025368539126305
Ni 8.851802392479122 8.24252935612947 0.3826586880660125 -0.14610550824323226 0.060698346321321275 -0.030153640765244842
Ni 4.704951678989211 7.5015048820947365 11.130923157494346 1.1491620141358982 -1.0849600255366927 -0.7514514358530219
Ni 0.016996404327701456 6.556026557821729 2.364787331490103 -0.24844338448221084 -0.17477562248441514 -0.7072096924258272
Ni 2.2903088532929523 2.7054524759090466 4.058452531798118 0.14851077525061518 -0.6148376691503089 1.1752471412587244
Ni 0.3927139952994439 1.662909444769259 0.010105007064017152 1.2570794413451836 -1.3711266356012903 -0.13573033565649528
Ni 6.149706999466251 0.07963319458828885 8.203946346139771 1.1111305132844735 -0.27257241631993057 0.6480437235886324
Ni 4.881939339833922 2.6819060090031934 2.282082124732018 0.5566857433999252 -0.7568399538584449 -1.0762391007239271
Ni 8.346064418298932 9.350563635724246 3.659572006575421 -0.2842804487854782 0.13842305199730998 -0.3009111153636237
Ni 9.184284881771802 5.901461034353291 12.137160931257513 0.6815056027915037 -0.016997820109577177 -0.9135499770904009
Ni 1.6063360338401431 6.514653793190657 10.740895766244495 -2.074162656265402 1.905250948760932 0.860978373641272
Ni 1.7913694408438425 1.0921022018277333 8.928430153915947 -2.1879427129030513 0.5326947798019664 -0.6424592875223194
Ni 4.224691900979153 9.220884587201331 12.957703258764269 0.48876645385013245 -0.2715797133893581 0.09131015766990726
Ni 9.333675070651589 2.137739750720978 2.360738201896337 1.3528553480959282 -1.9207935244812209 -0.14022205287926173
P 7.9505381627744525 8.745979262637405 10.372923846982923 0.5350864199625947 0.7744126726348857 -1.4498286175888837
Ni 3.4917225504299356 7.632524888310818 5.7556032843757094 -1.1635936161801959 0.8255585993810813 -1.9651550813157317
P 2.036849094631742 5.402221547455361 7.319830433452518 -1.7262409764801947 -0.9785880884376565 0.3427743312563129
Ni 2.232478880609402 2.651645376304991 10.690210378640822 1.1389915013607996 0.4125430153100186 1.1030960730157713
P 1.2756258592608065 6.7418101509474795 13.64379910494248 -0.727463814689173 -1.1476324648652494 0.9133041796281819
P 0.723688610486803 4.378489433325984 10.691720128211449 -0.2920629209443744 -0.5684284857581501 -0.17940000863030395
P 0.6437178321435916 1.4534199701867208 6.614135974835743 -2.3865838291511543 -0.4596088584495697 -0.43035947466614916
Ni 3.1937204907719914 4.870105153758578 1.0299249005669018 0.10396461320912416 1.159180831824481 1.253656017485931
Ni 8.6981173880506 4.939806821823574 3.9809901883005123 -0.48999158450648517 0.5731408036321549 -0.4340387232899493
Ni 1.8503622020165706 3.3506500501783822 8.411476897211106 -0.8182985753845585 2.8446669949848173 0.5589035769868503
Ni 7.10460015957099 7.473672976966672 1.8597742246503437 0.27494708719969424 0.43374767441209167 1.435446894945915
Ni 6.940543832005122 6.038932641219003 6.622700287151599 1.2001367054115524 0.16980542296333337 -0.5395585968013353
Ni 4.713006802474726 3.255310771392318 5.478433893327101 0.22394077135515625 -0.8022412648113797 1.0724693492688497
Ni 1.8395032578998929 4.558477838658896 12.758983643696414 -0.6878896519409766 -0.12419919508844418 -0.6652541739296479
Ni 4.7291170494457555 5.997212915506482 6.274312914338801 1.7926741684027643 -1.1958308789473469 0.39360761185809634
Ni 9.10515900054855 7.196694883379186 6.709426491523874 1.2382255418634738 -0.5541254388719167 -0.1651851505825026
Ni 6.539484953830521 3.966037103422745 4.012377975647095 1.9404467799357743 -1.2096125061124716 0.17660933325904424
Ni 7.995727499301456 3.6833294633281004 1.707595218861836 -1.4229071106076914 1.6857800402516712 1.636203257764808
Ni 5.648451387365311 7.090721716313061 8.625321202232145 0.5467363454966971 0.2669476139339854 -0.8192956491905052
Ni 3.371974090697661 6.5231215190433 8.429826449756456 1.2695989139684327 0.7374409805065429 0.5503060651258264
Ni 1.1489006685934646 7.1301064877207 8.662239736763544 -0.47699440091586887 1.209351539141601 -0.9895304463817732
Ni 8.496617395667897 3.333020676310201 9.276433056341196 2.989941779796638 0.9773130783799749 1.0278254853072297
Ni 1.8425321343676708 8.93286938029318 6.66436843756823 -1.1397713169496178 0.5137058974042895 0.5047769703457758
Ni 7.493327853364389 0.5919202936139779 12.262892125313137 0.6101117244295492 1.0268888324255734 -1.8938853872364674
Ni 8.13210195896367 5.854161799358021 0.42652300835494444 -1.2160407782363187 0.5853232046309597 0.2204574407922461
Ni 7.950013032489017 3.717884911575041 6.381365411688027 -0.6278240541076479 0.313878217047253 -0.28679113102247383
Ni 7.569143538324094 7.588535849579094 12.051272122143978 0.17025690867845517 -0.8065797442857335 -0.2495438166352412
Ni 6.700587423540816 4.573781635548721 8.476174823842026 -0.24391567181518636 -0.151819527908874 -0.3565294760588763
Ni 5.105063447184723 0.29554613784088246 1.4554042124795439 -0.06494375186123655 0.9257048672853799 1.105301308197206
Ni 0.7166734325129803 4.453761233347203 5.640604440528666 -0.2620082676508391 -0.6482080170806385 1.1761724812864711
Ni 3.4856835521474308 0.14871689683524575 10.897219550357333 -3.522546828098276 0.3989341662773323 -1.5478686377834567
Ni 6.76980147062648 1.4831648499260142 5.357272270487415 -0.9948212624670673 1.4946640287360193 0.08458595157219626
P 5.261064651265077 5.368556945228355 9.839569646184756 -1.2480214449079732 0.13574473383419847 0.6446984612654832
Ni 2.11598435318152 2.9092217813109515 1.716900339973217 0.8844618014751929 -1.0800224790257593 -0.527135283436318
P 2.3973979222156285 1.3265728742745457 12.602084091734906 0.002388811947150725 0.12990730121681499 -0.08218376988860684
Ni 3.036959723243061 5.052888002396127 10.457193191805484 2.862737736443599 -2.239272216414963 -0.18516159370442947
P 8.094545766228528 7.0673159093050915 4.879776928337111 -0.9662593916689747 0.12346360247400028 -1.3129525983637194
P 6.595889572882175 3.012438014378543 11.771714326029292 0.42926469894007363 -1.4266807187175106 -0.8061130890619601
P 7.051824565884753 1.987580621066091 2.71068971277361 -0.34684258778841554 -0.9403375295968902 1.6649093674502486
Ni 8.97113824984427 3.587615091481011 12.915527794982602 0.9904149058692555 -0.2602159516371067 -1.7643030734592389
Ni 8.189041085627284 9.17230065847205 5.964807688231868 0.4500834354576378 0.20707844838217884 0.12830267573385645
Ni 4.3443653420992225 4.179014943472818 7.687115932412415 -0.8818071374611652 -0.3348753881242103 1.0343434889314058
Ni 2.81668632315605 5.105626086776261 5.376500478528215 1.5603135484150288 0.07047316631989799 -0.37061346495576813
Ni 5.8783834337737195 8.160880974070823 6.008384124596463 0.8893890635734812 -0.04581911521664367 0.02830656025417706
Ni 2.5801620162001253 2.013293250399364 6.826703087983993 1.6560999966887349 0.0015943410703133831 -2.671891690759882
Ni 4.319984293132588 0.10834750614241553 6.988229412853246 -1.5915141423875494 0.3545502408453184 0.7792813135810966
Ni 1.178945622781578 7.084476416846991 4.367257271613586 -0.0037877491772063793 0.3252185817607367 0.7147707926025368
Ni 3.1466556889398625 6.614184736933677 12.566372419127354 0.7541876038372624 0.03338834565245863 1.45887890071661
Ni 7.802338894363421 6.464306927074558 9.599072165979923 0.2935973553110298 1.5132852433816324 0.5880043510075487
Ni 1.018302642071038 8.937942513943545 10.331296956803005 -1.1269363699684785 -1.5966748606528824 0.4509360132659202
Ni 0.6796873812305969 8.739527661987774 2.312798495499367 0.2802474163666851 0.08489602661344733 -1.3784097995262647
Ni 4.488916830491784 4.420218536365031 3.591498242395274 -2.8389450048993754 2.9632907528680126 -0.5485150346636747
Ni 9.062886012571017 5.369203980758623 8.093421424778105 0.8407108816414876 -1.5226674559274809 -0.7762114164065212
Ni 1.3249881060917146 8.71746281267297 12.82498595644705 0.6654009839201572 0.9125824709708089 -1.1468086834123734
Ni 1.6911445749379261 0.23715258783314194 4.033473209399149 0.011123363606671165 0.8025623955962242 1.598559222159789
Ni 5.561082836126031 0.34074954035767413 10.566935106402259 2.4323193835150563 -0.20830563592106058 0.155068630973791
Ni 5.820478442477965 6.985414339430253 3.859430966816139 -0.10282458606741002 -1.1016362006407932 0.35716505276034616
Ni 0.21671001600727205 1.6401881825976616 10.924215935691961 -1.3037498488185286 -0.02655101101565105 0.7627681464174219
Ni 2.860384664765479 8.922226114686591 1.0178168965570105 -1.1635720189136411 0.26949146340176167 0.48145706467291277
Ni 6.062676031981894 5.346585869178808 1.913822321546108 0.24485720979284925 -0.9584944030115751 -0.2662145924227028
Ni 5.96287314576963 9.303208136769822 3.805973641491489 0.029326002657626915 0.5527272729728094 -0.867658613874925
Ni 0.5495244626589595 4.574522444344246 1.1168367760043834 2.0421891886825994 0.3635812406993351 0.15789555889962484
Ni 8.747442125575404 8.95429657140424 8.227745063129163 0.20187916356942653 -0.06772594259206402 1.7490356057772072
Ni 7.765204681321933 1.7311951365288851 7.706907717777407 4.192179333601277 -1.3324721564538857 -3.0265059520739164
P 5.942486837902916 2.574629393550005 7.545546433855003 -2.625061360669905 0.9804315694042987 -1.3725050040060556
Ni 3.7431474292350844 8.48652739232632 3.180731955801343 0.3575383769393649 -0.21595749603936357 1.0237492583553274
P 5.631994179312834 6.7082580766387805 13.063109097575595 -0.6200904329088159 -0.22069192540055543 0.04441812110405899
Ni 6.8458047021166974 5.381488278507197 11.491442915366004 -1.3145963046147295 -0.8838393373998455 0.3705784979527747
P 3.176438077985258 6.523965478430606 3.5870918366608815 0.48410684359093403 -1.1950394933943032 0.17625477813310292
P 2.981886684558046 8.821729306311433 8.720707367650837 0.9828790025035266 -1.683640625311165 0.05785702021778422
P 3.2976212686759534 1.163398015402086 2.6810854929322008 -0.5699886311564184 0.804149537577686 -0.3179924963259427
Ni 3.950208176247484 1.0070029636076558 4.918988219204026 0.23198318204365853 -0.14347964058461093 -0.7770495960371004
