# total energy = -340857.10677715356 ev
CRYSTAL
PRIMVEC
9.41945098870985 0.00000000000000 0.00000000000000
0.00000000000000 9.41945098870985 0.00000000000000
0.00000000000000 0.00000000000000 13.78631865467663
PRIMCOORD
 96 1
Ni 1.9355464997207348 3.264762929036846 4.756735228906015 0.637663665905889 -1.0632714848196656 -0.5999262992561153
Ni 0.3233471512322784 0.13324378816087687 7.508898220077857 -3.0739014106387446 -0.48175994062531224 2.6003630865922767
Ni 6.719487929377871 1.1585548134144337 0.2549817167443225 -0.800386470990828 -0.7915603880587658 0.02104627914733795
Ni 1.654828016604398 7.333805694356102 4.757603702301872 -2.074626740386014 1.2422135799769445 0.8879860125783674
Ni 6.68578513316989 5.819647761197761 4.732567743095278 3.8959321993722256 1.3376189907621479 -1.5667114815215726
Ni 4.0612999764755005 7.488774504645008 4.526724477155365 1.1733427251471598 -1.6840129210489192 -0.23918664177063323
Ni 6.760669769797461 5.3025104737147055 10.648497366148684 -0.8513043408866178 1.087257820431934 0.18112547596184292
Ni 8.18545595046242 7.651938237432781 8.154345387210402 -0.24811351194661785 -0.46209074433115904 -0.23166873612703326
Ni 2.788355348318271 5.775508213117661 7.984195247506068 -0.40187782228668856 -0.24623223576350495 0.018806076962909545
Ni 2.711925921702408 6.455187549612711 2.8591999823484127 1.956456010879837 1.5679800638213512 -0.8991286594587483
Ni 2.9855327192019123 0.39318861371514496 11.353860720089319 -3.5267901767556613 -0.6414172194110501 -0.1615717221996314
Ni 9.19294160636327 6.665373182531909 10.30144051443147 -0.4231359603345164 -0.6736259429331108 0.4239610273389731
Ni 0.4928661877096885 4.659934355292108 8.605889384678393 0.57334700610569 1.3817571187319428 2.0105684764535248
Ni 2.3833566267536104 1.6574654629258723 2.724962442091409 0.3096358968311313 -0.638625772708842 0.09643616604256296
Ni 6.590196542918746 3.9357763704756246 3.5269128481048893 -0.7624650133547062 -2.2664829725018 -0.38550195203182647
Ni 0.8102753169381908 2.6016524071113416 1.2649964952784438 0.09317317902057502 0.8364243384509917 1.2294591085247537
Ni 8.385864193089867 5.280629088697618 2.248134753851628 -1.1152388790258922 1.095269377882501 2.4236583654059487
Ni 9.188109427924283 6.11114209642755 6.472622011742771 -1.0016902216727588 -1.15154876920052 0.07808825966299456
Ni 0.8490749781624207 4.1694446951070905 6.497781365759405 -0.5459578154594598 0.034683153204482196 -1.525614968591579
Ni 6.168497134468465 9.086181547050453 3.520805275980447 -0.20107080873551822 -2.5185626681850173 -1.1892717376725905
Ni 7.872730172344763 0.2943352416960621 11.738512485228922 -1.9780903013201612 0.758805562225248 -0.5960063953764188
Ni 5.020087069940559 5.293976450974507 6.025972361091343 -3.5018286217143175 -2.131515226042942 0.8864294667245249
Ni 5.855243867086515 7.546675870852515 6.07600283391948 0.532231981232935 2.055190228927957 0.6763605682554545
Ni 2.5247143301334796 1.1380486682649718 0.10362903375118081 0.01639798174204918 -0.36701777718470985 0.7414084497947231
P 7.6665854839681105 6.3024134714413185 12.720056972667843 -0.6829726742553334 -1.8075089194227514 -1.6511179700931111
P 0.4331779516193828 2.3819813868859847 3.5158148507621716 -0.767441383523375 -0.2248853946566127 -0.6968070090352645
P 8.976736944160422 6.323032650004558 4.271070211599066 0.5356484631136517 -0.3933525584244968 -0.8236431275259234
P 2.3020102466384276 8.692476747412393 2.8112370790472894 -0.7254897216819376 -0.2492607381771836 0.272849067020085
P 1.1762068648660144 5.2251579408863265 11.234857258174175 -1.801173721233343 -0.5366712479512111 -1.8084304027957565
P 4.1544583483304285 4.889674768794808 0.3291721398222771 1.1852137655531332 -0.6815516255380907 0.0643182024620957
P 1.18881950995335 7.4071737993488265 7.275178088465076 1.3947720429343722 0.9889624896934454 0.36134360961806805
P 4.880877001422462 9.134927206741986 13.468875080590113 0.9990849228394277 0.12560661695893208 -1.0040903464738191
Ni 5.875684076077939 7.761618326601515 10.838156131125896 0.24319396315781341 0.7374255538875751 -0.3266252323002762
Ni 6.636643856530137 7.6154001864292145 0.32417135320773904 -1.4499358325907092 0.8600116388526285 -0.12428095616897307
Ni 4.9550551792139235 6.427127004642455 12.710393557734985 -0.6240219067527383 0.18047318708982465 0.16502317108334158
Ni 6.90278102926918 3.3882142557841353 6.309226560456755 2.448597037629157 3.909104475088126 -1.2185720292986044
Ni 3.961802313997886 2.3033760670549053 5.323587437603744 -1.0270348710851345 1.4993429222689274 1.085378344021034
Ni 8.66453865530706 1.708716696622805 9.86169814730696 0.9133928826872463 -2.1648130688641234 -0.5943143523859765
Ni 5.951661369038693 4.845506962361262 1.597172498071857 -0.25639374967753903 -0.14530280983627877 -1.4573295539516191
Ni 4.249462932610388 1.1092816644586065 8.731827446528786 -2.177508662053921 1.6940397091573018 1.2867450867304162
Ni 0.5265548547409474 0.04392949431949733 4.678000862594207 -0.2675659642442747 1.509473582945026 -1.111293264114583
Ni 0.49056878357466155 8.914304821950669 10.787601936813923 0.28778923326968503 -0.9621957631225622 -2.1210829749660243
Ni 5.780688911249128 4.291699751558569 8.572195065976446 0.5727062871978975 -0.4650644822475023 -0.7715710894210325
Ni 2.0824334209245516 0.14481652584145976 6.498484998760169 3.5936956803289593 0.26942924270525853 -2.1066968814476814
Ni 4.1521600022502865 9.21125301939522 1.7594376152200983 0.78139964547568 1.835933750422348 1.1039620205604923
Ni 3.063290288429661 8.140327360011765 0.04707464905785532 -1.298711772173989 -1.6321833379721373 -0.7791239620676259
Ni 5.2893420810096305 8.76381967040827 8.142489124050261 2.9015444248981512 0.08152351059678863 -0.2146338921319336
Ni 2.411483107881903 5.4238047461490755 12.861877171099085 0.4247729817173072 -0.8563156780582801 2.671425035536109
Ni 4.882016755011384 6.9430209245739585 1.7303899117695192 -0.37881117027521216 0.08285379937243795 0.5585320525800446
Ni 8.870918829962418 2.0094138356243088 6.1334501825816465 0.720371683729082 0.2247578679398129 0.24787774178672795
Ni 3.696494052959877 0.22840379338478106 4.223162883059716 -0.4081472002351681 0.961999587951356 -0.5662281356727216
Ni 3.5844402621018157 7.747376116465554 6.919918778688074 -0.6721776405223585 -0.6855903143838387 -1.8990185946979747
Ni 9.412669143295515 5.826363829866373 0.41298547419315335 0.1753356087529432 0.5686187473920853 -1.9930626063592771
Ni 8.332616035749533 0.49083723793238304 2.6387424379521875 -0.13778413286173047 0.15700081499949736 0.1747231719799249
Ni 8.693013656127835 4.07639935666594 10.576091929063299 0.4753946605289167 0.025275486737337115 0.5301643000706289
Ni 5.98658869389593 1.5293420884091147 4.626191997389305 -2.8690148277015624 3.4420921250856336 0.20789760184936454
P 1.1424663908534411 8.684894089238153 12.795303316219503 1.9978852245589012 -0.537006776913759 1.0488643082554001
P 4.364757014663404 5.988915298329516 10.405472700691787 0.17403154522953898 -0.1955107981492375 1.477086167753256
P 4.527845391841991 0.28203720627707385 6.161450443064555 0.2282455693780972 -0.42633029890209806 1.4848789243247977
P 6.10782644962341 1.6435246752266515 2.3326036820224134 -0.39123525497117784 0.6469358352364343 0.015577799833598978
P 7.728942250568679 0.7731212338295377 4.754321965521866 4.60803135867987 -2.6230952380824695 1.228134219065743
P 4.929669758369735 5.524997909833351 3.6029720902906313 -1.4516803260856417 -0.3892683610527941 -0.6423700702426227
P 7.979575006717913 2.332491590553751 12.605700126004066 1.7058176756288363 0.9803235830715245 1.7381356710352518
P 3.010560200902473 3.7554503976959737 6.802914124306559 1.181152708109882 0.8620502665492122 -0.15792795479945704
Ni 4.724542370717079 2.5077781569691564 0.7231906071835718 -0.4211518400249521 0.6273728255028421 -0.524879911743238
Ni 8.55293699810411 8.132443279400789 13.10115289499903 1.5802156866555945 -0.5629852032553917 0.3416034508766633
Ni 5.176365183939054 6.549212510973266 8.633613655242662 0.3228703932435343 -0.03573704839029329 -1.4387150241742253
Ni 1.596399161132596 2.430293751824703 7.688616638258454 -1.1727554851851223 -3.14236577405873 0.7181512790389954
Ni 0.29118349334190047 7.685989553333242 2.4325958656853044 -0.17097116113666036 -0.3350008579584811 0.4537631983020702
Ni 4.996274697438107 0.7768748851120643 11.540954568518897 3.5575624249415116 0.4494584002791292 0.2664791589379991
Ni 0.5893223094115744 3.696286825034618 12.975269465965296 -0.15530722934715835 -0.09663774053040776 -0.5341873051870929
Ni 7.122583921810611 0.32597329421237486 6.906724953464899 0.933523077778218 -0.7878816536555978 -0.13473866116718733
Ni 8.479088501102831 3.933214279763335 4.5764233853030865 2.8755755116382153 0.43985687263362316 0.21079343533992084
Ni 0.6495399186564045 1.252805841602544 12.223598206290262 -0.3590620126727429 0.9144591191682316 1.1213514196815333
Ni 4.455852526716893 3.0721163141554513 3.049050904129045 -0.6448807524796184 0.15883889664950063 0.3002971359287086
Ni 9.02635861280873 0.867542754083429 0.39334591854931866 -0.002158698214215637 -0.5565736433020931 0.30278107869282694
Ni 2.77963293655511 7.06715987125506 11.447069956980448 -0.26770634647688085 1.6156359751364175 -1.363676092860516
Ni 3.2274336441368376 8.34727270173601 9.055088880755617 -1.5660715339447286 0.022304319924155134 2.0984546960435475
Ni 7.917500823651788 3.5777430323355013 0.7485892152593683 0.14383856658592648 -1.3328061427545368 -0.2781547955037145
Ni 2.8984969905932636 3.4880227601496374 9.142769841767912 1.885593065320688 0.9248546034699427 0.6767189800361377
Ni 1.259663202038377 2.6779782197645754 10.760442833318542 1.626999479778353 1.8791822766983377 -1.8956051981410516
Ni 6.885505755863524 2.5102460531699644 10.8989954241465 -2.3520356588626394 1.306015504924254 -0.47732170234830046
Ni 2.8103497667491366 5.581307388796826 5.468426570127959 -0.4502325594409924 -1.367941038784457 -0.1962448481017846
Ni 6.459011846778849 4.4640568686669075 12.858224307943845 0.5526827928881192 -0.3729310573453513 0.7818956112754922
Ni 1.2901539654048484 4.92171974160072 3.342603389434698 -2.389977942434368 -1.3018665157528868 0.9746023643170313
Ni 8.285245615925625 7.9712576313541215 5.634716618751793 -0.536554776978005 1.2175695561760194 -1.0175374731176605
Ni 4.323104201686408 4.044768839710546 11.836850613270201 -0.3054658246138417 -0.18367781007005138 -0.7803475500620818
Ni 5.665997674069592 2.0141047222960733 7.020007040752676 -3.288983703162007 -1.8434208028280121 2.3288893026531636
P 1.8214486879635308 5.288908786256817 1.3257340582266501 -0.11792467493364207 -0.580283071103891 -1.3337736488741287
P 1.8542001196055518 0.8023149387729127 9.495326711010518 0.13078353317418123 0.20043343226183544 -1.0085026166089017
P 7.516213365839489 8.954780203534149 9.682999855685704 -0.06555156064856452 0.26429680657469967 0.07201428555477275
P 6.775524244258049 5.764713522101912 6.888389049859964 2.565933187049181 0.0635602412501486 2.9383690499256683
P 4.955479054515589 2.8306110061687475 9.84952539058824 -0.48356382660327046 -0.6561534971799603 0.5477707002984825
P 8.723598614005788 2.9698775913937334 8.21654955870237 -0.5557974272577009 0.3168439845437963 -1.4320268135207725
P 7.2297395980716495 7.469869666190728 2.3647117651510174 0.7353000229041402 -0.21189900969927378 0.09448521296377922
P 2.7889393542894547 2.574910585301823 12.404764394112323 -0.44740383174294557 0.02067526896116439 -0.34851431906388364
