# total energy = -340883.93832152954 ev
CRYSTAL
PRIMVEC
9.12002194213961 0.00000000000000 0.00000000000000
0.00000000000000 9.12002194213961 0.00000000000000
0.00000000000000 0.00000000000000 13.34807397827239
PRIMCOORD
 96 1
Ni 6.713011107284693 2.5974917188869164 11.712974729639363 -0.17905316681384648 -3.2104190180832255 0.694670422308236
Ni 5.1234459848471685 0.31529375415597277 6.302266290395963 1.0459934144655083 -1.1036812560952798 -1.2900055026492427
Ni 2.8734088658582686 1.5616304949114699 4.389113665754083 -0.15943359281070607 0.5314783908963621 0.5445691626420492
Ni 3.40229718433393 4.676774665113714 4.542603636783628 1.0646056302500568 -0.3295586038969873 0.4134305601212944
Ni 3.6613970106529656 3.1456597639672395 2.488454559312642 0.24367013146328353 -0.7296878189236852 0.7676414153493231
Ni 5.468784739630577 4.955336618478327 2.4443929968031326 -0.8081432321181113 -0.25622817063395226 -0.34386010812132395
Ni 5.440713311773836 2.994559238713674 0.712793563027698 1.6243743834506796 0.7076640063544265 0.42772203704330203
Ni 5.7446562864917 8.402276310726078 12.467555321678367 0.17467689212302173 -0.44903056871309116 -0.6464290708033448
Ni 2.0491139132995415 7.074483181066988 0.11803953333560899 0.5722638003438402 -1.0902878655075094 0.137725254599337
Ni 0.7030232834101131 0.17759966130962268 0.34695117468109204 0.533023881006611 0.8901228564157122 -0.66740181640027
Ni 8.259848926437998 9.087217326426135 6.730793326269447 -0.7951241941506242 0.24527064318118402 0.15660615066423994
Ni 9.03110183077879 2.506473898870585 0.9689740702898976 -0.750749781800307 0.5875639210360204 0.4556853550254475
Ni 7.016890241848237 0.7886174263158524 4.7002176817822505 -0.40690869984237665 0.5148358972436746 0.20429497209977074
Ni 0.811186744872407 7.587913062175146 2.0621710488624054 0.7938342716946071 -0.1335400128733958 0.47358074724862953
Ni 7.884003697911641 4.057096527172865 3.752890895820084 1.0372043554189685 2.3857111967382134 1.849944462879143
Ni 7.942873440216793 4.477301542929626 12.597538435885058 0.4464250127694441 -0.4348205957612963 0.7834264460977218
Ni 8.633623909959976 7.530320122956394 9.25197690869758 -0.8092547200147353 -2.286148569251527 -0.11385667551185555
Ni 7.075568463690429 1.0338365790812956 0.20238058521226557 0.5624113330297927 0.4369810937477249 0.23796202533491276
Ni 2.137249806349424 6.678227343202299 9.37959793719443 0.4997216673100556 -0.10879314494601908 -0.9932863138797797
Ni 0.12486313383022013 5.43535073881095 1.1507014535774152 1.6333809578246643 -1.0334487450312784 -0.310673079846394
Ni 6.4338928325752915 2.2570230558759254 6.838658563010846 -0.42954340652275697 0.5324176148811798 0.38204458961084525
Ni 3.717448666145989 4.412886827220674 0.44276795029788385 0.35311865060511444 1.325508837762175 -1.1540923615579801
Ni 6.0566704807200304 6.050496225795074 4.4582835609576765 0.8417321238171502 -0.45823537514081086 1.0488655938069806
Ni 6.014590699001057 2.939355745270903 9.221102898066189 -0.45732828994550917 -0.06894027461513934 -0.6971029430091285
P 0.7594169397298512 5.791058958660346 12.249527514642251 -0.6631623243976256 -0.42224558730976314 0.8927744351059463
P 4.21952411980722 6.0995801844451645 12.529383599135153 -0.2932924224761013 1.6142583780626008 2.287680689625338
P 2.72982323877038 9.111795785839362 1.1755170335638319 -0.9575230402372412 -0.7823640662714785 0.9621466550521816
P 6.671706527439606 7.613248483418168 5.846496836669693 -0.18174176938960312 1.6427027494462227 -1.6395109819818021
P 4.891186383408701 1.5528114335932541 12.708500832113184 -0.13228968540606248 -1.1328529925632296 -1.9681442458510428
P 4.517493480085134 6.3356428350767 8.322283685360823 -1.3656712689136739 0.09412577274183144 -0.7512454904898029
P 4.880661877967935 1.4415562846574599 3.587428159848912 1.2295233861037858 -0.17975919174193558 -0.12482371604632052
P 0.3237908786959744 5.936997551436033 3.394068188442072 0.6933385908706897 -1.5276620809285948 0.8921576274575539
Ni 1.2667801821731934 8.867497755300537 3.992222162352807 -1.0169252934549582 -0.3410306090923288 1.57302019734842
Ni 2.0099251785690626 6.562594583684557 4.650522681655096 0.24193335127783494 1.0852153360806085 -0.0740966220050982
Ni 6.310033813172305 5.933176262198873 9.399927378336553 0.19716427459226044 -0.4751864011728526 0.08101160395737661
Ni 8.989861091088024 2.5011113259076985 10.089689237689978 0.17378497643637167 0.6021760145222405 0.8705115099426879
Ni 2.897558684235347 5.570345305131766 6.991374244168708 -1.2295724941741661 0.44576243948478067 0.20000560069579748
Ni 0.7206896781148864 0.16906058466821072 9.127800512527402 2.4588752796267137 1.2697506090549489 -0.03865987846404309
Ni 1.828974821159841 1.1813985357811194 11.247634724778312 -0.5686449726443303 1.1513898750251526 -0.5388898528690848
Ni 4.12801381860042 7.0698684499118505 1.3709937620874837 1.2041651098446553 1.1190189148936147 -0.4819967392264667
Ni 6.082005901963052 8.00866527925465 7.81668516718333 -0.7474083761318999 -0.146812818722902 2.549511036937416
Ni 5.478698203594279 3.4337339003255423 4.398817369210734 0.3328694134377751 -0.7388982817783598 0.9856102853917607
Ni 0.9725773910001634 7.659140434352255 6.782357018913769 -0.05612615356960656 -1.0218646397381048 0.4194996491335098
Ni 4.986736854381757 4.498168153370244 6.9283576278393655 1.3884327309799056 -0.3300710247570316 -1.3333841267451938
Ni 1.0035033857572155 7.782014491374302 11.466035540716096 -0.19739233144266652 0.1951600996780381 -0.8718163447970405
Ni 4.584242921437793 0.66791849455171 10.559394085102113 0.195843756008624 0.34100772627419335 -0.4788713062236076
Ni 8.38951739988411 7.517451771849878 4.440236861333597 -0.05387592408284915 0.9197769318367192 1.519290826145764
Ni 7.659076594197935 6.3022361943232115 7.232947212120271 0.6994249062740858 -0.651052171397653 -0.5290224731567017
Ni 2.615148081567439 5.565064812367291 2.24586653290739 -1.5574997331153175 -0.27022499913367654 0.955848994968928
Ni 2.7684374121119784 5.203848099202276 11.20271861620312 -1.555803319249501 0.18363255865441278 0.24790988057624402
Ni 1.2867074303431014 3.7564458804135072 3.8110757244696023 -0.29162274808316224 -0.2959368020774839 -0.466195510528152
Ni 1.449691344322246 1.4348074683436234 2.4942612773491546 0.7634667151463432 0.8879980967632255 -1.5892430869651855
Ni 1.5817310235002469 3.9164475471837 8.04888913648732 -0.21067413615323718 -1.1825822414675569 0.24012072354912842
Ni 3.787827876272846 1.9871616035429343 6.49537272518993 0.8930526284679976 1.353470613082424 1.6685639334837006
Ni 4.323291730643475 7.09113634132248 5.963813152257076 0.14969194004290995 0.69450278638212 -0.47108034942427895
Ni 8.440926964155858 7.486088016034631 0.01404027393939303 -0.34230536203969436 -0.12851402041371415 1.2679271826929648
P 0.5356453428093386 5.850986623522803 8.191246296605648 -0.20405945905019696 0.030177037804012544 -1.2880270387666335
P 8.759617014521659 1.770260119229466 8.097782486676653 0.8058996874995733 1.2922773294025551 -2.5823923610464687
P 2.344265186765327 3.330595571010443 10.048336321728048 -1.6863809070604634 -0.15991490332249877 0.8684749391286333
P 4.141994812396515 6.613283666214694 3.638364394976488 -0.18478492709130112 -0.6107197903271934 -0.49909380391806946
P 7.177895111043458 4.093321254738483 10.449379259164537 2.0873786407350443 3.0732457793326167 -0.6770303406289695
P 6.709472538730951 8.021962271397317 10.178227323712077 -1.8830939530479183 -1.1168136797121797 0.6234482936374554
P 2.5874414545925277 8.660327334509857 5.676615450017367 0.6957641695930469 -0.19143559963859935 -0.36624798889822086
P 7.33039099967002 4.587097488338105 1.4316610607378486 -0.7262993620674265 -1.6251431432959043 0.10747314058301491
Ni 2.619717212612347 2.013418147012575 13.445781654333652 1.2358709255883684 -1.4845745057105013 0.9251780482476325
Ni 1.3747338831284357 1.1398385953187526 6.703415932090386 0.1984904496028517 0.3391357060624611 -0.13725757093429908
Ni 7.448467925096017 0.6037901475349928 9.145219754634738 -2.4240679421395415 0.459791406774021 0.252540694480036
Ni 2.8309186831472375 1.7711812414560841 8.692572996456924 0.44295068106759844 -0.3216408917118073 0.9171256102568013
Ni 7.0016142049216485 2.5273222692671107 2.5714668239772362 -1.0104993353239564 -2.3280043289450485 -1.386625759678154
Ni 4.132327589028047 7.157466261661035 10.767397163905567 1.7875594728840183 0.20978093491500646 -1.687071505369585
Ni 7.597434365190882 6.504691563716252 11.500220119350086 -0.42389494998772803 0.04452507899556848 -1.4230374655379685
Ni 8.228476050600705 4.064802945801502 7.96889377511545 -0.6232773152772298 -0.6369789811340385 0.8897418189272097
Ni 3.3364688652078893 8.804423682832304 12.469277181840601 0.5011314031733886 0.2575726004769886 0.2301201606929908
Ni 0.19327424319960956 5.033176006638587 10.329300488899504 -0.0999007275523957 -0.4494866824139033 -0.9772649987508588
Ni 8.614289463223038 2.5642948386404782 6.025160804552052 0.5553228016141275 0.24800809671700513 -1.5168786171598456
Ni 3.760011809033386 3.169070860558614 11.60304015989579 0.7069716082730921 -1.9279967270978795 0.04134488149537395
Ni 1.0311461725778068 3.430769893160682 12.452298436798074 0.6479182537543615 1.0295398968951752 -1.7085381598837932
Ni 3.0643638874516506 8.685516835400147 7.784756882003452 1.0721834425973147 -0.755914356720382 0.6624213324665431
Ni 5.844867088730122 8.360050608654374 3.3030339523860586 0.5125548145189818 -0.39203024006864745 0.05169434305049807
Ni 3.5441044071229015 8.676460653508743 3.253859705517716 -0.9475705570102196 0.044453602327684735 -0.08404550568769396
Ni 3.9805430621210527 4.22643709651788 8.925657047888327 -0.3268028955287211 0.37609351423373294 1.129676137497145
Ni 5.551175018791652 4.614366354254821 11.921204896991757 0.35158447334877513 0.04244454231745593 -1.0354246378107266
Ni 8.16754518331322 0.03591738282267721 2.3221509573088537 0.48442386061072057 0.8272341873112915 0.23759024381779084
Ni 4.874597063307527 0.682487729769755 1.381245578869083 -0.12407449658512182 -0.36058873372991446 0.40463610175811604
Ni 6.197383300863516 6.129785697460605 0.2506692779399682 0.43787660897880076 0.8178136653283399 0.7218932625799309
Ni 8.099701339315073 -0.08816416511822432 11.472082115332412 -0.5852712683471017 -1.434913133929632 -0.5136950987710122
Ni 0.6236590275638085 4.983453646445295 5.94483165037331 -0.39516955702857753 -0.017636225024524464 0.031987608650190076
Ni 7.549435689164234 6.668131478797683 2.4763076019499413 -1.0384757659322246 -0.941624880949746 -1.1160256365932457
P 8.88107746812662 1.4299556166152978 3.81853681450521 -0.30018220761739917 1.894918199376356 0.9653070550580345
P 1.9368190818505344 3.6792175337303115 1.2256771548153171 -2.211650598042952 -0.09710748107797469 1.4125501928533997
P 5.0636916004035815 1.2026025870374295 8.419378176066221 -0.34578535016849477 -0.8913646992426133 -1.1726719243323804
P 8.885382118532203 1.5639013804008552 12.207614629326716 0.7401180131180737 2.956880478466295 1.265008723494589
P 6.6271096196360135 8.249534181504282 1.1873356701328863 -1.0204962986356683 -0.9554581872884125 -0.41749418866770677
P 2.3382824523033316 3.239358870465014 5.855079689416924 -2.499927055361701 1.8843663920024387 -0.22429738336362662
P 7.021568813157693 4.447342270509421 6.002401789536946 0.4546977943011976 -1.0974689566369809 -0.5964257423020245
P 2.66002771005445 8.574471446971405 10.249866008883448 -0.4879655552153919 1.530933295480699 -0.9467385480272275
