# total energy = -381175.05744367524 ev
CRYSTAL
PRIMVEC
9.17595800260939 0.00000000000000 0.00000000000000

0.00000000000000 9.17595800260939 0.00000000000000

0.00000000000000 0.00000000000000 13.42994205686722

PRIMCOORD
 96 1
Ni 0.9833415597910394 2.538189323738896 5.425911999766582 0.9168481882256984 0.3700938450068723 -0.012781725145700569
Ni 4.10792966783457 6.0795035731337075 13.103514215792533 -0.044437404377768636 0.9939959383522945 0.009583272813060914
Ni 3.38427690087371 2.468543801051321 4.373003830528431 -0.7587986202467125 -0.8833911941188334 -1.011434445543716
Ni 1.2267154989534315 7.452630661020335 5.510197763751658 -0.23310212613945014 -0.5153994830566285 -0.17532172479587227
Ni 5.601683902131059 4.737712382477394 1.431417362309923 1.087725504096972 1.7413112405497557 -1.7630020952596284
Ni 0.009377829273610248 2.7539528046974784 9.635769128808775 -0.27542942615275146 1.0048184828890954 1.240440804347238
Ni 1.170888969305051 8.57941079928992 2.899806495372517 0.27467635003681085 0.07887681700256094 1.7916706668389142
Ni 3.3671545628849073 0.6379383062850789 2.6353306051528635 -0.18007209499666404 0.2793051070580738 0.6024765764817946
Ni 8.630906276671038 2.502338855077453 7.309515076270193 0.9771035334723303 -1.2756145240348935 2.3087130848156048
Ni 7.05038418169817 9.17705930833961 4.65479108347567 -0.7686199772125085 -1.8384025236778143 0.4964561091849063
Ni 6.332438860733577 1.1968936348250232 11.599830677135012 -2.0496947530310248 1.4365552975187452 2.7057816586391077
Ni 4.9798108634509095 2.748190302952051 7.938653638647843 -0.9921054061978009 1.7833696031723867 1.2574882467478279
Ni 0.82105281039588 8.36600553958703 12.763736742254919 1.5865148894007453 0.20009764618897152 -1.3259022165458518
Ni 8.286220583095796 1.3364966627787476 2.979916280783796 -0.4928478230083576 -0.05503729138080198 -0.10617499059688167
Ni 8.603185706968908 0.891140614268375 11.635715096841771 0.5061201146372316 0.642618438808003 1.4233074313699035
Ni 3.469503200573605 5.0884175046274756 11.104467491662486 0.48273593138533644 1.0241398089255265 -0.32206178129930985
Ni 4.635473856287017 4.518232638450502 4.513924526078721 1.4605444613444911 -1.4617551938231406 -0.2724847417021307
Ni 7.876982023630295 4.188448700981272 6.11226266147981 -1.8752263773743836 1.2886955255885675 0.6520281621576771
Ni 2.355211541405176 9.21697472648071 8.817200250295837 -0.8736163741202567 -0.02926943838807862 -0.4870646406676773
Ni 8.315712112729244 8.415170323587034 6.607464350088133 -1.1100071983133075 0.271769460802661 0.32854044704511803
Ni 5.697829592081048 6.5790886169709974 3.2496830284977394 0.8170256222094058 -0.8176509144982306 1.0618838604435195
Ni 3.251647601146937 9.0270782716692 13.213922097562454 -1.2184519587809726 -0.6315729796271188 -1.600148678134096
Ni 7.1331880284350175 4.15990229504174 8.684659957363538 0.32841780542432475 -0.31220468599957196 -0.8312265963001363
Ni 3.5181082511238135 5.189490684127296 2.5674422784593163 -1.3877588448413325 0.1944173079747426 0.011012291950103614
P 2.4427960623607627 5.825320355219542 7.236885531978139 0.17254107672694155 0.11249887593238045 0.16086081217553588
Ni 3.905260279217907 1.9637559889183982 12.23814244491856 0.4454785896957747 0.0801993924687264 -0.0864991094345091
P 5.394004440340824 4.284631094764034 12.543203598227429 -0.1016814736019023 -0.026044246582561596 -0.8146990309587582
Ni 4.649981046190713 3.063567986057711 2.4370647588731926 -1.5237624887638725 -1.9202916451441379 -0.4796333812006127
P 1.2891395425428351 0.4582748800507991 6.924706587898683 -0.2515577617414765 0.005642028777125767 -0.17477407982251836
P 3.0871501986146366 1.9380174261860335 1.0166897446531546 0.13812249003775567 0.7818138501949633 -0.4296387944500407
P 0.3625109099616543 3.6221452651200887 12.347462058046752 -0.9653291665452214 0.8949860980452845 0.06681731473486559
Ni 2.2894933288243573 7.43271883174075 1.1052882089891074 0.11134882148833727 -1.1623209201153595 0.688614188811827
Ni 7.901509359881136 6.031852822235608 7.306963242296621 -1.434045129502382 1.3841117350070484 0.5813374805103343
Ni 1.3677316244689326 1.9193718791371333 13.15438664561232 0.4569009726001035 0.06290460994402071 -0.8607909402208143
Ni 0.6960101929033736 7.60978729699795 10.194427156303254 0.9705199667175415 -0.4895228724001827 1.4777441130522293
Ni 3.0877649878135918 3.6702364620114696 6.214021285056674 -1.437530516947821 0.25383241670826606 1.3289726279410596
Ni 7.987901006271587 8.154022553404111 2.5092777146632685 1.0570509578312506 -0.06688699163053642 1.2645765210531767
Ni 7.634066882377571 6.242808101100872 9.928877678974978 0.6198672611544163 -0.3850815766649562 -0.6561105597571667
Ni 3.1600623624190467 4.015959038862559 0.3069532358883392 0.22970415620149473 -0.951330024052652 -0.5157257560477956
Ni 3.396535981020034 7.61134720989082 3.336938132554185 0.22692016569845436 0.22715516452739587 0.47435053553511847
Ni 3.261511756204795 8.139487835625834 6.976841629565876 0.6003675005585919 -1.239037496241808 -0.9120998749074356
Ni 3.1330208136232254 5.988175261235232 5.021280688909964 -1.7188207727567235 0.5782822386237784 0.7851657973863316
Ni 7.245465052888927 0.3700618059589672 0.6634080134423783 -0.17436758841271904 0.031213192378010762 -0.7767945426035009
Ni 7.8512342849397365 2.2407139350684746 5.220205368987918 0.0010783206658433043 -2.1863524855977956 -1.927195571352823
Ni 3.048657053993506 4.455138749912983 8.90483065104239 -0.002661605992563158 -0.24099952660965593 -1.0338218120999807
Ni 0.14973053301173186 0.3951085014435529 4.954252149499134 -0.19034750878074314 -0.09728514430641955 -0.9399454363647942
Ni 1.637293748315164 6.015519616651433 12.394225493787554 0.32614546445038023 0.2677819369098227 1.174776629380209
Ni 6.646807188437968 7.149594641684739 1.0820849635055672 -0.9580215771402145 -0.16271509177545523 -2.4549641174977657
Ni 4.653761540966376 5.175965321750289 6.757006775956901 0.9207696347672917 0.7934460351172529 1.5878071258496074
Ni 5.8391301723005435 1.8046173459710182 4.011134320044492 -0.7514501503014414 0.967615648586553 -0.08753577822913956
Ni 5.344821304424434 5.6495548760258 8.97825208052653 -0.20600475570202587 -0.2705582141033792 0.7385974627084892
Ni 1.0469584779455794 4.827425725733839 1.1200789360009786 0.15755385928948995 -0.5178024360711664 -0.10177300487444409
Ni 4.850475732715551 3.244774808460113 10.420426418626526 1.2772433178875682 0.5531016255930926 -0.08384213142763625
Ni 6.534447580360318 2.630838973617216 13.507030647728657 -0.5672424358698489 0.9901909627839075 -0.13290469328224208
Ni 7.916906617729588 5.585075417801084 2.3556391410569866 0.5127409623878589 0.9346345656748419 0.3615886357493385
Ni 2.240851574441375 3.1147790087348324 10.975687506397824 -0.7122467406291024 0.5483314578979589 -0.1940344707140271
P 5.990707825696598 2.8625961497068184 6.019541439127582 -1.4511455366280943 1.4813914799968295 -0.5809520721464576
Ni 1.1509404361926943 6.1236491080019455 3.1712928176518953 0.2043379095225642 -0.2653064787861366 0.3081127753183855
P 3.4751372389043254 1.7885869470072244 9.640616787522324 -0.050662302241557905 0.047711447143350086 -0.11620486402905794
Ni 6.874701286128167 8.912002579966318 10.145381659759765 0.07779695367482085 -1.462433707947404 -1.9498343917982615
P 2.7966118343383926 7.553373506025194 11.338873766882509 -0.4355685296709144 0.20656139953644423 0.18279052236909166
P 6.8503299411666125 3.1238907352208356 2.229101759974782 0.4277886286151794 -0.6553965644092777 0.5858399963663782
P 1.7527273023875873 4.0370912705818585 3.980111322988573 1.5792589791692804 1.1062857835976625 0.785532179586815
Ni 0.45659659729723423 4.678105358053351 8.202686330086758 0.6334673684363542 -0.45726786902121896 0.8844468890768575
Ni 5.82843100504709 6.2435972335055006 11.391988800884754 0.27445729204746927 -0.48571352595642153 0.5986749433475174
Ni 0.6491944542008692 4.952071941832393 10.63828752362811 -0.6956479557301568 -0.05378979212694607 -0.7080635557856902
Ni 1.8410917797896096 0.7904399786712043 10.880160276030068 0.028943422507227572 -0.7572968388902055 1.5898182427423653
Ni 0.609356114108593 5.161403076097432 5.985201333184764 3.614744016358826 -0.22865900276643203 -0.709598761483294
Ni 7.900729403434702 4.8289672867103235 0.183849498362089 -0.1202666928032574 0.21965679926782172 -1.7968419266272087
Ni 8.460875771348142 6.875077500414096 12.122658423076073 -0.7194856815797029 -1.8152901060300672 -0.022884103687025103
Ni 6.894732402864265 1.9693257955417656 9.490443055729854 0.004617444167353339 0.3770795322960861 -0.20664933126456023
Ni 5.555079210467003 8.967012449335488 2.7825230681283135 0.522390826772797 -0.8306028466732082 -0.25636726731497783
Ni 8.987933634016342 3.7400930317374916 3.2513218546310725 -0.33660265522796223 0.29636026276814764 1.246279522516202
Ni 5.817291391800355 7.617054655887088 7.631604972794293 0.6149417988283409 0.15733531552078064 0.5804237104468133
Ni 7.403686100016971 4.049845852470624 11.01823367175296 -0.066338318215918 -0.4827369598266009 1.3093605101370869
Ni 4.77884820305821 0.27276636844735125 8.578764811833109 -0.15332876546454885 0.5775972967416118 0.8923165216329214
Ni 0.3848378514377291 0.38874222164900224 1.0918344190860083 -0.570863577562204 0.5522174232159265 0.6661098370617238
Ni -0.15758056524614825 0.49963000603243707 9.49659461810268 0.6084088828058296 -0.19602476167117852 -2.23611978682891
Ni 4.797879140351232 8.436073156351501 10.939091032335263 -1.411129401246473 -0.11881479084807924 0.5868928631109247
Ni 1.8407981491274223 2.3615521285167853 8.183602172236215 0.3100704132653886 -0.038295038925456625 -0.7376075879913943
Ni 4.913000711845082 0.9038621627076443 0.7347776986744851 1.77969678230649 0.11967739595869067 0.49242873319306807
Ni 0.62748138432793 7.2059350249919465 7.8918635926282805 2.7213987963510746 -0.27833014473931417 -0.003742497761567748
Ni 1.5367986541815244 2.3121762974783344 2.5899646678449093 0.3539833125982549 -0.5667220445900046 -0.4528638264162523
Ni 6.221896092378213 6.565297151806384 5.639447558075818 -0.28039808301193647 0.12950595201333825 -1.0173618667717448
Ni 6.8668007861236875 4.289980678390761 4.117150588223074 -0.6529056796666239 0.6858823917029606 -0.8448976660293256
Ni 6.545266035070286 1.2606757202270436 7.249643784250181 1.209746974807807 -2.249290776993229 -0.5754398840789767
Ni 8.465940900270876 6.328025224842573 4.687426296386162 -1.8286012213166765 1.0568599248663668 -0.9086247718746415
Ni 3.2885257771260363 7.065698855922881 9.18610772071408 0.17118481980936323 -0.5768645323406452 0.16809486803012985
P 4.522251708139192 6.890933556172215 1.5186045642757375 -0.514940798252655 1.2081495484137001 0.8642385324497827
Ni 2.4040459909102188 0.16146199556193802 4.986819460318995 1.6173596426957435 0.8922735842101278 -1.0836472202625402
P 4.686382072343758 8.698266985768466 5.177726188127594 0.4990212988089212 -0.6088673104994868 -0.6485445744844508
Ni 4.007553861157445 1.2998662376708687 6.363187496639515 0.5564841689120803 -0.23178829242403307 0.02238556678405177
P 6.867498158946383 8.175558527283918 12.149988096959166 -1.3349576418799007 1.2080559602586292 1.4137840652605005
P 0.17310995689258465 6.779170385377134 0.8304297220736709 -0.788539598954571 0.2998168538581804 0.4244770477434432
P 7.933248999271957 7.919402478358182 8.714541465220202 0.004529255328921232 -0.38630259355625085 -1.7190010070883297
Ni 8.728602703555703 2.832535710665383 1.126118551683846 0.18992533364166 -1.117903827452565 -1.036965242824969
