# total energy = -340888.24785016215 ev
CRYSTAL
PRIMVEC
9.10588871083063 0.00000000000000 0.00000000000000

0.00000000000000 9.10588871083063 0.00000000000000

0.00000000000000 0.00000000000000 13.32738856563618

PRIMCOORD
 96 1
Ni 6.153195072989893 1.9645135514680434 11.363518160400671 1.2907246402034545 0.27181522643893186 0.40642790355121616
Ni 5.073855864018905 0.4056473122312778 6.102104662807213 -0.7656619230254491 -0.047775724722382236 0.13736067217106668
Ni 2.5124239853002015 1.3869543437654575 4.963305821275069 0.3862275173439413 1.6460469833281073 0.4529324748706587
Ni 3.3456765499688843 4.196193879766047 4.704835168230816 0.24909001692727423 1.2668252078780378 1.074307430918853
Ni 5.008311676574391 4.669627249259682 2.5524616676806944 -1.3683195051697983 0.6443950710924514 0.9619407096889628
Ni 7.405846663126685 6.466291952830431 2.561471034040461 0.2871863095783635 -1.8132975010800707 0.8476294631381918
Ni 4.978690220370305 4.692000417994216 11.56730704072708 0.36966241389640847 -0.13732339117522802 -0.33857623401456527
Ni 5.738339886023427 7.891882582693008 12.466159338761841 -0.5180796009919528 0.14147700833228538 -0.8014552785749746
Ni 1.8636567273314166 6.417575447852915 0.5475380029810216 -0.4603619345655104 0.643610113297311 -0.4354397174025339
Ni 2.928727008582823 1.667552306547162 0.36801995861107467 -0.25571240733979833 -2.1330123794137585 1.9412175966635277
Ni 0.6129191950163589 -0.1390013922395821 4.56236534295461 -0.5114371559747708 -0.27694046348063917 1.1577564406731287
Ni 8.452614107928596 2.3349957424054586 1.2347038833497475 0.3661772835612855 0.5187072072736227 0.964264729836449
Ni 7.167809624506645 0.9055005074336542 4.841120273847072 -1.2871456646029447 -0.7738274895553771 -0.12008003071374802
Ni 0.7183908835871177 7.55242415483193 2.3963840022103953 -0.3636462896093156 0.2635450160103397 0.19511896202745752
Ni 7.752990461118797 3.626975666186714 3.5647970152355994 -0.10237361457292048 0.3421248705977721 -0.008134713291992442
Ni 7.321025309133124 3.9272969840677265 12.753311720287996 1.3208379146490672 -2.645329881110954 0.16633366236464903
Ni 8.112909821070433 -0.15317926107135604 7.012751818579801 -0.07326795545621574 0.593247601684359 0.1622998586149076
Ni 7.106772852008648 0.460636863989916 0.4740006663646825 -1.2473634996090002 0.18405062002843786 -0.8362721291438436
Ni 1.7779703139036755 6.823825569921485 9.227990554095113 1.1434400240504565 0.024956155724705407 0.7952545490809013
Ni 0.016050039565115456 4.781584151820159 1.661259226810721 0.18038654091328934 -0.028785813883440745 -0.2919137969610198
Ni 6.658225876553058 2.3129412797782543 6.7597583576372235 -0.14731726916314627 -1.2065089274864833 1.5209417314856257
Ni 3.313714880348122 4.39401931352988 0.39134833507871863 0.924355552346337 -0.5274224756594336 -0.5698456778206509
Ni 6.112327844141467 5.652826484482522 4.488251603578443 -0.07693383434357719 -0.2779375372865859 1.3513671935861757
Ni 5.298643834462817 3.0151054695579083 9.38785262694273 -0.6916195512970541 0.131047071248213 -0.6652608587978672
P 9.310042807310419 5.479140761876705 12.790721443166337 0.6348238824642487 0.1568187808956783 -0.07050504799909793
P 3.92421008777102 6.241267229278216 12.741089796366348 0.35200022072995507 -0.19468213160035505 -0.6560835631739733
P 2.303607743777889 8.658798747593243 1.4825789242086116 1.5224635674467908 -0.7405741268188859 -1.3684436894524883
P 6.489430016222555 7.821739921414168 5.9736023603319435 -1.2637077452949785 0.5249087080986443 -1.328523713329099
P 4.7190084841181985 0.9404561932855577 12.486377143621949 -0.4741479326060092 -1.2164830079800597 0.3829593881156308
P 4.1015563776667365 6.182015210981265 8.0719597286341 -0.4071539830839633 -0.6788560809837987 0.8934712040626547
P 4.523413993105672 1.1354223779722066 4.13607498085716 0.9805218151252596 -1.7734700846704878 -1.4359809130725139
P 0.2506896710810229 5.90195449563763 3.6144277514467107 -0.014860204941284086 -0.6697469195936788 -0.41343827343077827
Ni 1.5533553553465989 1.042760853738339 2.80247021828091 -0.07611416665575924 1.392082669027667 -1.727905508666811
Ni 1.864567316209501 6.618770060465662 5.093301489510398 0.6411333696220443 -0.20988326482082562 -1.4544414337705467
Ni 5.902464425409357 5.35747698187585 9.16091384556878 0.029836623745458295 1.8208629721321545 0.2980654183847125
Ni 8.597516116098165 2.4554120156433377 10.25493265784337 0.1944129370993684 -0.3719756354106174 0.8640549556840668
Ni 2.3846137303722768 5.241559017695707 7.251152182162197 -0.4733886858424815 -0.4563451000966334 -1.3030291686024205
Ni 0.36615871494427016 -0.056482917518696614 9.109363588002669 0.421301478228939 0.8105945218720813 0.691373496724519
Ni 1.5867375436171727 1.255028227108591 11.651869787479265 -0.751483574642538 -0.6080561274521011 -0.6535782802536163
Ni 4.082834670333321 6.797500445456066 1.6046706809821667 0.3824186851208124 0.8157830080515563 -0.14897357381964665
Ni 5.445895161937845 7.880982833822339 7.987117431096342 0.21460972376221749 0.7250953144569964 1.1831494268249365
Ni 5.349800717633598 2.9528758256296213 4.596589825937412 1.633730113633967 1.2946360594427189 0.9895163053143863
Ni 0.7739850663608039 7.2281270317909545 7.044057864208342 0.0485784231293357 1.3924333674988665 0.40486724393231566
Ni 5.388591803839994 4.613207162373574 6.85151748829291 -0.21586030833986694 0.18136021768046828 -0.22482265973947735
Ni 8.461455925934795 7.067389883031498 9.450944598538563 -2.129159581326572 -0.6047879982237907 -0.0797381365615917
Ni 4.630389974503026 0.08396175809264925 10.265621150094324 0.02272135285691571 0.5638061564947904 0.23108740970226652
Ni 8.355171992084784 7.196438538833617 5.249205232504981 0.15138012637861026 -0.8342417289773761 -1.9111989388142507
Ni 7.381151492753036 6.493218065955387 7.311685399010613 0.31417235124890414 -1.7764960159810048 0.6110162385216896
Ni 2.571493885821536 5.0400365930868505 2.4892631571861252 -0.6526513975639727 1.2689527957440019 1.0697138980108998
Ni 2.1826997525458443 5.555302415639684 11.489248630331053 0.36458448515286884 -0.6777502495141297 0.7629100713119249
Ni 1.3569777578989193 3.4282396435447957 3.668110608165298 -2.0207299903675584 -0.7151621145036845 1.3026509593273952
Ni 3.7391602159667108 2.598201457615751 2.8239136757709193 -0.09297854651126568 0.010886565005516734 -1.0567681364835089
Ni 1.290386393244608 3.1995998821465865 8.206552960114875 -1.2762313316832858 1.7212481512512938 0.9984935691123319
Ni 3.7198557317513217 2.7268949837554177 7.02741229951696 0.6020865401322276 0.13742546397073108 -0.1890511585668228
Ni 4.266500447042943 6.927924090464093 5.984357325570999 0.10308118216290635 0.2773053030192256 -0.3705916105788972
Ni 0.5121042579681238 7.370606873544818 11.37367304756907 1.0141135350377761 0.22196513568602416 1.4072452357007184
P 0.34729040280148354 5.5463057975242105 8.222132225230022 -0.03978807853121535 -0.7843163049018427 -0.6520924397367093
P 8.54858106978991 1.786912296686464 8.167516925500276 -0.061739385991325925 -0.18757663090382534 -0.9658804110630009
P 1.8318407519311477 3.226744536602282 10.679316246830112 -0.7664044576184285 0.6208301392883179 -1.5659355225874967
P 3.723106534046083 6.515554811134796 3.8187365780225058 1.4455137922636137 -3.248524566705696 0.1599401001334794
P 6.941446335303645 3.975039158945691 10.465184898026422 0.5499695077220141 0.21815810323510815 0.5818573575695463
P 6.351967519186936 7.608133982393132 10.094004285419514 0.36067975078182396 0.07464092454434242 0.5801154351777751
P 2.413224432921688 8.649528952814345 5.985809714831543 -0.5870358164466922 -1.3781922841988201 1.0151201219254196
P 6.622394204200438 3.9666253177121917 1.6043109983753232 2.596741430679289 -2.130505553831505 -0.05682755051200536
Ni 5.261591973013563 2.7229703456908743 0.2773908687530915 0.07976410470352069 0.33407757481326333 0.6953592208451443
Ni 1.4065320046442717 1.119295848941332 7.262200357019994 -0.13347650662531205 -0.4940336157863427 -1.1665956362313135
Ni 6.794704937600346 0.9130656798327793 9.271744349687067 0.8872923289454526 -0.8890553343831462 -0.4803139522074051
Ni 2.9273611252656964 1.7559249571652522 9.129501261041504 0.6988458938421642 1.127169054804575 2.144043697527256
Ni 6.284993707203829 1.7436411131998937 2.3683169212212003 0.08623814246363858 0.7803519209374561 1.1311488653879294
Ni 3.9564176163888654 6.8583915237335695 10.343812506466552 0.6948077192170485 -0.09163643066107444 -0.03971994429744127
Ni 8.069137813700916 7.251547377735285 0.34952771967493684 0.9175503564990456 -0.07960392497657258 -0.5168081904786971
Ni 7.87257809847762 4.0964752917270255 8.163478463825971 -0.17393204353719724 -0.657112775769436 -0.13161759903970235
Ni 3.079292879574077 8.250599965325573 12.57063302192222 -0.0926090789869889 0.9105947511168188 -0.32639100480228306
Ni 0.2756461804626818 4.7839152593480545 10.281600163726948 -0.5907104370848021 -0.07027673403837574 0.13024462995157568
Ni 8.996308515255222 2.215253304937361 5.75557915466332 -0.2816463535967408 0.8696609890169346 -0.34665618280922234
Ni 3.4973533393914007 2.7660958349569507 11.841544540195367 1.4712207101114145 0.7472546241628549 -1.6057989344413377
Ni 1.1613286315537075 3.2944286079102945 12.895235192237353 -1.0604301587161284 0.8062663268103727 0.14445074624862864
Ni 3.0010824008354082 8.853965261833071 8.207112972274897 1.4248968873442105 -2.457206890785355 -1.2199714807492925
Ni 5.685707848870149 7.991865241506675 3.7449424553425468 -0.5491989481045768 0.08916688607465934 1.055176366516357
Ni 3.0968490331435437 8.45934335973764 3.818790302766313 -0.4743626197199766 0.6952388932171962 0.006926809026820328
Ni 3.2615290317451056 4.3730848752227205 9.429220679674104 0.33691324448984555 0.43431383132820683 0.13225523262370126
Ni 7.557660040880915 5.8989131287848275 11.720198555712964 -1.315557125866102 1.349610101685753 -2.211320468397043
Ni 0.45647183046155804 9.13484550716698 0.26435669955219154 1.1386659997005808 -0.7784328495378723 0.4843053327549853
Ni 4.508207158841663 0.12481897046341772 2.0353719356050584 -0.2546752243245356 0.7120364243905092 -1.4070151219677831
Ni 6.066853035569932 5.57661930127564 0.3890509193393117 -1.3065505514921176 1.9865723706492433 0.015212188964064125
Ni 7.995452961686327 9.142949748181932 11.244717271832513 -0.5840312252924136 -0.9391018574175762 -0.06834866377772744
Ni 0.21767262895056105 4.770201790844103 5.404323137297779 -0.09662051413922715 0.03129392501727514 1.6863366840860894
Ni 7.734059318343422 8.780553586481908 2.754611488026551 0.668715650115687 0.9383390111096227 -0.2772785635463482
P 8.661393925895783 1.5967175977209775 3.5508294924346626 0.12519498334281018 -0.03097279423243053 -0.8534674099762075
P 1.9125189265294247 3.0783367612520887 1.7042399324451822 -0.5494745703634666 0.1984228295897099 -1.5721359949712537
P 5.088953427617545 1.2861430490727348 8.132812562178724 -2.0087051979925405 -0.626102957651483 -0.150949723709411
P 8.591979735719411 1.5745993938723077 12.520695417259194 -0.2730609259205749 1.609858192112376 -0.20365013942692026
P 6.17570483005614 7.710611654732749 1.326902828433548 -0.6536230174486227 0.6330577917027613 0.8011027803315622
P 1.84168421770324 3.1873251440700088 6.063095945858956 0.24429439531084376 0.9145365093733863 -0.39417788253926955
P 7.282006575707208 4.029920350627838 5.800625986462156 -0.6481967042267288 1.2966114380015348 -0.6831325968719654
P 2.2668472707696226 8.844950431940035 10.271991629885402 0.34617255830458443 -1.1267538216440274 0.3668146600349682
