# total energy = -340860.86991562025 ev
CRYSTAL
PRIMVEC
9.30013948551354 0.00000000000000 0.00000000000000

0.00000000000000 9.30013948551354 0.00000000000000

0.00000000000000 0.00000000000000 13.61169420955454

PRIMCOORD
 96 1
Ni 0.37020787018646206 7.319275028872952 7.21933014779148 3.791471620363289 0.20168350261885268 1.385236849750427
Ni 0.8220904970536972 5.157094854887658 6.19506298422761 0.4957799090534881 -0.4511887527066746 -0.5361896803291023
Ni 1.9765679862585686 2.930408912084219 6.891491853957628 0.10859182756849042 1.5858183775543528 -0.9896374042732828
Ni 2.6688424835936826 8.25658030634816 7.275750375172127 -0.4560867042289242 -1.4019310225766566 -0.2744349234499661
Ni 3.4232791145476673 8.42769357631429 10.112372958670747 -0.8154204825058151 -0.5944151396298989 -0.7605716529867353
Ni 7.928899184874896 2.638012520555598 3.767785118715411 -3.7634219133149247 1.7663193325583193 -0.5054567700216198
Ni 2.4649462212567395 5.799994910663439 3.3667435654349926 -1.2062325338966453 -1.4558827942027637 -0.19807727332483308
Ni 1.3039260837872244 1.4456602125052966 11.581061247036859 -0.14414684185496465 -1.1690317564766317 0.4173239816384297
Ni 3.913517377481771 1.4759321671626016 1.4473993386253936 -1.669770552197292 0.9883857912543688 1.8552851583657661
Ni 1.5716213043266594 4.906716494431757 10.685628918455366 -0.24903602376088724 1.9142498098254326 0.09535167472913256
Ni 7.758464825105381 8.225220235348335 1.5553674502085115 2.691037410450398 1.709530091483417 -0.9458304343906614
Ni 4.984409861315667 7.925830138780607 6.841727736545718 1.2524362861462173 -0.687558493853803 1.425845367300409
Ni 6.408065943338879 0.7806462845992126 1.3272815245647636 0.4237753936907282 1.7360263380017327 -0.09364857599509678
Ni 0.5884133274345354 9.081307393001042 9.863115265046245 0.26360800803779116 -0.588191013097058 -0.11383790645877814
Ni 2.02738394946825 1.0413738404906436 7.968912105832681 -1.005041397533179 -0.24536783088068065 1.8815083537283532
Ni 4.727512102944321 5.8521500939869915 3.5653108477354887 0.6649458986606097 0.19346445714317004 0.7769161557830297
Ni -0.0008509627806892125 4.682248323123399 3.565855835920717 1.6168333378786284 0.071860790696044 -1.3219015800268912
Ni 4.899834391068806 8.87322606780825 2.721685877253531 -0.8966241478693397 -0.6894742228192772 0.5061527676473798
Ni 2.697235810035695 6.233530221970634 0.7373690146138664 -1.1691050329167287 -0.9721343623925128 1.77115146383964
Ni 1.6029720751868053 2.751083618780947 1.389318106297959 1.1249602200787143 -0.7473158164180935 0.28344329759616343
Ni 6.974518850947825 6.58629382015995 12.634565259711687 -2.351072780728738 1.675363472904037 2.0395705201128296
Ni 4.822113123765859 2.5591659363514108 7.68863379630666 -1.0459777307362244 0.7772915368445774 0.7867583386844321
Ni 1.630509788778289 7.200837750052437 5.064516614446448 -0.8956561275291156 1.3987335986852814 -1.1413240061487182
Ni 6.522001954554437 6.791073595766462 2.4027496771210535 -1.2716267430317392 1.2526445455022812 1.1535650282996006
P 8.730534024703173 2.248066963926986 1.8269073484915193 0.06914544864740994 -0.5787077561969711 -0.47683576385081755
P 2.885721740923436 7.6899041953869025 2.683423242583459 0.6305795053655978 1.185977640302351 0.4840255967310374
P 5.540790717651538 2.8644430213363656 0.9997492053263736 0.42561167556851864 0.13042692116571086 0.3584377488251827
P 2.7522368361012255 1.9323272218024092 13.138537968924716 0.8294224532118619 -2.1721515115070655 0.9510783130531619
P 5.233755906267125 0.254065865838888 4.98657586384706 0.9050835914906026 -0.006409503070769607 -0.7901938467285423
P 5.161010213692797 4.7779746608461755 9.469628215227617 -0.8765150358242904 -0.3187941662916316 -1.0864229832354644
P 2.89583099275523 6.073419017245547 6.292699570640589 0.18690685853031036 0.9355696758946017 0.3120799874962496
P 6.461997453341248 2.9870374625936904 11.36784717475486 0.8273807401914847 -0.0003967212177864135 0.43388934219627856
Ni 8.773584371280336 3.062191891345051 12.045628334413188 -0.6757291053190427 1.0175999509244797 -0.8994608459871865
Ni 4.7572539496398845 0.7836539497716157 13.151211269266195 -0.16749245855944056 -0.0242861262408743 -1.1245732690529406
Ni 3.19297045552048 4.167215887803312 5.087684192402458 0.21830774143909498 -0.658854183940575 -0.9878160347938278
Ni 1.5775640935819644 0.0485467291278436 1.4344414540097186 -0.7900470367380329 1.4523454704734666 -0.7261798057704267
Ni 5.036537144220181 5.7957819473885515 0.4026355972215128 0.06436499653963108 1.3271173198998756 -0.33431257364220496
Ni 2.4345161642248803 0.4189471122056747 3.4759913762380323 0.6899313649613538 -0.7545395878600424 1.7313291896363796
Ni 9.158656654716804 4.006090967853141 0.4088992412957662 0.4415990521357105 -1.4557827782897896 0.3786119097802124
Ni 0.7052826027050593 2.216613891530364 3.754296196124027 3.562315109135149 -0.5863961259801643 -0.3924166768737887
Ni 6.543215573163749 8.575119390516317 8.387158917520477 -0.554533987164245 1.5818768764081015 2.224174698651892
Ni 6.319007805766421 5.798162783146545 7.965100908591954 -0.35915328683496855 0.4357024841456174 0.7084998719921605
Ni 8.037087709768421 5.406282797464564 5.143682193441648 -1.821058633082728 -0.4425824990949022 2.0716488887046127
Ni 8.931156637872874 2.5516607236299222 7.825444431078319 2.7949256618956313 2.509860512425329 0.41339893555241064
Ni 5.861998941907756 0.8544782334881253 11.196979428476274 1.6802349420637257 -0.4587292840580938 -0.7401187844490221
Ni 8.497760828660875 6.063002860804323 0.8444099022709216 -1.3117094699852379 0.3515628760822203 0.22034328381188503
Ni 3.939213663416681 3.999794773290009 2.3698643832137636 -0.8807560704888316 -0.6839445512502995 -0.647425373278343
Ni 8.191172423981088 1.1315851953833798 5.390298647397125 1.0089394470360042 -0.40159680071116 2.068914006271953
Ni 6.839611024754626 3.8523782592276627 6.7323850643179455 0.852298586479087 0.8669937265974165 0.27668952381209766
Ni 1.0845078883249228 4.791785368270475 8.501265121292173 0.13196109842205014 -0.6367195568250648 -0.2559083254006883
Ni 8.668613694715974 9.589188020907468 7.661137933343736 0.842869065635071 -1.7191622152565427 0.2639065131148165
Ni 0.6829055366218207 7.233592842004212 2.1516142852952274 0.6318136348830151 -0.4547998670967006 0.8022875446682828
Ni 6.969310772727213 4.055223605780804 13.436689286887114 -1.4917730803414695 0.31690106303397675 -1.4951525383366637
Ni 9.146166567127016 1.0673305303365845 -0.03549863315727567 -0.2736653922737932 1.615679169669527 0.27023142689157975
Ni 4.083058923842037 3.703334220721375 13.14158748472568 1.2613592996674599 -0.195071910839606 0.1306053557251041
Ni 7.830996614467078 3.9466630753000915 9.710609714551186 -0.005971129981770362 1.9910332346340744 -0.08561670682955576
P 7.147687451783161 1.769900282297086 7.378490878241306 -2.409977525484746 -1.0584792056373449 -1.8276671395381814
P -0.011549843468174132 3.2331377587969468 5.524564763952428 0.2690152950962915 0.48763079758379246 0.9523672070679147
P 1.1417037473548537 4.9244797612199145 1.7996430590066177 1.186965715247233 0.658152272777544 -0.4759093953818062
P 8.338300633713365 6.998197006572249 3.6674124312086747 0.48081120355879775 0.8749952567456543 -0.7134271340904488
P 4.478491562881651 0.5313830108909028 9.01555633547979 0.6102359087122393 0.9868549564321392 -1.2305389718524937
P 5.972754305352868 4.378291857972956 4.531197314474239 0.6257100930884385 0.43527773790337293 -0.48360599269511556
P 1.3261627177613 7.032505221850527 9.398072010518318 0.7853786847280861 0.2016012273176915 0.1132987461258565
P 5.692401594709412 8.121774781691437 0.45589377711107393 -0.9572695294655383 -0.589570667053404 0.5336157489543392
Ni 4.956304839203723 7.948485279040267 11.824574244381232 -0.39492350245604246 0.02835129744918343 1.2574998167120537
Ni 5.638079478840496 2.4076666609696913 3.199428472514038 -0.49792112376620695 -0.5311935126660916 -1.4743577130784995
Ni 6.2815654434160955 4.785507773986702 1.975206445809466 0.6891026984124713 -3.6407514961661813 1.0651265357505333
Ni 4.098831960738746 7.782989293440655 4.885128080193354 -2.1232874388165106 -0.7740385771249185 -2.0754775184220837
Ni 8.781935896712673 6.908990066764916 10.63789316150759 1.9930551501601097 3.778236866840571 -2.7356283096868954
Ni 2.024677608821468 8.360007159725699 12.01577767608337 0.14895737586973057 0.09310067391142675 0.4840446228944309
Ni 8.379825757383061 1.6836507869078863 10.254587904610258 0.2133192870855681 -1.08390690168183 -0.3711060883214706
Ni 0.8425926549775153 6.296436366763878 12.713118889515966 0.2682979573142928 -0.5974824657013129 -0.14131554305375663
Ni 3.2626285017211596 3.4474129770163944 9.843569161481497 0.09415662597976689 0.62506911707033 -1.164269559201298
Ni 3.2884177890528665 6.391855799877225 8.84732889885626 0.6362876114939686 -0.9411502553061726 -0.20545762494930422
Ni 7.658237219777648 7.381027956345918 6.8708018332122816 -2.846676312105362 0.29145511215704645 -1.2952333267070855
Ni 4.110280432684412 4.690618448835096 7.1726415865716335 1.2286893202382647 -0.22882175359654142 1.586910582177267
Ni 3.410045015783506 8.399737356437221 0.7181595761055214 2.2353032044648855 -0.01746987464998927 -1.3074828334983999
Ni 7.368063561632467 8.963549024377143 12.951227575692485 0.16269812249459076 0.2759441610056409 -1.3526941399277157
Ni 5.106092888884384 5.4912581737176485 11.488868962392354 0.13260027466794583 -1.419663149749097 0.017982552620349677
Ni 3.962045506330255 0.8355719795333374 6.640506194380646 0.008207218401140704 -0.4147554495803051 -0.670055194862717
Ni 6.454873546346625 6.916188374876976 10.278585055025694 0.05499923905401495 0.5662844428319538 -1.263686662249056
Ni 3.692053151289943 1.433904835950202 10.928993113564866 -0.8728990363382579 -0.19343848900124105 0.529100891803121
Ni 5.621283426579025 2.488559275903405 5.432263667673671 -0.6055770697839893 -1.8860082984812359 1.1365183572299586
Ni 0.002443146693847608 0.030381696305524803 3.2315660351910833 -0.2304137806740096 -0.6565923844895917 0.872859184239258
Ni 6.5383236996922465 7.11754569908137 4.882311067884384 -1.5018386921075877 0.972926519276505 -0.673620286506156
Ni 7.007115840525045 0.20192928279469427 3.6481788123371626 -0.9169345772919175 -0.12867471436129455 0.13601238567328836
Ni 1.8817158616656804 3.618293743490532 12.405806933969098 -1.1870418199008073 1.2716614529244163 0.9917202549442405
Ni 6.323360271136504 2.1407340518839892 9.250589465464245 -0.8575264105369296 -0.47093945297104056 0.8453524941785571
P 8.242853300180977 5.4763686500905076 11.719968133292312 1.4060815544099203 -7.106404182180574 1.5715893784391644
P 0.8559839261022628 9.053825480247637 5.966536231963046 -0.11220397039978094 1.3864730361503734 0.3371158474189549
P 7.686472443845107 8.96888730455327 10.77484050833254 0.22136015511217363 -1.0925041564325377 -0.8867104883000535
P 8.503257211211556 5.686802910622254 8.00586807087776 -0.9939257472359915 -1.4789481606626593 -0.251248972251806
P 1.047604934076018 2.5876429640505405 9.838355503177077 0.5525992320353773 1.1579078786493282 -1.7622711306308747
P 0.44034394356667655 8.336022099491847 13.561603182980548 -0.6557166667528578 -1.3823165907798387 -0.019719589916114423
P 3.291114829559969 5.76764902485757 12.441007032642657 -1.6627082460338718 -0.3475339574284853 -0.9896602870914181
P 2.9785185346471184 2.418938430261444 3.6848083424794855 0.48214380632729226 1.5101181585075607 -0.6148883198825861
