# total energy = -340856.50970619335 ev
CRYSTAL
PRIMVEC
9.32933826123131 0.00000000000000 0.00000000000000
0.00000000000000 9.32933826123131 0.00000000000000
0.00000000000000 0.00000000000000 13.65442956927692
PRIMCOORD
 96 1
Ni 8.260382532080635 3.8429969222627096 13.545671799787696 0.47001102761950025 -0.154174915514928 0.7594874187836211
Ni 5.619498810791686 7.226607907611657 6.453929736545954 0.20985755378921275 -0.5521436325551975 0.6955001172983829
Ni 7.11138125285603 1.558251353240081 13.499875012035295 2.537430451623798 0.8449555158504544 0.9178290640817289
Ni 4.283323021457602 8.103491053412885 13.442922201794287 1.177717714286404 -0.9571453451828484 -0.03143507858082973
Ni 1.5813881117044932 1.0988280989739576 8.431514312409709 1.9234965252346807 4.675751901955295 -0.06982910497799587
Ni 5.4043456157488325 4.388781859232488 2.7557232085138224 0.47532421230229754 -0.586871522954686 0.09277568647184022
Ni 1.4660401755536892 4.298315267769017 12.54706877991986 0.29011968117507453 -1.0345247517042764 -3.098570888360967
Ni 6.007459335284665 0.032176887074096036 3.7426925437828182 -0.0027598221333242795 0.8174555106579728 -1.1964255751085524
Ni 0.2520106110369481 6.831883613003074 6.598080138183525 0.8398606178260504 0.2700054269237027 -0.9300636584747078
Ni 7.87266457037801 4.528600649194644 3.185441850299829 0.14171046449933014 -1.0170196529409774 0.8152649307645573
Ni 8.052347622000825 8.136125078053416 7.9663768385631615 -1.4099603206390363 -0.3710968323500899 -0.7016262848007788
Ni 0.7250780222604114 2.2279205707134606 4.251374703166722 0.3789312407928442 -0.12169468349903557 -0.5766025369285102
Ni 3.722247299357512 1.589551282533671 7.176917987074096 0.5842675096729357 -1.5166582736189234 1.0017601556787457
Ni 5.541860059202638 9.241912863242877 8.230084573697964 0.05355582173926905 -0.514124730109263 -0.8568083014239825
Ni 7.302464755625422 0.12563259846175903 1.6707015969799792 0.3011944509319974 1.1704227232868873 -0.656814784913043
Ni 6.630146006134344 0.13513266343930383 5.861559682755128 0.10322619238120288 0.08739051090052691 1.35506212593926
Ni 7.6114151158300505 7.5321717180894385 5.166522129146091 1.5292947314360115 -0.6038518595627664 0.28803348807000717
Ni 6.231344790780216 7.1101124628757235 3.2694572044737265 -1.105469201233638 0.552266788396623 -1.9125210000597836
Ni 8.684652840421798 1.0887897311885917 7.7558799161612715 -1.383452504156495 1.1376211033758343 -1.7091945625208693
Ni 0.9192616640772734 9.225409264160803 2.658790452819834 -0.5795744750726406 1.1358889511760761 0.16630049513386844
Ni 3.0629989525312085 2.8979443030342793 5.563169200335124 -1.6309216976508945 0.16658203093002924 0.21207307338329281
Ni 4.670285306774899 4.262266705387369 10.369215035002815 -1.9065609258216067 0.9090338343876021 -0.19680354881873205
Ni 7.708095046461787 3.095604989157467 8.659721117308775 1.5262562017200036 0.2571897632162732 0.49495972714503794
Ni 5.271393218621276 2.671978405144549 4.8265946347458035 0.8404694550546429 0.4833254853402192 0.8656621522701866
P 7.442012994782954 0.5224196097221493 9.328323991438413 -0.9997667793978007 -0.5246598253126319 1.9756868340849907
P 5.860848787192633 1.7087708939920279 6.93784250329961 0.0717584607902248 2.199749732840308 0.33607223664578895
P 2.798064409437506 1.9772225975458446 3.2026871317600976 -2.4052459243370317 -4.204659725456475 0.6956127316168472
P 8.804413553489402 2.4569651501730525 11.91556495164086 1.7215276301649254 2.5413804374104814 0.7702348871081122
P 1.1249968923177787 6.237735387372201 11.294834642988757 0.3266373164851342 -0.895260948973226 -0.47745925636742936
P 9.324841349529233 2.1174332197078014 1.859692529215675 0.10946266020921791 0.08971633082022613 0.6610992712210099
P 6.671213752408676 2.4660892428255505 3.249344084484442 1.9609824379952807 0.4853617990439576 0.13619441977710736
P 9.229075694030366 5.527520866557557 1.4869397587440023 -2.271956336911545 0.520445015900336 0.29269181277762496
Ni 5.617866176625851 3.4475542686211584 8.316148650516533 -0.5323991029384186 1.4469191572515725 -1.4556791628323897
Ni 7.824693113916716 7.309340477798113 10.204979501390232 -0.9320236104145563 2.5720285013136412 1.9137409885098138
Ni 5.791401194447034 6.4678528407122 8.902428512401888 -0.3153434887388698 -0.09607029806271197 0.11174348582359465
Ni 6.347942858235147 5.72223348184415 11.285509036633504 -0.19076762703729724 0.24044956764345685 0.9468822726939433
Ni 5.628203083230113 1.3199707290709053 11.973692325547459 -1.878740818285545 -0.1368449088769127 -1.342907749964913
Ni 4.770015930962224 1.8882673588530334 2.5278989064764663 3.797302882333086 -1.632956468692736 1.371625943835212
Ni 3.1351987000135018 0.8919164412002416 13.258451333863434 -0.3842436541446931 0.8779381414240622 -1.911064213008599
Ni 5.199874512819588 4.621670125985362 6.338249675959128 -0.19285741968679043 0.5796168982748018 -0.7691596517660624
Ni 4.196214991706707 5.754326404875431 4.336210106158775 0.8055032233921029 0.18722593243262592 1.9146005082966318
Ni 8.784411452623395 7.691796692817703 0.9323339326096665 0.7291543150177184 0.6211409856605173 1.596603898205631
Ni 8.636784006679498 4.58786060474543 11.04782642303593 -0.5487932280257258 -0.08606870676530982 0.0704759945333754
Ni 2.9812926095347065 3.860106928320666 3.5239214314284735 -0.17763597475134568 3.487591909289645 0.25606901934826864
Ni 2.545444592623249 5.327621139292653 9.691572965197304 -0.5223584308729649 0.9695306062210785 0.3628567038284848
Ni 8.213036141271406 6.242036212231917 13.041209300022118 0.0555463698067366 -1.5110185588346428 -1.614419072010181
Ni 5.295294982809108 8.672972509132507 10.464932177943613 2.9891732770617296 1.3359827407103058 1.7767047895577013
Ni 0.6501597056585497 9.147369351033863 9.923465791575921 -1.341431936750335 -1.208993384471234 -0.14165672844325927
Ni 9.005983232272504 0.03984187124924168 5.148061234932632 0.5284943685673738 1.6735307905706727 0.45933992105889926
Ni 0.1699572166634806 0.6636098123836075 0.2293533805503869 -1.3910755679193914 -3.1824574998732933 -0.26203166468960676
Ni 0.6214057527298541 3.0295999221672583 9.735962888765657 -2.062358721651939 -0.5526455118922805 1.2313861503441375
Ni 8.251174475385325 0.5947499679377093 11.532066649556562 -1.5906654212340088 -0.9725670790545572 -1.670022006086466
Ni 1.5181072114367073 6.025847460661018 0.03911045114294735 0.1703417550827776 1.763623788004027 -0.9999012480931361
Ni 2.655596087457651 2.821658305468352 10.888219174050036 1.0614249185292302 0.5933666437607266 1.5929863560577018
Ni 0.5842712553944722 7.411030262984441 4.356200078885265 0.5822473939191134 -0.36108495664004264 -1.2339747370069198
Ni 0.27175988684070396 4.58443673766622 4.908302843609922 -0.356766788880663 0.10970357257543044 0.05539158939642718
P 3.7421747655187962 4.72127946877751 8.002587731427585 0.8453278115882087 1.1743770799489452 -0.7480220984564988
P 4.079365032123334 8.578914122504196 6.315473962878818 2.700001818732537 0.35341792701308805 1.5280410615345683
P 0.7510508995043323 2.5282599518605684 7.006811501001167 0.05634983954463843 2.586570403683558 -1.4648903970180127
P 8.12192582547969 8.477569522827215 3.2192364445988155 1.5040539545913516 -1.0530647194899927 1.8890252309306885
P 1.5595947779251111 8.114331744274033 0.071871354781508 -0.22568115108503067 2.8819958133422623 1.02996130070331
P 6.024578670680712 6.396940541886393 13.446226653345938 -1.1064770736728622 0.29160834990545903 -2.48363680284211
P 8.144950631887017 5.672741343274106 9.124777425913935 -2.4278927152022702 -3.0704795294413896 -0.37247905740959725
P 3.815391410852953 3.809980394760469 12.594476744360486 -0.2912990461951564 -0.4293744850450606 0.5527568406591642
Ni 7.504454254622597 5.5281366028715295 7.062412490152863 -0.9521373504452958 0.04562731092081174 -0.8880178942575674
Ni 1.5061470000047006 4.233989481635097 1.5617386598183054 -0.2210523940637677 -0.9783723728824247 0.6950193210072224
Ni 3.598307042825368 5.9046686882036585 11.977447384128881 0.43341240255986 0.003501328285039131 -0.08141809536717591
Ni 5.669690649718516 3.434549171323017 0.2574626762170298 -0.048670725732825854 0.6042071860196563 -0.7031229239509633
Ni 4.009926768715826 0.7538543656005242 4.901858136857013 -0.609377417366686 -0.05159355580657566 -1.3690237303256745
Ni 0.24832458955739597 4.6994488176457665 7.797894590251787 1.04852826507222 -2.6231597727718183 -0.6131068025021311
Ni 6.9591171258811615 8.292298197688199 12.728331288481394 -0.5329534327799919 0.3078412668245537 0.15887797741755216
Ni 2.2179195202804567 8.627725219393636 5.797425148052063 -4.392162822809888 0.5712515570292419 -0.7593537214192342
Ni 1.8135580194243988 6.954834959697627 2.0383876039347073 -3.061510750283876 2.301799902635539 1.002442783568067
Ni 7.7374824614468265 2.332903612245732 5.678822205841486 0.15866200475200415 0.4441061348282803 -0.22515741737107675
Ni 0.5155961318427658 6.6808882760085115 8.849436006180293 3.2757587198313 2.3632569814997555 1.703591614511795
Ni 3.2747189511567623 0.42152934881017573 1.7290332833907607 -0.5770730488070255 -2.0620689583256615 0.8271678528497303
Ni 3.2851678098181094 7.8941780240146775 3.738937485201397 0.07438998487580092 0.5071177026638105 -0.3077713328185667
Ni 4.710121580421286 1.9282249138945973 9.486333124809402 -1.2466659593213434 -2.153407655240659 1.930183450336553
Ni 3.0663855022580555 6.826435279558228 7.11765803152331 0.7399380358967838 -2.258663476457381 0.3431132026529704
Ni 1.2262855159662163 2.4432790111943055 13.6240485020197 1.4068798819414996 0.9061680828040328 0.2252633468213217
Ni 3.6118719004089384 3.0916027031166466 1.3136706270583982 -2.356897100719999 1.7902372768264974 -3.0976697167029363
Ni 6.874994484319223 5.734734794885404 1.4982049344882675 1.252751246283475 -0.6153873710061918 -0.4839278948109085
Ni 2.8763562146928883 8.66619940967881 8.325897808821095 1.1448731569525572 0.05619094536927097 1.0450544475910066
Ni 2.453242744274948 3.1714245198188693 8.58503136949013 1.493689580637892 0.8560809363396547 -1.7633399382150212
Ni 2.1327613221904747 4.903014974780233 6.2612247948164335 0.5855330066489206 -0.24364056377692878 0.20219258104478727
Ni 3.468097471096415 5.725153564666472 2.2030466894965994 1.7052869999363471 -2.118086611341862 -1.2504362249970529
Ni 0.16048513970020728 8.09194133285686 11.774883197905334 0.05169331460923355 -1.841300928271532 2.764143900628085
Ni 2.617168543862927 8.12364242368834 11.847607254188313 -0.20881240035415005 0.6961881445043429 -1.6987615401130032
P 0.7654264765679666 8.90607535066146 7.547526875652574 -0.9987846179901895 -4.990370853823316 -2.2717573335268617
P 6.246588929220076 3.2229038074021874 11.079436086354123 1.3456048371811018 -0.28887321036248315 -0.250639106581949
P 3.8086929461039816 7.566708927700428 9.928258272553006 -1.7891054772148993 -3.179164430944318 -0.44628308787494103
P 6.435134852028855 5.884675916675741 4.874413090062412 -0.5460611738065435 -3.5881498108100653 1.2240603061066853
P 2.470539337094714 0.8238635844991706 10.380028670783501 0.9973417148960758 -0.5769730328940516 0.8700086021643403
P 5.53902394042313 0.314757873165958 0.5590437922639814 -1.749316884463052 0.990857649833629 -0.5781189735730367
P 4.478698019748619 7.526200941711526 1.8555960168601413 0.06390271219123188 0.4346048802060644 1.2928229174933799
P 1.9555598744997293 5.781512096071116 4.147983246712689 0.2788003995075134 -0.05347328932779177 0.19546966049865694
