# total energy = -340869.2955026674 ev
CRYSTAL
PRIMVEC
9.27215365143085 0.00000000000000 0.00000000000000

0.00000000000000 9.27215365143085 0.00000000000000

0.00000000000000 0.00000000000000 13.57073411252323

PRIMCOORD
 96 1
Ni 5.894502767532878 5.853399310562803 12.945136460942868 -0.8123688401636847 -0.8824681680839318 1.0404357178720725
Ni 9.263539783115299 5.732916946504793 10.346612629023019 -1.0236718681501726 -0.2992247288001363 -1.0781016078539627
Ni 7.3930775067524905 8.21374655095831 9.680058831678627 -0.6169356893299182 0.8297829218750741 -0.100057307734918
Ni 1.4302946000074235 1.4126311473730913 11.606017729066245 -0.364028869759715 -0.34309417648957685 -0.00810231739216024
Ni 2.141274066961722 3.4529592779411273 7.9689246069389394 -0.9161357355397061 0.2692225260110912 0.5337358194719711
Ni 6.00434069924222 8.14573530420092 0.714876553118188 0.5884676637972123 -0.5274890672313108 -0.5899357637023065
Ni 4.025857833278381 0.37545824349987744 0.35820183840919234 0.3805852314564994 0.13864108154538704 -0.656718882765127
Ni 4.3436887148529895 2.213745219607359 7.8454176663721 0.10406154379830465 1.3154797356609473 0.3911730342746747
Ni 0.4497421021770167 2.6109364639626746 9.592229283787054 0.649034883857308 0.3266730548190761 0.9165129163734668
Ni 1.1158016937337905 4.980388959206955 13.742810564186408 0.2710937748918751 -0.622376143619199 0.06958690706020275
Ni 1.7442589935250685 5.509087158267117 4.495943040484124 -0.6014522489823383 0.7191470672933615 0.49424778867967784
Ni 7.25158444260556 3.7937851004780163 3.197454885743272 1.3401191314761822 -0.09228666265056364 1.1576780220267093
Ni 4.812813326944341 7.43312393821059 8.80437995451272 0.3675523095319412 0.4641411991022846 0.2460715418159246
Ni 1.6409208414990162 0.7287282234018776 0.40008971957499706 -0.2526273406565714 -2.1655730869585996 -0.6496174958336554
Ni 5.079128123040552 4.290114211272323 3.75267422578505 -0.8526405431995381 -0.56344157406652 -0.20902245948242712
Ni 2.2388913002080457 6.855338957918852 6.438241326970021 -0.08996572782687086 4.0189574287572265 0.31766390934193034
Ni 9.373590974357757 1.6946158830766627 7.465288111881579 0.5705362761297723 -0.6117988823239852 -1.0220777841901754
Ni 1.0954678608586776 2.3062998569805355 1.7549266062577713 0.005502160765151814 1.6162604960942937 -0.09284999135320139
Ni 0.9281703932044776 1.5281992700157754 4.0003538475482 0.18531714544568728 0.17396469654734556 0.5472647071963412
Ni 4.876837547647786 9.092199656485471 2.502375307805956 -0.27927142560666096 -0.44122469951542725 -1.6246312366564923
Ni 8.124400078735516 2.3814228455597255 11.64208826105474 0.12009314333987059 0.8277095842858131 0.22345483285767326
Ni 5.880093840816999 1.7820986524230782 3.664139067003465 1.1392187868802572 0.07412259014702718 0.6502137346567576
Ni 6.374679786731906 4.3952048003313875 10.960036986160206 0.1705163329874289 0.01569247103459233 -0.2685949197294213
Ni 9.151430173770569 7.185983955787765 12.594428377084366 1.860521724174357 0.7212923957711384 -1.1644996729342332
P 0.49005928052063985 7.823667048424796 3.4861591511707806 1.5372193855997267 0.3049361773626168 -0.6456281721686042
P 5.764989325855005 0.15269475292779094 8.489390060805388 0.635772362420447 0.869251926503974 -0.6091023093284285
P 3.6576698854271017 7.561858518984902 0.8216296393202112 0.2734005686481808 0.08358399267024315 0.3901425361276313
P 7.871808069987762 3.0143771398537074 5.647895006727486 -2.1826783791803184 0.2950217464623822 0.9766867576498856
P 7.226521811387397 6.929349288064384 11.704459256768839 -0.5621583364787222 -0.9361098646687877 -1.2720856849460285
P 2.112224409689616 1.2556257702302345 8.645643466290164 -0.4864437192542268 0.8768508218971544 -0.7813628787004737
P 0.5490088515512395 3.1651238133072344 12.860754299764913 -1.3065806333991046 -1.7776491557488416 1.1110415531150928
P 3.9307255372005616 8.212207373458416 5.814774300253703 -0.5514450638262761 0.41886767197646574 -1.3618151283923774
Ni 2.291390233969509 8.381841423823298 12.243923353390008 -0.03883599903059118 -1.0440545455715824 0.7373471352411559
Ni 8.26910130803283 4.919841796108694 12.37877570111872 -0.3222055059660257 -0.7154500780577485 0.5726129561531428
Ni 7.92407519990888 1.0142159787407508 5.14161223902874 -0.1883561893823272 -0.1599591262968729 -0.32320746486797886
Ni 6.16152224730374 2.9957215667826964 13.189301009271018 0.32483497316907284 0.10173315277544415 1.0104995924342726
Ni 7.61279045878563 1.4208740919357796 9.567503231745073 0.06756293465163848 -0.7103353825390024 -0.9108724302582377
Ni 3.1552860583229685 2.652216091851413 0.025273109105196097 -1.3364864198196014 -0.7584003563670293 -1.154573929180089
Ni 8.783492574066862 4.091170883334146 7.795110669724945 -0.3303134797851408 0.577367954339625 -0.8743936186059134
Ni 4.339664600184591 3.52073872085817 11.65219861735525 -0.08737919804661726 0.337394040781006 1.6881346565267765
Ni 8.077872411901355 6.423191694439426 0.8459143368501737 -0.2606818355299317 -2.320187404003791 -1.252963876514913
Ni 8.394525729967008 1.4766368237693086 2.693546716585027 -2.730989268252987 -0.692825141569381 -0.7544778813841716
Ni 6.972010466841581 6.158082278313011 9.286290866437534 -0.7531833309424641 -2.7795532932046196 0.044832068713026016
Ni 8.527636767247044 0.8757799436402961 13.476580144688082 0.6820751021417286 0.3313648038677906 1.9670296726306253
Ni 4.78006408038032 5.258173409323464 7.994112412230888 -0.49449487169347744 0.08937668809262027 -0.1761442206971676
Ni 5.328957030011386 0.9717866038038988 6.002525211564634 0.11979978046916787 0.36971923527627293 -0.0134214156122285
Ni 4.975919781165094 6.240891882238061 2.230390589774893 0.08956592128529092 0.3533693331633398 -0.6373103963315282
Ni 8.310260397924589 3.4556482024891357 1.1037172959288954 0.28237294735012014 0.34968545655384936 -0.9666586839899222
Ni 4.725108025911194 2.459401657451973 1.8108376925491212 0.3706900838299745 0.6602217537120629 -0.44096141855171156
Ni 5.957210342423161 4.0011475438975435 6.156702581855275 -0.09613200453858282 -0.09443250534897285 -0.37380780352334975
Ni 6.331286107819216 8.630604033128543 4.109598361426257 0.029814769368587363 0.53031033873019 1.8303228319934737
Ni 3.1301770663367368 6.071026028032832 12.798939633267644 0.4766197911852695 -0.021296190374614936 0.9535969657099578
Ni 7.7330224746960665 7.799077297040938 2.4942872082086187 -0.1329787410532871 1.649248263874224 1.4542887102427664
Ni 5.967613698777869 8.065280827293783 6.526614223063364 -0.1858565628889251 -1.8511289701055476 0.3179793836998201
Ni 1.5351719295333701 6.767605840424864 1.513774580638752 -0.17850063674448613 0.6651017075121836 -0.8712291048350027
Ni 3.083157975361043 2.518743440580437 10.068331191472808 -0.2332527927847015 -1.6572832183635586 -0.5932208622114815
P 7.6988824050899725 3.585031834016416 9.538651998560303 0.2362303873557867 -0.2669072476143532 0.4487392627249175
P 4.00834273510187 4.493415451408996 0.44751493087897654 0.65214617579278 0.25992593120051366 0.6369807809062514
P 6.642441038791873 4.941204838034942 1.47663126047714 -0.1326630095850812 -0.5307019177416538 -0.48102666200371347
P 4.1507722867637975 2.8131250456656893 5.472642958487987 0.8317778408179158 0.2733933695593292 0.29543517985071704
P 2.950872159752637 1.234902506903341 2.1907104083845392 0.3095191687476089 -0.3748470434211415 0.4422387426022384
P 8.688703347672755 0.1260094948272097 10.774172030894324 3.3248073977288355 1.313889251245376 1.2274194523869055
P 9.371087492882024 8.22269417919565 1.0001362134781613 -0.3398103635319825 2.1353366566715613 -0.8920213589900057
P 6.248040712674317 6.494772720338135 3.984529990190851 0.9778218996955933 -0.22411046416380115 -0.4475781525372808
Ni 4.4934896286379065 6.130006197170357 5.063159620086827 -0.6694622984737244 1.5056552376402006 0.7337020822894009
Ni 7.80402862707072 5.630580187069034 5.227067188379813 0.06875952606290094 -1.0966678008919242 -0.13497571687865786
Ni 2.8137277356505876 4.99405611363373 2.6353824969655184 1.695993747559879 0.0706955667433492 -2.367397228920374
Ni 2.275738838669376 1.900819307294462 6.065588837153686 0.2355863260138846 -0.6623819945881754 0.4358464659226494
Ni 9.11012272942099 5.861790609583313 3.118866893358596 -1.1597215348192995 -1.2434153135945296 -0.8370324043486359
Ni 4.439952213671695 6.092407614266307 10.864322398835437 -0.04470737020970365 -0.874902439921532 -1.7083422418229033
Ni 3.021451793061054 4.822484183163557 6.308626818817757 1.4729600614000244 -3.0795627226895803 0.0906961782349922
Ni 3.179597645098411 8.87403515410584 10.172269251837674 1.144424499450913 0.17414081711389365 -0.376185559726907
Ni 6.7948845163567295 2.165400210664888 7.644896217888852 0.24479678886855902 0.494136202802478 -1.3378938416900894
Ni 2.4836761556129603 6.46446205017455 8.794731351462177 0.12758379528996092 -0.06771025886278016 1.301854688678345
Ni 8.549333606703389 7.985577394829365 5.200251192913277 -0.16099553798118726 -0.3363825687973562 0.22781568092953022
Ni 8.55590756361559 6.734902954628911 7.448039124513786 1.8875501890470587 -0.3676554107687087 0.6742095833507227
Ni 1.6615513832897713 8.873543729964307 4.942786667441459 0.033816691439128854 -0.6653888997352992 1.5910037784100342
Ni 7.862916074672107 9.027229676113416 7.363154412609963 -0.8592217959614816 1.2736797689060257 0.9199625654849641
Ni 5.607538885338684 0.9305069759151608 10.573284332343329 -1.4084587963928452 0.03227042999793152 0.31033935065605905
Ni 3.595333196681372 9.196956448014438 7.799412949001758 -0.24583808564887985 -0.5744944894465719 -0.8444274112611263
Ni 4.929188126951427 8.07790950051581 12.062930914848192 -0.8119227537652016 0.27776835869857325 0.021168149437182898
Ni 1.7518157987203336 3.886005940321095 11.346300997481631 0.2197269903841248 1.8608914488089499 -0.03423860946789587
Ni 3.744420154638025 0.5628512496813151 4.207918423916508 -1.0823231021344781 0.667939948291927 1.3330195443169235
Ni 0.503524301998633 3.5755093322550198 5.2491599487954685 1.360013299296948 0.1417210060222914 0.0022564001343445012
Ni 2.8569359714910005 2.970872195097652 3.755130419277352 0.27313497369161993 -0.7407723588726209 -0.1466852920061022
Ni 1.107419666866895 8.685522998983215 9.179461748575877 -1.4580908575976759 -0.4231472731884261 0.050332172595648796
Ni 7.141199453833002 9.013636698915553 12.127934274973258 -0.8527012212341444 -0.10269011737207477 0.12727089203523242
Ni 2.878456640028683 7.397602317716037 3.1780213789840617 0.9727768810725183 0.6661620304558978 1.1479350837073325
P 3.7718286407204844 0.9717958759575126 11.839149341809309 -0.44647026418508273 0.43864382616212844 0.047781124039020934
P 4.629428672770159 3.886590085998766 9.545396563098999 0.23070302977965432 0.21616549828511158 0.13339474554478317
P 6.674077626922236 5.949746258764033 7.09944787332532 -1.5614643741900207 -0.14841024511700893 0.008829682476488018
P 6.535106588558264 0.9877903409413565 1.277176109659481 -0.05551757345133019 0.6182726629737868 0.10467835144669714
P 1.7845372288235135 6.206047128957316 11.19616814059734 0.8731039532602124 1.2194893989065516 -0.6531841301389912
P 0.9405579904325445 3.9972903279941936 2.959370088539705 -1.0671384239742396 0.5026051595054376 0.8041968458758536
P 0.5932685496114599 8.580803296068703 7.03059007894299 1.084710628530048 0.08683978060337948 -1.2844611757922462
P 0.9116928490173535 5.2797589829364435 6.6660395969544135 -0.27573410187736386 -0.7563229050127104 0.2632354551897208
