# total energy = -340857.91024333116 ev
CRYSTAL
PRIMVEC
9.44510989104487 0.00000000000000 0.00000000000000

0.00000000000000 9.44510989104487 0.00000000000000

0.00000000000000 0.00000000000000 13.82387305187944

PRIMCOORD
 96 1
Ni 2.7919461489231217 7.53848222924084 0.2677613093673189 0.6998144284030205 -0.2982518233639057 0.2635470728928687
Ni 7.834180284648494 3.182813131608621 3.1907574135392873 0.5748611287573713 -0.7374096130479751 0.7037371604961945
Ni 7.875625426857225 8.727120973894975 0.6828285526196399 1.0878553448066168 -0.00806400795505708 -0.8429968494621869
Ni 7.603615707060214 7.363105428755028 6.359562502666192 2.2775158332771936 -2.14515981340957 0.07475610996596803
Ni 0.743821294262099 3.426515857057507 2.636641151470076 1.3263652722251995 0.04626057362943646 0.34942783201708855
Ni 8.115918467634883 8.266681311740577 8.590210327957768 -1.4220131380385121 -0.572945142681581 -0.5251377933903149
Ni 0.1686433816433767 3.557670653026162 7.327509643102783 -1.6776059890813109 -1.2534899242217121 -1.2671422248978241
Ni 7.613079707172601 3.011082143541353 8.440345713802861 -1.3096667285235961 -2.284612849333291 0.8954668943364449
Ni 0.06787444871020794 1.149554879918552 8.441133435967902 0.22607504408933968 -0.04147883597007695 -0.5381493751586345
Ni 5.533682093657177 2.8784728006492375 2.901077782155199 -1.3221106107139038 -0.2538524713129241 0.24371769687176736
Ni 5.415977134175586 1.4631325283528986 5.2752865552593615 1.2635619637457336 1.926126249548044 0.8817621431558427
Ni 8.536707558460142 2.0005403910220996 10.703907858048172 0.2636388612757266 0.5571626830363436 0.5373705880110811
Ni 4.388453074069436 5.707207652604039 5.445113409172281 -1.043240020090087 0.0015634878323779525 0.18735834424543216
Ni 1.942755208699168 4.412311421658146 6.406383801425792 2.501822986832833 0.10324213322080283 -2.089459948744105
Ni 9.179324500223023 3.852206959917025 13.150622961753873 0.49815869369830984 -0.2869122299813704 -1.336631172927582
Ni 4.854852600566065 0.418033952269587 11.937605443955947 0.3720023748834948 -0.2878339704646914 -0.3289219987542529
Ni 5.98393992734735 7.633197791243841 11.866177744904142 1.1347977749944262 0.7642246763582903 0.35685652038099186
Ni 0.9627872769022635 5.6784850734206405 0.09041048091395347 0.3124720807283457 1.0087617838075593 0.342344699918062
Ni 6.19635100372205 4.477076540191709 4.596824476943071 0.813671103914876 -0.2546790809792775 -0.3268993118972693
Ni 3.1529099136886467 1.6829769062130753 6.288880967295904 -1.2380121403010873 0.09842440011718533 0.5489958309548352
Ni 3.662407476625212 4.222001902432132 9.386215854376486 1.6270881828374173 0.721655692647828 -0.8378366454174863
Ni 4.635603264629122 9.205307997537568 9.460948397379713 -0.6672732612422057 -0.09999791525189229 0.3325505966457757
Ni 1.0248227586768657 2.1389112509487016 0.42869937036031186 0.8337429349640868 0.26342597393397216 0.9355611912541695
Ni 6.351694726125656 3.8312671512851297 0.08047800335089446 0.42681495184800045 -0.5059812750665221 -1.5681374153348218
P 6.096195058420911 0.6565768141841453 3.381029152325731 0.36258596666560133 1.2660083684036971 -1.0505247266769584
P 9.27417229376452 6.028180822084293 7.149320088890955 0.7911842356662697 -0.2390776269965947 0.22655404060828724
P 6.445352435820685 6.693966618413723 4.811287975697432 -1.206000363281181 -1.0333312456168076 -1.059083157769931
P 1.1527284368424657 0.9018682071169669 6.46626863167785 -0.2891035812057344 0.9828530343615978 -0.7984617431642894
P 8.406185584854292 2.774104336335999 0.8549609578573434 -0.7185351447409754 -0.9946672533877065 2.9402852931117747
P 9.452288176119188 7.870808420811999 3.201471001690465 0.10346067698951214 1.6496974355965008 0.525067602274012
P 5.064534040181802 3.907583639217344 7.095503741744894 -0.5939731669964738 0.9493685294509069 -0.6726936609268286
P 4.5939219946730745 8.927905119991882 13.89879845167646 -0.25986062518021696 -0.29185620425020703 0.7051345550643534
Ni 4.456202847329062 2.1258581090771274 8.130815294957493 -0.6075115678025409 1.5947879280428148 -0.12576294003113825
Ni 0.5141577801575747 6.927034150123541 9.374839219510848 0.7358625802758295 0.9572358480141256 -0.8111300826605772
Ni 2.5857688450775385 7.048564379111636 7.458629492164835 0.7673351969628139 -0.21991056714984064 -0.2394103277456651
Ni 2.313579668192568 2.4317191027292195 8.654892329524277 -2.3729554397344423 -0.29158186754289783 -0.5812500630028506
Ni 1.1732526606390874 6.639033859278356 5.2305941842695525 -0.7322599505262357 -0.4874878442480249 1.123064031497266
Ni 8.54458478011057 0.6228983858400986 2.8679698384486656 -0.07481601666962599 0.45570823784358294 -1.278606773893998
Ni 5.094097234145642 4.400816722918851 11.330793024773937 -1.0403493288058536 -0.23795225514289986 0.12146894064147469
Ni 4.238596960513432 8.98454744401781 7.037304863608666 -0.288958828097754 0.20342285390746254 0.003359660500852278
Ni 3.4098169027673886 1.0850447793520883 4.102234130949997 -0.38338670546103654 0.1168916056834374 -1.9806513771791183
Ni 7.2269730598729724 6.650320765600015 1.7141183780399696 -0.6849179709071624 -1.9659498093028853 -2.401874179651321
Ni 2.5124464569812783 6.45739495093375 3.2739216061436376 0.8156940478821759 1.601744561866306 -0.8568694936792212
Ni 8.67379388344135 4.9641703024630255 1.8501874646857444 0.027010981371205094 -0.8941661732471504 -2.1368464084478687
Ni 4.330384538449727 1.4526295661523265 1.1250174289285644 0.7069883204436405 -0.7780291863415504 0.9602332400795526
Ni 7.083482950384582 0.3112513178677993 10.272381566297005 -3.6433868769065 -0.07626740440417187 -0.7267403062595871
Ni 5.220161115882186 8.725723097630869 4.739003605178369 1.0813555960148862 -0.7960063396452614 -0.024638881594602726
Ni 0.05938046138379203 0.7978010418093019 12.569591914534707 2.827779732311175 -0.08688117536427618 0.284875916277632
Ni 2.8193653029413417 0.6182230564432613 13.37186049332321 -1.4814580715687067 0.16880449250264476 -0.937022349180728
Ni 6.909352904404593 8.098633916531425 3.1582851257285256 0.6932282905450706 2.047730944436435 1.6569446040772173
Ni 0.6427775086310555 8.429911700904505 7.127976029555656 -0.643448390908466 -0.6535435703609389 -0.0259282898299876
Ni 8.451191533492533 0.03247606585471862 4.968147638238801 0.3793431315192821 -0.5166174146241296 1.879120313112151
Ni 1.2055738266915674 -0.06245201112086581 2.019999206422836 0.4436803601447714 -0.40881542994678627 -1.2382828774639707
Ni 3.6036966735328058 8.613024046392356 2.6304338252486583 0.36725071913112234 -0.11318021827012119 -0.5518374141686884
Ni 9.150195781314242 9.221666927871553 10.331119760208098 3.100903907369518 -0.7046779271429089 0.7430626975686944
Ni 0.5940926896896446 2.0150480798171344 4.584010296351779 -0.16376924407158247 -0.2925115784460188 0.7487651472701105
P 5.797776811364189 4.751419202132192 1.8170379624956836 -0.4655661044742692 1.0662300532273572 1.9121674733751068
P 2.1003563123671047 2.6191384183280975 12.28806813554288 -0.3473424102429696 -0.8065846293817399 0.8471126714027734
P 5.422664271979547 2.4581465202087163 12.324328856931563 -0.3659158023697827 0.5506259103590904 -0.1578161118119411
P 0.05098659222223769 3.2427801343167433 9.364374982260836 0.8158902230533819 0.06383020708208363 0.12169596905061622
P 8.940684353676572 5.321252127062692 11.71390746125959 -0.03571982199911267 1.1487092428691958 -0.5632034899137848
P 1.9899713130522794 4.731055545203746 4.224713593482298 -0.6112193556714313 -1.7193403927056197 0.5087526671640722
P 7.879941842078145 9.094318511189616 12.148060438071889 -1.4138503997220617 -1.8835559802860011 1.1330620232502422
P 6.032346115546929 1.0436374175829264 8.472872783250999 3.5517684439675543 -1.5903370913603128 -0.26231140071355463
Ni 1.6445258638402973 8.816707841226293 4.369574188416106 0.2394074995321877 0.3485418298677094 0.7984460594350056
Ni 1.8539617305988276 0.24819198618083926 10.848726894498451 1.6306463325023206 -0.1262285668136471 -0.49819623180446465
Ni 8.441529186072403 6.13036746601234 3.7434635207015337 -0.7814564668555444 0.6708674063513672 0.7028676134070476
Ni 7.950128453690061 5.3238117518435875 9.428559226536004 4.187127887220298 1.3489123042877802 0.5208661625981545
Ni 3.9673522946177218 7.55656961468517 11.028105588045758 -2.161449037487897 -0.7348395383279538 -0.7728072758209787
Ni 8.293769886912557 7.198052133381829 11.035128027250908 -0.6785766020701668 -0.0047226022866499314 -0.35523955360285914
Ni 7.106425122313708 4.623296286439063 6.927792592447917 1.701036195079793 0.19373365164415668 -1.721371307092719
Ni 9.163815629779373 4.5098510715190345 5.1284490988250315 0.4908680735741675 -0.7807260164474231 0.1519964198063705
Ni 7.448205868887361 6.384610934101369 13.154894040447308 0.252798576127113 -1.1781632864642546 0.8611444669054911
Ni 1.7047478845155202 3.9085187050967116 10.526768600056402 -0.45859970045876497 -0.45625434015504 2.756749922156859
Ni 7.279298968677981 3.83856822123211 11.409340447662784 0.3761984152427134 0.059207363598091575 0.09924818157006134
Ni 5.556350357399419 6.230617862412405 7.453915437817439 -0.9663943745849422 1.7845142582997913 0.5476601428625472
Ni 1.5684171683257202 4.9931478996135255 8.539089615175055 -1.015333009267174 0.27905262472763553 -0.7793293932102127
Ni 3.6199328174381864 2.10622172561041 10.716155332045908 0.3133714526141635 0.2739181317145476 0.3502575270072355
Ni 6.737291337491084 9.22398097979524 6.824666160085555 -1.233619153439714 2.435941810758992 0.35106716739272437
Ni 3.058421034323068 5.561356265642497 12.405764594425566 0.8003551035322604 -1.5014005761289047 0.3901800742337861
Ni 7.400649740578116 1.656813951810571 13.015203698668708 -1.0208747650210095 0.45964562522477614 -0.8962173993492244
Ni 3.594733264244727 3.4752337338835417 0.11004969791363833 -0.45450213335062367 -0.9880016684420726 -1.5233189734685506
Ni 4.9744088015866055 6.505272212979345 2.743651413020275 0.6876513106779254 0.6841679801150152 1.6168240819072475
Ni 3.570610453579025 5.30766061392724 1.3980774449456321 -0.228836923105193 0.4728171296097276 -0.6527979504441661
Ni 6.090612998474384 4.640543057102952 9.081593114631314 -4.431676050413161 -0.9815088616288773 0.842409352389833
Ni 1.4793592271483869 6.93414631787267 11.762457215129537 -2.0536149140210376 1.6360317651839502 -0.09143254218038448
Ni 3.8332033988131125 3.3448723271458656 4.697738864568586 -0.3422688523748041 1.3560396593611808 0.31017557138468516
Ni 6.7186089101235185 1.3360769100776326 1.4221586971278073 0.15964879414530567 0.19436177214645883 0.15297549589018816
P 2.526963590886206 6.0348679598882535 10.083313134510878 0.9515557669102128 0.7534571534291411 0.7672716907147301
P 7.945188661216231 2.6699342193305045 5.642103454625331 0.08325077770054048 0.3253466226981687 -0.4021318472790235
P 0.6988172346458347 7.889490848179564 0.27902838095820237 -0.5721627559896018 0.41851260262989204 -0.030871492767875867
P 5.08842072310019 5.831467518351095 12.986574626073248 0.7640776092574648 0.3315437526478161 0.4514798015845321
P 2.6302080871222255 2.5055798620893577 2.012576294558241 0.22414620249774303 -0.6528714839945788 0.11111305132844736
P 2.362590343425274 8.910894477075308 8.736121219111634 0.15515090627495212 -0.11422999969087423 0.28475610287031605
P 5.799694168672386 7.002812266791878 9.619204047163205 0.30850872520522354 0.17530012752931745 0.08430852954109351
P 3.5548843456078445 7.713821249287081 5.161156569872119 -3.6337897201363676 -0.8844648867989865 0.6199958163124806
