# total energy = -381173.5408333863 ev
CRYSTAL
PRIMVEC
9.20976773469133 0.00000000000000 0.00000000000000

0.00000000000000 9.20976773469133 0.00000000000000

0.00000000000000 0.00000000000000 13.47942601730542

PRIMCOORD
 96 1
Ni 3.1378323763606533 0.4764507623639695 8.042000603651237 0.40370741929625953 0.2557774562497788 0.28842660974336776
Ni 8.215085296799225 8.627867092032327 7.746289693475813 0.7043691376532385 0.677885232430097 1.4781261789819962
Ni 7.728081982427713 1.1284820649644627 6.169735844813852 -0.1006993121942911 -0.3531387052097725 -0.05260219957674811
Ni 1.0887787557442508 7.345793728560448 0.09087738430304851 -0.49589895112985566 0.591854063770942 1.8117067595541831
Ni 1.481299061697727 8.527010924259063 9.811296473969565 -0.08850919788600241 0.2960573868157482 -1.3233077163457982
Ni 1.0661411463581962 1.5875797827372184 8.641687269674604 -0.9190307976993141 -1.1434433664845662 0.11710115059108221
Ni 3.5495089994512306 2.1344926370014425 0.7766118323666283 -1.1720815990465492 -1.4180886061731255 0.7101291800654672
Ni 4.731297200756818 9.27865691792605 0.46991735304807564 1.7287141206110355 -0.7671133107599951 0.8419067017218016
Ni 3.3632322348286348 6.747361432918848 0.28737607026721496 0.8787745212824285 0.9605091194487587 0.5743754473702043
Ni 9.318535212735497 7.98355173294023 11.700640747292889 -1.6095357757759507 0.2805245812874717 -0.2590882657905667
Ni 2.732427605178906 5.309652202475879 8.37657397124177 -0.39186826056948637 0.1362286154491525 -0.029438616976091236
Ni 1.517125058651247 7.250316065214139 7.526021517656289 0.04206890414559206 -0.6741324502558841 -0.06036358868972184
Ni 6.160128214988169 5.90556102172538 3.9404544351016084 -0.24526164432011952 0.5680348498641573 0.7825286168738007
Ni 4.502673923539804 4.248383023312647 4.876276445343608 0.9337321084652306 0.35607027703427063 -0.45311810851890344
Ni 6.628242295490358 8.827801942382962 10.05668981747261 -0.020529744522235608 -0.8990769802852064 -0.9194444881979649
Ni 8.245947228879238 7.081326034854206 9.809935270280688 0.21990053984751157 -0.3721260449455527 0.4610599890737995
Ni 3.597639246258196 6.593871441857829 3.9965824443133138 0.6873129535019002 0.8869326316131887 0.7465892226647142
Ni 2.1858278830217306 2.061385499773411 4.704427703041677 -0.06684585397995585 -1.3830179877222375 0.6382740457963781
Ni 4.349883874835718 2.539906617951044 12.04443309250565 -0.3929465812353297 0.9774748007688197 0.21863838530563634
Ni 5.132152346618504 8.475795405220882 3.8912540132699647 0.323663578568791 0.48656636087502014 1.0614282609633399
Ni 4.61029006091818 5.486709989476244 2.241466853560368 -1.6036394648961736 -0.6261844616216958 -1.2364170278998254
Ni 8.020307916447042 2.9989214478131108 4.67160501138547 -0.8330464231176944 1.569045528971388 0.4532039833644904
Ni 0.8776807457773286 7.980079650459131 4.878177341428752 -0.609041631293822 -1.2185717721882885 -0.4486654720641886
Ni 5.841838637940957 0.65999130495703 11.809446786678048 0.15229389644213126 1.4193870132695747 0.6878238317000477
P 0.7948692761611419 2.147828380854578 6.399788478001865 -0.018959828931954446 1.8753927277489186 -0.41977989937808996
Ni 7.901419023214911 3.526631936100962 13.045684977492275 0.08890283377999529 -0.4028322157801578 0.6176957074243943
P 4.22689663490839 7.92450791122583 2.1218098656891824 -2.946003683652791 -0.3252378650344463 -0.8862800856308541
Ni 3.328944269106796 2.9560960272902648 8.505936212477895 -0.9899582779478112 -0.08057425930964188 -0.39427378468718555
P 2.380513165695371 3.7615731140660764 2.4304485270017935 0.8099162648581341 0.13306101635444825 -0.7100574462872674
P 2.691591494512606 6.15943748239909 5.897208683258246 -1.5571840016471117 -0.4298424258204146 1.7015622427865922
P 0.3868894538873112 8.445043990355122 2.761260625400599 0.7842301729459397 0.24121858459899745 -0.2879941501916395
Ni 4.865262483966561 2.3450279301524626 6.519729126722965 0.0876458214444426 1.12648334159146 0.5110283505721264
Ni 3.900769545417105 2.2184488807619283 3.248097242973947 1.2810056131434777 0.42887363414924196 -0.9702006357049098
Ni 6.167431560896688 7.354708783843483 1.7581750756341687 0.5117899113284992 -0.7618052682835204 -0.20819122183038336
Ni 3.6011665873464214 0.28552490692848553 12.179699715913216 -2.3201501230079526 1.726333021973369 -1.6856401722396968
Ni 0.5259320821151718 4.872013243803818 6.150325338083971 0.02344846083092736 -0.07397732281841453 -0.38200165218805177
Ni 8.308251308414087 3.220840014032138 7.055091090144232 -0.8769012155191156 -0.23361788943360412 1.3977858900600315
Ni 0.7728487212213305 3.7534132597471 8.646566604683851 1.6330122616313363 0.30608083249002127 0.6760484363316744
Ni 5.599262562424566 5.680547973507283 -0.2254569590286788 0.286463572479726 0.15774077848931542 0.07540659906577335
Ni 5.6573946171213825 0.44142969912092184 7.621685218313257 -0.4808047758008946 -1.471147433671318 -0.39279668592102673
Ni 2.4999270156952007 1.603742925321647 10.469200845530793 0.5260631334180618 0.4812683457008744 0.489453452614828
Ni 8.729174538430456 5.446675128613275 8.22245034815237 -0.8101288950895725 1.1530898884353948 0.06430611827723763
Ni 6.4997107753146945 7.231482089951942 8.227720177318643 -0.7854758724275828 -1.2909861213949574 -1.0556427646298143
Ni 6.821104044128831 5.003436631085753 1.721362712543445 2.857443320813879 0.6935193394229282 0.14130860107522114
Ni 3.115250025581725 4.327255475217518 0.34903086116833054 -0.5377236004751256 0.9227108176540625 0.07878554284033527
Ni 7.479362991752453 1.3275143580653679 8.626118157116782 0.5478632600122887 2.5126491309140593 1.1119841195340203
Ni 4.639623171534366 6.401875411397667 9.609563876933755 0.4325873355554034 -0.020993314422215456 1.1321657366882178
Ni 0.9289340248637126 2.28358035902807 1.132666983477491 -0.08615766693469032 -0.12169776882282914 -0.43466710090256755
Ni 4.903077790776626 7.689879865367764 11.774198242168998 0.894463135662279 -0.2201764192167176 -0.5168796671465808
Ni 4.978165028093348 4.598962046457299 7.660640694383693 -0.6511516730899947 1.732927387361435 -1.3020899446176026
Ni 5.394142612771919 3.489673137701354 0.9192066680559214 0.09503697170219116 -0.9414359048673916 -0.26560806918695545
Ni 9.210596733482216 0.9937892100942237 4.269716529570522 0.013977802336330766 -0.8776067262265724 -0.6944091982270493
Ni 8.398092593833518 5.721568279530669 4.063871771187736 1.5202601320375688 -0.1755649511549299 0.08305743074281179
Ni 2.3276122591398387 4.285212884962294 10.6851947680891 -1.5467815753668652 -0.609981112388956 -0.2089836358246917
Ni 2.0123342761810084 6.371096367228343 2.1334970610963846 -0.2954614051029621 0.3098261584650664 0.6080054767198237
Ni 2.491039589715729 7.623035370280708 11.670500861012659 -0.5278209966494329 -0.9154749620272556 -0.29127307805322744
P 6.548955404032041 6.344636704182724 11.350013833355394 0.7363012104751449 -0.09922324186939685 -0.2532066101988091
Ni 6.817852996076236 8.184711482415496 13.20954148325018 0.6613489253379706 -0.4341965890240522 -0.9443695335744187
P 4.076105105828702 8.664715373217684 9.76515645799593 -0.21241040211805354 -0.228594982297716 0.33785478246750844
Ni 1.0544263216474308 0.19067719170341585 6.82335306943887 -0.2741785844647859 -1.144726089851732 -1.0197367947618243
P 1.1982368466935014 6.193375476942464 9.888735885996294 -0.1618262614125987 -0.3762930318390487 -0.0469210900315708
P 6.463995295575428 1.8527289992646838 13.458721883294942 0.20673520611014715 0.024359402680970952 0.7712682134686331
P 4.340747785124178 0.9023610816734835 5.120537908377351 -0.6376271562409986 -0.07895446431803177 -0.4341145708332072
Ni 8.477130821559767 4.5993856957786 10.932380332416608 1.1946656549946522 1.456219351606576 -0.26265001499989604
Ni 6.660015994587952 3.0793227211818066 10.878153219290045 0.1619332193041082 -1.5891646683187663 0.3905189456304436
Ni 4.043907757409807 7.478230190306364 7.720125663978318 0.18158776031024212 -0.1564886512497692 -1.407354507585073
Ni 8.18869931189644 1.0971964835631498 12.25990205829626 -1.2778801801406185 -0.10683447855775151 -0.008066321947902237
Ni 1.1106703739341008 5.416448670515215 12.551044002639129 1.0962862491827894 -1.333324220041536 -1.770081370703913
Ni 6.656746526999648 8.171725709740826 5.77720080323181 -0.6497272819386423 -0.32776757343483554 0.12181321135477084
Ni 4.5698039214303465 4.030811467520884 10.21345572295943 0.2401744596051993 0.2642057895227901 -0.5160731120848855
Ni 0.3411822970028319 4.883764907586001 1.1822882917000797 0.28659598429253225 -1.968746398211416 0.4428563215815792
Ni 7.505371376173208 8.236571685203483 3.4302710560174186 1.078842085564413 0.475375120144891 0.9720682850412676
Ni 1.8307452833962898 5.10139172198489 4.183366667144685 -0.19476209290867103 -0.8938848945613057 -0.4868255280736777
Ni 2.5943179264346936 9.033474478106871 3.3621196948718266 -0.3110335485096063 -0.0014724707804684319 -0.2229418977769967
Ni 8.56022134714194 6.762575969414276 1.7487129601405833 -0.13573547786281784 1.0863576772151677 0.6142044064416842
Ni 6.2054586923674036 1.584945789130867 4.240330923277567 0.08418691636156468 -0.2391437043478398 0.104632071589794
Ni 3.026541541608382 8.522894158028157 5.6731267425702265 0.48255775393625927 -0.26557515906649104 0.924205142811402
Ni 8.09890407531628 5.959990749744738 12.948229056010847 -0.6788843631185728 0.5790170599072738 0.09977988570381525
Ni 8.544214770611037 6.964979037549883 6.478441737431801 -0.10084097997847793 -1.2321978476121553 -1.9411453486646955
Ni 4.852313550363308 1.6048112583927545 9.742012311377886 0.6955787930551183 -0.9255071494522771 -0.14680716229594715
Ni 7.685956504261799 2.45121655351341 2.252088478826819 0.5161952394850464 0.7189408648198263 -0.4084621603724255
Ni 6.26920870545539 0.648938662554994 2.019703011441294 0.400855037449129 -0.10549750491388284 -0.3515235382038526
Ni 0.2687640504103079 2.523614538616654 10.814934609807258 0.1943918540534459 0.06603364249130562 0.23505359343886614
Ni 7.119095292824999 4.938295943051757 6.101219776861227 -0.622471788656799 0.979356848282881 -0.11987305690926452
Ni 0.6257079441191178 3.090531008660582 3.362739512248426 -0.6370147194679804 1.0544112062155582 -0.7115188613241423
Ni 3.7639492341725056 5.691664163307513 11.812452854905718 -0.12117403510887516 -1.8594835127178297 -0.6436893032746785
Ni 8.724146005181966 -0.17949561255141874 0.7348096170524042 0.6343932226847333 0.6184243580603026 1.1609374095042715
Ni 2.5316362464178153 9.066159944222049 0.9113304745868597 -1.0988290702093013 -0.17437375906030617 0.5969589890976752
P 6.1460925287781 3.1482670433396605 8.504655133769353 0.5345426316439826 -2.028142995002178 0.45413446559855986
Ni 1.1968645912831994 0.7186031885590599 12.511401477886753 0.8708591230900938 -0.3946759052216106 0.31929733118029524
P 1.9394665929171906 2.6893719404597016 12.714253061716871 0.8110660621918613 1.0427170577070817 -1.3848092752947052
Ni 2.703149753169847 3.700282108995209 6.192421344992749 -0.4776158365499517 0.986140703973934 1.7042829841518647
P 6.041930054345116 3.626530288017371 3.1914295413659763 -0.3891565180652782 -0.09950014967986735 0.8442872861388362
P 8.795521706053377 0.46337657591789827 10.208751373539416 0.07840630512404562 -0.28334019635939584 -0.3596672503569096
P 5.120741444246932 6.3652021158015435 5.891897410136629 1.2127389675565954 -0.15997635268805355 0.21042756736006987
Ni 6.684974465473309 4.964801654936649 9.51592264129761 0.13187830890025676 1.6998480883089628 -0.5354402037575875
