# total energy = -340889.99834732956 ev
CRYSTAL
PRIMVEC
9.06057330538157 0.00000000000000 0.00000000000000
0.00000000000000 9.06057330538157 0.00000000000000
0.00000000000000 0.00000000000000 13.26106488921175
PRIMCOORD
 96 1
Ni 6.6044330313647714 2.0713195226283236 11.128526739460924 0.416916718897682 -0.008492867962359566 1.5742571550793145
Ni 4.782859148966567 0.3209336579606382 5.6760278055398 -0.3204651262361513 -0.4556413891613894 -0.3862084911805478
Ni 2.496523163259555 1.5066464784249605 4.601881447359962 1.007443322106452 0.217591946318993 0.8082594459810015
Ni 3.6534496365473026 4.662969644122388 4.803435710748696 -0.717674339402577 -0.6589333739179426 0.5445460227135976
Ni 3.523049866768175 2.424228849538901 2.6728074879383117 0.8764363600675551 0.5703385582966694 -0.33179314965446083
Ni 4.877369988222131 4.454177794845691 2.6712690026055927 1.011529833471 0.7044830375232835 -1.2820026869494243
Ni 4.6575967242030565 4.459396685020287 10.874988343281004 1.7975793190138656 1.1495322529911236 1.483092521848336
Ni 5.769229391965105 8.22763472368903 12.310113374880956 0.6319691866242729 0.12060196465548906 0.04250110658700422
Ni 1.8662787506646172 6.609180771731937 13.264114720051818 0.09541980896290664 -0.5799652827531561 0.26864531335138253
Ni 2.5547464067698855 1.5974153009407541 0.061528540620907485 0.7267783585863742 -0.2558383913947014 0.9393571679614919
Ni 7.980833769755341 9.081321932457055 6.901164086140723 -0.03202591808729323 -0.22363840962338902 -0.7185168899085302
Ni 8.848021232620843 2.6235342786544837 1.3482395707661592 0.038127917219973044 0.5969358491692236 -0.0021252738731189205
Ni 7.074649599751888 0.7151764138425467 4.581472506182399 -0.9401657799057164 0.8621965623190893 0.6890458770326069
Ni 1.010090823687932 7.61171507735457 2.2992826387807606 -0.27125215484661025 -0.029765404187890674 -0.010077181730343936
Ni 7.975560516141425 4.0635583621943745 3.6214377253044847 -0.1269407623893233 -0.1879926353953214 -0.4982738791199354
Ni 7.746255529095139 4.197718269859712 12.616006481296754 0.39895190688914517 -1.1998765097716304 -0.2713809671149907
Ni 8.114495345893591 7.380099644137237 8.761704775785251 -1.10343751551559 -0.06242664186633765 1.2093710795256267
Ni 7.060225167185992 0.9979858978663009 0.3921968784488814 -0.239813990941987 -0.08011711716756524 -0.9601648487354624
Ni 1.761511342524258 6.64469821875349 9.108561639785012 1.1306475002714784 0.8944253404458079 0.31667737705894494
Ni 0.4034709497062583 5.188854374371857 1.2051803680843498 -0.4953880729317081 -1.1463019189792838 -0.06177975231095812
Ni 6.416915408008126 2.0137758221094773 6.663830525164386 1.391108735150172 1.2206245409522591 -0.09622713535555041
Ni 3.6241205610348626 4.365683176208064 0.2285701745581627 -0.7686886256669149 -0.3149318551227479 0.1829357896977043
Ni 6.057237832902371 5.562621140834376 4.651464528247907 0.4933178206662408 1.3688159851902426 -0.12265293364724682
Ni 5.362880804204243 2.8829384899368926 9.2392359449327 -0.4113723920406851 -0.004520256467856731 -1.0464695827709785
P 0.11548334808739774 5.715672343662963 12.102445942740834 1.5566816080893966 0.08674027891103771 0.5531445630158861
P 4.126846466134564 6.1039813301432355 12.521786486441545 -0.15099703200757866 0.555393764061379 -0.819819125794143
P 2.3741601219263755 8.61015400388186 0.9485722496975663 0.40704368275834407 0.35333256638813343 1.291397497900763
P 6.52525268199708 7.811020506470153 5.613276087534222 -0.5922425574586123 -0.4963843754067064 0.1380499849286074
P 5.034607175878258 1.4438023425725406 12.449447775912114 -0.2067416338680504 -3.3622058929819514 1.3873819211178882
P 3.934109952603324 6.3872420307133355 8.186757947607976 0.465287911112218 0.2699468057716254 -0.893881552127196
P 4.905330917178384 1.1947906087732239 3.6153771078777717 0.9916572629167888 -1.3340487569123864 0.9221672864457666
P 0.5858820339962327 5.729788716739387 3.2965418786748346 -1.706926335311983 -0.12056494076996656 1.7207596416506494
Ni 0.5073422671551813 0.10101089448343716 4.77367807012296 0.35415454806879654 0.19444019079287803 -0.49221995961637166
Ni 2.0592327179531322 6.873169633063557 4.565320222303491 0.14423451647276447 -0.14733860931938497 0.21448605370015963
Ni 5.9372849040456535 5.583949730193748 9.0913084962599 -0.4076993140644721 1.0192025195249093 -0.7746579558764723
Ni 8.788348297395347 2.491168364486663 10.297893253193317 1.2425290543348344 0.06094491511448859 -0.6493195049772624
Ni 2.291101847220618 5.390769248574737 7.0200759551344865 -0.18530403281956473 0.47416335922497693 -1.147169923406534
Ni 0.5384734906810362 -0.043164570819049786 9.251993232026155 0.9781384024947476 1.1865947050610597 -0.5406919390748302
Ni 1.5975874518319302 0.8475676976153831 11.193452995039252 -0.09000480859492241 1.975183154975695 0.5423654701225111
Ni 3.987766667210883 6.838105214702994 1.3147217922542134 0.25310556584457056 0.8216253257649463 0.6675152020496826
Ni 5.749930371006966 8.202237936953976 7.80190919404034 0.7646016000817348 -0.8783826851606484 0.23675823483479874
Ni 5.50926342514307 3.1396154686801463 4.539341746767727 0.3830465485127984 -0.9292612171780706 0.6732654742698986
Ni 0.8909642191088593 7.793914144231201 7.0734780676345705 0.8332590533491326 0.3893094987033747 -0.9757565325261325
Ni 5.139139009114904 4.536302830509811 6.925511658496926 0.4949638409100959 0.4676296718715172 0.022402536064916257
Ni 0.9052735823948638 7.694003203336646 11.334722734510152 -0.30592605207971185 -0.9897867853669535 -0.30630991778169187
Ni 4.855597430774991 0.5164128070055067 10.383732217820226 0.4365270369294417 -0.9114373016227723 -0.1961198924881461
Ni 8.462593508424462 7.164458001506385 4.888930373593253 -0.1587386236262105 -1.0102311692642343 -0.22350085560426025
Ni 7.200229144578091 6.0395062911112545 6.980770282449742 -0.06062275588837947 0.05994989819107095 -0.8641259181313182
Ni 2.5627378323497347 5.285322297442894 2.578773234834108 0.13128926916600614 0.7063681703611384 -0.857517154565549
Ni 2.3740423344745185 5.279885953511024 11.032052473988632 0.22959668408935296 0.45697116371640656 0.7499013177570827
Ni 1.547183483010273 3.6306713554727663 3.879272645305227 -1.54724745925969 -0.5215660168786566 -1.1359933379644243
Ni 1.5112673707670503 1.07721155010009 2.3860240365003604 -1.0740230669092148 0.6530108377859205 0.2816615231053924
Ni 1.1081081047795527 3.4327612546330295 8.094222313314324 -0.08245913503718057 0.28305300413628026 0.23421515669797083
Ni 3.9575677766693445 2.5554621920542484 6.589343552724543 -1.207036260744863 0.6782626703741739 -0.5298999906656486
Ni 4.198751175206768 6.73182469083493 5.9268733993588 0.44197237631472913 1.3162047867524298 0.34766482657939474
Ni 0.36607887008553275 0.27453446250212565 0.3390366832537661 0.7120068567041544 -1.295174448444692 0.5677227179403771
P 0.20409666023420478 5.8964217188244294 7.752538130565737 0.17183916556391052 -1.856531114957725 0.42269398770109134
P 8.829746056436539 1.6805279390858305 7.976609730520277 0.36491152947498445 0.38680061623859185 0.19276151753887447
P 1.9885421256923792 3.242996609117879 10.204906402353322 -0.6426999427782157 0.15626676504695022 -0.989256109674464
P 4.218385437374039 6.468062343833806 3.549137975239898 -0.5037750114438226 -0.48137016138606126 0.2679187195980031
P 6.879049945083197 4.039801539212101 10.372539691721826 0.3564150619681991 0.7432789273445586 0.6672508926447025
P 6.2695180028686845 7.788196922529518 10.016320537414064 0.3628939848243234 0.3648950744147523 -0.10817710862857498
P 2.4903891551897614 8.67463810348706 5.731352571677121 0.39321757550852926 -0.45879510429902276 -0.39276994644814933
P 6.777480919289421 4.135897978781128 1.3879692782775892 2.2942442017754683 2.2315877032865115 2.171190947366009
Ni 5.578132842186646 3.21154735947201 13.336652763192083 -0.7467900258216106 -0.1686139737583935 -1.4264745162439756
Ni 1.7563286946425414 1.323958140594461 6.912316745716955 -0.380556435101093 -0.32151465054658823 0.9925720614215745
Ni 7.09681176184748 1.0284928478973128 9.017153140799902 -0.5766601296393229 -0.5189766588849256 -0.23965612520788407
Ni 3.149600220368348 1.5353322532387959 9.112049054417307 -1.3841667566147 0.53816428755697 0.08184489849194937
Ni 6.260647701686516 2.269030290857225 2.285783290740605 0.8206861017801285 -0.5846863423779092 0.7978863302767936
Ni 4.2436372549375765 6.772434180006001 10.494726957934544 0.5602194675847966 1.4020629201688306 -0.9096655544343301
Ni 8.36215705428316 7.222681245016715 0.09686024589145423 -0.2990488653439043 0.4933386466018472 0.1103437772625906
Ni 7.6444781101173085 3.891416531591703 8.392967533517034 0.4609381187839546 -0.37347201745048586 -1.3582726624567574
Ni 3.420801297982915 8.21754124512219 12.432327822813331 0.047961872591259336 0.8654220112349224 -0.7995038112755586
Ni 0.19623842508068637 4.955635219694623 10.125154330815462 -0.5898383188924938 -0.1935845276608021 -1.1264571163392147
Ni 9.015623716040404 2.341868238971066 5.6286989952689375 -0.7687727007402889 0.5525699214593387 1.018046037322963
Ni 3.6697043049035947 2.58849704201358 11.368246855423353 -0.865528969126432 -0.7487571768503104 0.29057270955209313
Ni 1.403482791744503 3.5187189127691183 12.33900935499349 -1.3739684759254593 -0.326242909260193 0.7438669386375447
Ni 3.3982857735317524 8.56697131191637 7.767138338252096 -0.9229386173941524 -0.7375106574022138 0.5117315472867381
Ni 5.776151669905019 8.001337846951712 3.3537892984493944 -0.05334473416972749 0.06172678758583562 0.7077079722184845
Ni 3.3182356091349634 8.736077850490414 3.142116186888807 -0.2730935789307232 -1.1752810798204534 0.47365248102682944
Ni 3.501259188174595 4.42238424341747 8.83255845836396 -0.6346428768016941 -1.1373791625683574 0.3542324524945835
Ni 7.177713620126928 6.133917464061401 11.127160405019382 0.08458518024124788 0.27658410858248494 0.5869229450179118
Ni 8.022204347076872 8.980015663286652 2.653949716895976 0.6099404889590077 0.021083303032860462 -1.235616643485717
Ni 4.881555973049672 0.18613860411259342 1.4323543083093437 -0.31593921334133973 1.112726911237316 -1.3831840809864564
Ni 6.119402425763307 6.0641691714155055 0.18679368355638376 0.10132948957912227 -1.3938047939250964 0.5067963147686498
Ni 7.810667144114581 8.96046294627836 11.144360091162495 0.7687364481857147 -0.07346952994406057 0.20771633907649387
Ni 0.202077058463515 4.772856276131926 5.781704895231425 -0.6563923526636437 1.133970908217757 -0.011578448866218768
Ni 7.525313451130712 6.415048929924851 2.688243080475535 0.279799273085673 -0.5507210411760579 -1.0744807232719238
P 8.695776420808816 1.9212311272426057 3.587913604391285 0.1287410488228557 -0.781599677301628 -1.749512802523942
P 2.177590985923167 3.4086510692951855 1.4738082429044983 -2.762418690406862 -0.16061887136805886 -1.1062623865588948
P 4.928879346976602 1.2015407358219627 7.897680359030775 -0.01826717374030402 -1.025388593730963 0.8126241507076004
P 8.832255835218419 1.772972967647284 12.384283227258106 -0.970458774462303 1.3179657353075946 -0.7349117863267859
P 6.624275686716098 7.971111774690513 1.1499779196854953 0.012581693319752526 0.00908473591008758 1.1371199953696995
P 1.946682277416978 3.4672910991736257 5.939736695158928 1.5721501360386407 -0.9331677513213283 0.7976176499964392
P 7.146898610606444 4.073416265857499 5.916887741613277 -0.6923304613211495 -0.700061254306504 -0.3060844320344471
P 2.8633042277696212 8.443557244089696 10.287602254130286 -1.5926878509806763 0.5249675863610378 -1.316098857302185
