# total energy = -340874.99472932727 ev
CRYSTAL
PRIMVEC
9.20238096035411 0.00000000000000 0.00000000000000

0.00000000000000 9.20238096035411 0.00000000000000

0.00000000000000 0.00000000000000 13.46861472640199

PRIMCOORD
 96 1
Ni 3.1598307902921707 8.781869064361812 2.2021859245094584 -1.0690618662491975 0.5502890958449619 -0.16629175338312005
Ni 1.972143882290393 2.8216432859798166 6.695167500848747 -0.8364094260526563 -1.7771503617355524 -0.45981326115089194
Ni 7.288929973896223 5.087563981540077 5.340494185955759 0.9757758157998421 0.13807441040863963 0.9838403379755315
Ni 2.0983545386616567 0.6217791222142497 4.09005440096332 -0.9260825623397729 -0.009021743882636076 1.264750584737196
Ni 2.4812380078296594 3.543533271375379 4.323276786080082 -0.31650357048524197 -0.5314231121783944 0.5612296540168656
Ni 6.362452652558558 2.571844651842161 4.994607049402367 1.016746601785249 -1.0620275851102354 1.2676201929755073
Ni 5.750779585235079 1.0486021205139704 0.947391572794826 -0.7475459301510287 1.0528616023402513 -0.01551917868152166
Ni 4.735269227047835 0.734864422465766 3.7942567448105424 -0.6474695962527172 1.1645678071680072 -0.18397554381612832
Ni 4.97111705148379 3.49650910410909 3.1772729833717253 -0.20208665159454228 -0.40798959161138126 -0.7306578961464384
Ni 9.173430378878566 0.32553331010337655 10.213789006430277 -0.24583988542109272 0.4975341727404335 -0.6380051084057077
Ni 2.7142330941339994 2.3332821249906384 12.50182394393919 -0.4836502156694897 -0.10115902543952901 0.9720837116602355
Ni 2.1709613253017785 1.6973055692620185 9.031029973491336 0.5589699114484116 -0.25544475550070844 0.4259202079478729
Ni 9.054756472603405 2.6696107483269085 5.086234237475502 0.43339414772741486 0.8214980561584626 2.0032981680443562
Ni 4.700852321847068 6.430338617709911 9.087193945636075 -0.38463960403153113 -0.21813881996139853 0.7782706129283952
Ni 8.66859695577458 1.7357531173713252 8.068697414791705 -0.7497771334743926 -1.002662355778041 -1.7111725121828465
Ni 0.47720879537078015 1.2956676474739184 12.372215768476984 -0.7418491368765676 0.38760434308680985 0.06612980174953771
Ni 3.181189516755 7.026993399127601 12.746521698249897 -0.4089226449486119 0.9644935580178033 -0.11532991762327234
Ni 3.12685865891935 1.96658564412428 2.386288760190355 0.6316400854196283 0.4023563045850038 -1.7074883784630401
Ni 3.057592336607538 5.1739559350226445 6.617655845098463 0.24596535525536348 0.6153883994474563 0.21186250003438353
Ni 2.4782380316009296 5.363801056491049 10.359708402338567 1.4982712864713037 0.3577960014761257 1.8529865921395763
Ni 3.9061254902846407 3.3127007446224246 10.846773868073129 -0.38926810394247796 0.6443284795205741 0.3031415473560392
Ni 5.194891351956267 1.8561662736686626 12.305735006914977 0.5630165707139594 1.232793057993993 0.7832814358794252
Ni 0.19729444894434592 5.745350180403942 4.102647859457237 1.3109756771430068 -1.3346257124617789 0.01637561314454599
Ni 5.807567478816345 3.4713037823591164 9.511953770099963 1.1932872865898867 -1.0364219687269893 0.4713204904595431
P 4.386314936883905 7.511185881492194 7.207419883571142 -1.0573170670084437 0.6004479760875401 -0.6237483413763774
P 3.497006032686855 1.893279476522859 5.442721596783108 0.578551690235081 -0.5246989060806834 -0.15729237809798718
P 0.41585376006460983 0.7334785438766658 5.917112623070339 2.5165708345659694 -0.03786437914594124 -0.39491964580130057
P 3.7674548099449714 4.350977793576165 8.971444556064874 1.3390698642760615 -0.00011004321530303628 -1.7697342717771394
P 6.1011602444648165 1.376676208030698 8.454316751851739 -0.344929944146735 0.319466766878624 -0.9684240034204612
P 4.495022664460553 5.909382622971771 11.560206865265616 0.8474425439383663 -1.0530526353051346 -0.43265469845822907
P 7.2516143186584925 5.03679444517841 10.62266920212025 0.31126751889728327 -0.8891928884022751 0.8566887451269826
P 8.140868008569123 7.901826957901974 0.5785454157105798 -1.2058674372477427 -0.4391850433775791 0.37699108634733786
Ni 2.732159332457822 4.794090846845512 13.131495028158835 -0.008174565390992374 -1.1820693063868801 -0.8314168579340714
Ni 7.375837260718694 9.183028462334287 12.408607504655313 0.22321854847715103 0.37608605803456524 0.3608990658814817
Ni 3.727037952286744 8.249566533764702 4.97476763605415 1.1055504480935345 -1.008725274142669 0.5684909635649693
Ni 0.9644463456313452 2.4751920434668513 2.9591489448760595 -1.3650984271293394 0.46768957857517524 -0.8438522554839468
Ni 6.520153856950416 8.222079021509437 8.075983860122713 -0.5366010568349081 1.7005908800122584 0.38403590900926116
Ni 5.597523130899896 4.677183797735738 7.628717772276601 0.12510782294564263 0.130445175998156 -1.3930609737805364
Ni 3.629676760569065 5.4612634744004955 3.935124953749662 0.1548745126851139 1.104533576793246 0.17376697871424265
Ni 6.047703612830791 0.688235037347368 10.519244561515729 0.48163241390851247 0.5539423763268331 -1.347084249940106
Ni 9.180405783729416 8.36567297572141 7.323464669574683 0.8829854740399825 0.0941478842290185 1.7006898674839679
Ni 5.102600672208005 0.7747806705938006 6.408838174578608 0.5828492891691703 -1.37690056197059 0.1946142544768971
Ni 6.277855163384586 8.417868881148882 4.646187417578587 0.09463176584397251 -1.030320740925258 0.47483184604691125
Ni 5.969234909449255 4.312870733566438 12.606125571459653 -2.517522399845961 0.2072923641651978 -0.6976302762675083
Ni 0.9738051671792546 8.03330137624512 13.0135370671309 -0.3907521446871722 1.4596918835362087 0.31512777318363794
Ni 4.093366337910314 2.452360936032866 7.687454730168435 0.3535346550966105 0.8093688769950963 0.9514269546418325
Ni 8.615121919378415 7.907560041308413 5.003239803083876 1.0190613659613545 -1.4449041837040728 -0.6673642782941153
Ni 0.12223706822535672 5.855254217519654 7.353540811624861 -0.4479759021963317 -0.10136342814085125 -1.1412209049119506
Ni 5.264249698078776 5.317338234470013 1.5368362886443867 -0.8812409805450501 0.3970405487990452 -0.8967367621878041
Ni 8.163846354100224 4.4294188898144915 12.760690604382953 1.0680264830061477 0.09877509858838474 0.7419535236649156
Ni 8.549140847108495 1.5565827579438003 1.4170461335454698 -0.826967563913466 -0.8493914401346211 -0.6197713590065004
Ni 0.8547226751845991 3.7409519524641666 11.661355757031592 1.0833592567084762 0.09027400309590905 -1.3591321822435756
Ni 6.927810135958117 3.377310662112956 1.4157531990051735 -1.0103890349983373 0.35188015021232305 -0.6326384447771556
Ni 7.835643433248521 3.7818473339380194 3.463413660829935 0.3351654085608034 -0.14122581155342773 -0.37674168934069313
Ni 2.6728683912255904 9.083835996783733 7.030469138457636 -0.4080428134468198 0.45711591682438696 0.5632749665816685
Ni 8.341185439694874 4.001903872458327 8.676616830876846 -1.3441529352259238 0.00682833577574308 -0.6462313529702419
P 6.487973130349592 1.7059374027054195 3.131803098268113 1.762909792656138 0.18309339832149113 -2.2981751613987584
P 7.343085986491547 2.3425765298710597 13.069108405934749 0.288397042057013 -1.133501681890822 -0.906236474148123
P 6.180227102615885 5.319482389259258 3.4585382393391955 -0.9510662288683038 0.6220097614187159 0.7378906664494518
P 1.627395080275326 0.8145837294346774 0.7127446590884707 0.31437315440580055 0.6931015351592191 0.44302267195611444
P 4.265368042484523 3.3330103996433054 0.850528229893019 -0.1961584590355654 0.015308605332612345 -0.1589725940138875
P 3.8483345371667745 1.1091721927148934 10.766177574188273 -0.8945994041298271 -0.2761097400492277 0.48992345027271106
P 7.488511214536395 3.3551145189727825 6.683584463796286 -0.015040953493522484 -0.22879707100619306 0.9039358510394045
P 1.0380561918080669 4.510335426560574 5.844543566192603 -0.12288510426271095 1.0697594065368543 -0.44993019770922515
Ni 0.14681294711016143 5.693807644032418 9.916281547874744 0.06370062348275482 0.5334334577402039 0.8057323086837735
Ni 0.4342898102996947 8.607134252609894 2.0564284905079946 0.5035644380949134 0.03699277517426532 0.26325730956659177
Ni 3.599290498276836 0.2697291510584638 13.172062804866604 -0.03857374650814002 -1.111362941010254 0.8087243014325621
Ni 1.710060069424656 4.295238971436847 8.456727775692006 -1.328009492696842 -1.175974506343052 0.017950928051465857
Ni 7.744457039228625 2.6075682951548296 10.799499396041744 -0.2236990876579954 0.029695470181903695 1.098235145379044
Ni 5.398871330747767 6.326176866381706 5.6861264165535195 -1.0078174176164192 0.8017013331475097 -0.19837372151932933
Ni 6.10774914931074 6.8046822772452105 13.103224393274536 -0.4781087170259701 0.5999754073264958 0.4262989314435303
Ni 2.3303005535240477 4.355413341251772 1.9659865691166407 0.12156150035528095 -0.8101785173805853 0.9587422573563231
Ni 2.0375820140772 6.639637572759712 8.416672571609817 0.781325340594319 2.180531765150961 -0.3864627732831989
Ni 4.668183869049548 3.810706000972674 5.585110959313053 -0.7404463429917699 0.3596358828983419 -0.0018925890370225468
Ni 7.606863037474114 0.5320227782125906 5.924318087447933 -2.462825008303081 1.5781886289232367 2.29281749663127
Ni 4.269104209198831 8.895785339623924 9.072607251402456 -0.764890077856431 0.7134980965377002 -0.9025322858236585
Ni 0.8418467035918415 3.158634480753107 0.5321893413099527 0.5742561481835207 -0.5210751932851672 -0.5430743232640776
Ni 0.4181626374750036 6.299766032711599 0.955757457425312 -0.6243391808828409 -1.1955845672644958 -0.011632956253238031
Ni 7.669926954944932 6.835850741928366 2.942313188709 -0.1051789452321995 -0.41940169010306483 -0.5889176068504374
Ni 8.591379776218528 0.7231185032683705 3.8036045235011677 0.024200251395287354 0.6174303695781496 -0.8858378558871132
Ni 1.8637858451943938 7.227816961212186 5.726195424207311 -1.517656632976451 -1.1570948958297298 -0.3218087847482393
Ni 2.7127331060196345 6.5178900712072645 1.5077843716072685 0.15145905924566172 0.4660142477552813 1.5627743512506957
Ni 4.850547454708267 7.337923450711433 3.0858887381588325 1.2233380832286802 -0.5368044310949659 -0.39158826743522235
Ni 7.21601030629973 6.062583863020534 8.689532372708204 0.00020131737752868554 1.0612955920402174 0.8148306714406159
Ni 2.1605534323119207 8.7985897907655 11.148161050487658 1.1350636270613033 0.6402573947749941 0.32040393398091277
Ni 8.2116343189953 6.761026181450441 11.996629787497273 0.25364241218464706 0.2734476198360323 -0.984257370908292
Ni 4.652217737893578 8.141116472858005 11.346189849441366 1.0089412468082173 -0.17003502247563618 -0.46976780126044254
Ni 6.867111230422218 8.940784983054876 2.3649134694416003 0.5527157030085835 -1.0903086914431157 -0.3961938845280338
P 4.536626629276775 7.665942323941741 0.9863498530535021 0.8262150020181577 0.1041268498186013 -0.8330937314158618
P 1.2401404800992042 6.179960233564863 11.892544415931946 -1.1044857542744462 -0.341912754586966 0.7412968639175234
P 0.3996235205719378 2.6812609627611788 9.724191965663435 1.2245148771456007 -0.06219112881676386 1.3273055246512817
P 7.3649324391510715 8.233434759749477 10.306749619520414 0.5806854487486321 -1.1565629345856596 0.19200792720230156
P 1.5417853291836843 7.357892617632734 3.489246584968864 1.1525787531269311 0.3882468617668152 0.26684168448374046
P 1.7363420697597873 8.757427540240625 9.116501688866933 -0.7941435754049098 -1.1640641280587114 -1.781974265486757
P 9.106464651834184 4.466734545052222 1.8923537169872449 0.02970909702865851 -0.20189124775428455 0.6586965753167882
P 7.5025264409055845 6.980098065196288 6.631245921462231 -0.2402328236469605 -0.4550271526161583 -0.7169600869443716
