# total energy = -340872.2965121778 ev
CRYSTAL
PRIMVEC
9.21607732073946 0.00000000000000 0.00000000000000

0.00000000000000 9.21607732073946 0.00000000000000

0.00000000000000 0.00000000000000 13.48866073427390

PRIMCOORD
 96 1
Ni 6.0359315434007685 0.7777733276361399 11.956672259058612 2.4361122748985853 -0.6012666153340936 -0.714587215836821
Ni 2.8514082158847525 1.8390589960134667 0.06187582094290031 2.031704229990875 2.5130466234627944 1.5709453170972623
Ni 1.4730332725787671 1.7185772183303711 3.04826178239247 -0.4748709268149628 0.15237205797823433 -0.07100898421870996
Ni 2.946960504649255 2.2817348338052614 4.882287878628324 0.20553578648540732 -0.5451458610811257 -1.8172911956204962
Ni 7.193129849162455 -0.15223853661680717 5.376688028289513 -2.4091923105792894 0.9344031663903262 1.0234900911566693
Ni 7.106793637632183 6.7440672698473385 5.097203113299686 0.46251214813929376 -0.26100142365287954 -0.4872117077685029
Ni 0.41348299154464613 8.627824240446824 3.010088790488287 -1.595344057656601 0.16081041855357467 0.07176411721717964
Ni 2.5355271686815013 7.719008432224883 6.393301527097078 -0.8573497757497494 -1.20462636575179 -0.3766167337270546
Ni 4.043609182982047 5.956359932560422 7.338411169075141 -0.682411916655857 -0.7024235838910935 0.1847468747645141
Ni 9.220224468985927 8.136662620325742 11.983757388442292 -0.5706874569956559 1.3504153711958677 0.14440138106793196
Ni 3.883009821098346 6.142699798159328 4.67779971373977 -0.05951512464649749 -0.19275431845002286 -0.5077568789097062
Ni 5.392409734443387 0.8858401276770036 3.818343371968921 -1.5951836208193366 0.10510849700558027 0.48339979022158036
Ni 6.937125655749999 6.988339396940618 12.146525293299208 -0.24238766520643418 -0.15328171427669732 0.47366302254979076
Ni 7.726418158321204 1.0335185492783137 9.13812212333706 0.6474189455204399 -1.0457764133586958 0.506662617404263
Ni 1.5968144059117173 6.515600715210764 2.7087525563760986 0.6940633848518564 -0.3202491535706033 -0.30596487573744724
Ni 5.160321261453761 1.3884941961091706 0.5662625118951027 -0.52311253543017 -0.7839910603519401 2.096015233364119
Ni 0.3242464805087622 6.584841103471538 10.433020603878557 -0.2214426875236509 -0.6135580311069369 -0.7324011040897902
Ni 3.980820048785235 1.121292468857125 11.350033191192622 -3.9325444512786207 1.1503246669854317 -0.46384500801810435
Ni 7.335684131821532 7.8479137045000655 10.033540520083601 0.30249414358002746 0.6940842107874627 -0.6751948300821274
Ni 7.454930955155241 5.50406251013609 0.5188153814701136 -1.6117068152853407 -0.5645301791450084 0.7310134797136443
Ni 7.9814085832378945 4.648690733795453 4.022952267469243 0.3624895502970531 -0.5106683961295463 -1.0580094650897778
Ni 0.34842117270187234 5.064400329599888 1.5016657813300747 -0.9455147029224557 -0.024002019341552213 0.5783033216697008
Ni 7.0210564711221375 1.640093104603664 2.41720840432528 1.0795573664638827 0.37620484300061663 -1.1139954935370944
Ni 0.9777612820112189 0.9936590152402666 10.153387310045257 -0.0627742550137435 0.2568897154773512 -0.6753202999163982
P 4.763292654203109 2.9143079430083763 12.586863012296677 -0.025292970238833864 -0.44154351630742666 -0.19093063497772278
P 7.837987989318799 5.2447313128420765 10.800100646548852 -0.8434349654408699 0.5027838511751469 0.6486073094015862
P 2.2748596401885255 7.878114789596639 12.796408960371377 -2.341358895875084 -1.053702867294624 -0.01684046859610648
P 4.658284670196287 8.159232793472372 4.402792890678054 0.9620857199072593 -0.07087862928843278 0.45831893599355267
P 6.428573297887925 5.227100957092994 8.065598370380313 -0.7550723204350609 -0.28636818455244234 -1.8111334035492164
P 1.4693744899167775 0.6996126982203543 5.521394264982784 1.1679410945156146 1.5551158062641732 0.10583431942801128
P 1.3542380370295357 3.894299515710279 13.385944832106082 1.0399801183918926 -0.6495617028950554 -1.7044069113242388
P 5.024033911313959 8.518816478920344 10.665159765292971 0.1524507337349697 -2.3468589997577065 0.26973211865765806
Ni 4.052253863427755 3.6262314771982154 10.62859221404299 -0.6776690026542329 0.0091883513674874 -0.08448722121080289
Ni 8.512346792701916 3.9387763044426753 12.555245416129202 0.31336348219436355 -0.1488244498362921 -2.1522755985187447
Ni 7.2649691712032824 2.7030385884908754 7.559855072859233 -1.1635177686369382 1.2982212056908158 -0.2737818632469995
Ni 6.3644386164149145 2.7336359649085207 10.420542956911131 0.3489066694062959 1.9951925082180861 1.2337217404558496
Ni 8.199368809827448 4.807022940679533 6.341666611176855 -0.5439063322470697 0.05648353690902531 1.0685913543706824
Ni 1.7473774596873413 2.7477549952313622 11.514190880496459 0.21541370772075158 0.9088739117709701 -0.07425757306299469
Ni 9.151638422208784 2.8099819487168864 0.9660458046310652 -0.7779104013754989 -0.8822555378524936 1.7492798605775293
Ni 4.307391745580194 8.133501505834401 8.443726646439005 -2.7211691968387712 1.0750566503800518 2.4625067057317134
Ni 5.374134253287909 1.0689912305528668 9.49874169586616 -1.152796782675008 -0.6827428176327145 -2.065822768941139
Ni 4.848052916526328 6.298737201812085 0.17969968195164385 1.1945646106404137 0.3663176657938917 2.7188243507556784
Ni 6.942517060932024 2.738179490984997 13.451634265808506 -1.556550996048803 0.8068275986304815 0.4800681547451861
Ni 8.561947720376544 1.3367367063617321 4.386836174554707 0.5593481207234366 0.5743129695633851 -0.4486701000498789
Ni 4.671159530092506 3.974184473176589 1.2078526310641884 0.47823830062529893 0.08229149911106472 -0.5784329052690296
Ni 5.317372433602283 3.2536439067727443 3.666433849309376 0.339845330534976 0.12494764321869449 0.33943832490454445
Ni 0.5229653810486876 3.1875830651577797 5.628211364950686 0.6675722805398632 -0.2909892282642214 -0.8791797271406472
Ni 2.4708395225744373 5.616056280686459 0.39101603846303895 0.8966200341042817 1.0756279495024896 -0.42287422203269753
Ni 2.347012308855316 8.940018856756382 1.5618522953159404 -0.387988465899106 0.45971478789981474 -1.068816840117927
Ni 5.5408254422234355 6.26933791543489 9.777323435287034 0.13003379949235025 -0.5066672453899532 -0.10979330407575931
Ni 8.071551034665903 8.27370568879875 7.491278242159323 -1.5806314340367746 -0.326766900084463 0.2108661975593852
Ni 1.9753463461532677 3.9307951815578313 9.13094648560249 -0.051796415846001115 -1.0358529835973969 0.6857792904661931
Ni 5.688006195654097 4.740989747296272 5.704799731590312 0.9808838264503688 0.05776857426903599 0.7410333258434916
Ni 4.4297628190963065 3.6872972049522272 8.16749224188969 0.6364015113640137 0.4772633383065394 0.7903594257721291
Ni 4.0399780485517605 0.21178545484261743 6.134440349742011 0.39075163046654 -0.0928384213889756 -0.08434915297104183
Ni 8.62306874459396 3.222272379867423 10.219872091212997 1.3608877314821015 0.7543799223537266 -1.121255260423301
P 8.386169479288064 1.393019290031178 11.263759648987543 -0.9819909434716184 -0.8984030941466333 1.7302711806855104
P 0.12017119588030206 3.3621263518968716 8.114359713418905 0.11418217717207431 -0.24058866432448242 -1.4706067306764996
P 8.35424498774869 6.818514741745453 2.819265303314927 0.045038271186561146 -1.2620169878561167 0.8251089134381726
P 3.5854503354367457 4.11095105933257 5.80038059019424 -0.43600381743612004 0.9103715793624193 0.7120971024251155
P 0.22635422973448904 6.636985668462814 6.65577724994341 0.21623208985698888 -1.1609327815185815 0.44689141088290135
P 0.16709300990293993 8.260535914431033 9.094271106248868 0.5655987296188387 0.901989525946311 1.3108270673802844
P 0.9290358816738422 4.1668557838354126 3.434712176193671 -0.36886588613704213 -0.3761050841979587 1.0704957704822466
P 3.7022272500716804 6.081329939856587 2.2089296668702874 0.8452959299090088 -1.182872004793834 0.05946061725947824
Ni 1.7190011578831457 5.022264424484987 7.08296270511991 0.033329467390065176 -1.1386986527107292 0.5525208133889581
Ni 1.4762128192245767 5.858890699731199 5.054281998404426 -0.7294638758383372 -0.1310897515606904 -2.1775510852560824
Ni 2.094335119324418 8.19530451976715 10.571872788312643 1.378398486672355 -0.049126325213005716 1.099534580916758
Ni 0.356851118548023 5.888732357815638 12.609321670908773 -0.16267883922088114 1.059745216833962 1.1870204797445687
Ni 5.714714387478897 4.744851283657414 12.131337198017196 1.487317358562961 -0.16409551706274964 -0.29719458574398494
Ni 4.8777471173750175 2.3741628723873593 6.370991247328453 2.1168769073044764 -0.40773479528809775 -1.2148416157218949
Ni 6.9210988974396725 8.401707785504977 3.0919247915050843 -0.3101884269004916 -0.36572631206679596 -0.8886904948445599
Ni 2.0572219763021717 6.904583687035932 8.61340015796753 -0.8539497489292648 -0.7045542570808512 -0.5838093390895945
Ni 5.985805299323788 5.6934252490678245 3.1721820784916566 -0.8041515944602151 0.09201129750198993 -0.8192270007360988
Ni 1.3142033975240384 0.7449189339038316 12.670168977632335 -2.110663322294597 -1.866607782467437 -0.16711527772567994
Ni 1.953135600018772 5.111291730567654 11.259834521693485 1.234528809738177 -0.404256092710878 -0.03210510806466084
Ni 4.058133720703195 6.321233646340842 11.622841979833973 -1.5095777126230583 1.5913927863183368 -1.1024355566136368
Ni 1.8595647678596297 -0.06855932015316428 8.10850566115972 0.6162306928430935 1.7849644584633324 -0.13742366419851818
Ni 4.472387176304623 8.13278265181013 2.124436670786862 1.3891315568191431 0.14491842991366657 0.39396293831498597
Ni 5.701986984818425 7.418333912458112 6.986897080853462 2.2193183990008554 -2.531949631014885 -2.7483575843281054
Ni 4.15532647121539 8.593475920594846 13.097057675121892 1.270790620283689 0.30386299890309604 -0.36593200031969886
Ni 7.706207300946536 0.5512025200866465 -0.036171259928907955 1.5209489305744774 -0.9904794405586037 0.9055055095193696
Ni 2.519104119050103 2.1967718177828903 7.104774395110163 -1.0311535212391982 0.16008151080735014 0.91825869541998
Ni 8.895800118186544 7.4170436616453195 0.7964321976045631 -0.24866295669218463 1.3657013508206608 0.48096829796195234
Ni 9.033110452899345 1.2344198169073048 7.042766784262813 1.1017128195149994 0.2705469012494695 -0.4128253224371277
Ni 8.545911745988983 5.786203498584824 8.495320090011674 -0.30595741953827954 -0.7543529257705331 0.23308644241016632
Ni 2.9473936602792636 3.716475305475801 2.8475503659545036 0.09772737405016073 0.8352976810457163 -0.015538461955231304
Ni 0.12652752434875086 8.325223560538097 5.501525324073507 0.5661155213542572 -0.04784900116247889 -1.4410842957373502
Ni 2.4542874478617596 8.173158286173294 4.010799026420464 0.9819726886391733 1.0838138277473914 0.9764610147923247
P 3.629733586547223 1.6387106930185293 2.279313770315829 0.5492886796049056 -0.03510095746819116 0.3429267976737772
P 7.059810075892076 2.652184274312391 5.311025321211068 -0.5151616560142096 0.3150714660244058 -0.13877169358598035
P 5.912288651226331 0.09575227764048487 7.630778316822977 1.3338723792355223 2.5294564322793853 -0.6552942345034585
P 6.766655875148437 3.7795224898351716 2.0350877236087204 0.3491031016878181 0.47705070807510097 -0.3685925778709975
P 3.3688356561233914 5.6236779765591685 9.5808744545699 0.9277571218287183 -0.8934722325039194 0.503411714567133
P 0.27261340780398574 0.8071670843669947 1.3447915578644494 0.29275017681938614 -1.6949074564742357 -0.21037717373810863
P 6.438526661300894 7.986873717037793 0.6335380324895387 -0.37888136139151524 0.2186188449216106 0.3606398986828241
P 3.262343883681858 1.9647478573339026 9.090129401139805 -0.20020948917648745 -0.27887573283013906 1.397468873040245
