# total energy = -340893.24313628103 ev
CRYSTAL
PRIMVEC
9.06794188442433 0.00000000000000 0.00000000000000
0.00000000000000 9.06794188442433 0.00000000000000
0.00000000000000 0.00000000000000 13.27184954946974
PRIMCOORD
 96 1
Ni 6.495267116127199 2.1338046387662515 11.59438128596007 0.027012781143417996 -0.49181809619226263 0.3628065673168397
Ni 4.587916193236864 0.3332205719242342 6.069495500847502 -0.2131529367110329 0.15853267826299147 0.3024877158221242
Ni 2.751784886911998 1.43968994948431 4.711281010344697 0.4937885896550722 0.4653177359088889 0.39793992068486306
Ni 3.4565544080585218 4.190994235469651 4.932522473151881 -0.7596666246739626 0.5843775528882388 -0.022335173162090566
Ni 5.221593049006092 4.508789331236574 2.5687267143306713 -0.5062383853826508 0.05102971288330566 0.34390098866158836
Ni 7.391841746720221 6.081886843607461 2.462631792785473 -1.01599275433836 -0.7198636337444119 -0.0794771695907212
Ni 5.0978881840727945 4.661792716811969 11.422125752698127 0.2572311579771699 -1.3793873329481856 -2.191073545222549
Ni 5.787786280318965 7.4916707203348425 12.257283212041095 -0.9041639078898105 0.5993927953501483 0.8527395306712475
Ni 1.8468133420154853 6.350207247754676 0.3356172289981142 0.0817058018109238 0.7893448684646858 -0.7975389742397039
Ni 2.935347237069215 1.5182908708478806 0.4523751435557051 -0.7902077306856133 0.36219850141919563 1.3174134623485503
Ni 0.4086930532935233 9.397833742821552 4.728800274312674 0.10324650409617703 -0.5971795897489134 0.8012364776959492
Ni 8.978133114719164 2.391325123976685 1.1725665136827343 -0.893929631756312 0.2730668394578459 0.8582416914363993
Ni 6.753005231945931 0.6798499097022191 4.897444953065275 0.012150262209288751 -0.36563940877994444 -1.4727944823564378
Ni 0.748282040893073 7.300491298887201 2.5400593224526378 0.3435412913293245 0.7437566383119255 -0.5752174836555255
Ni 7.598318786342798 3.9147484500035903 3.8730576798073333 0.35994981459433495 -0.03667858636795619 -0.801543981634039
Ni 7.901976960512374 3.8719749675310515 12.41398359757495 0.11253512848695459 0.40791914338476193 0.22760176514651126
Ni 7.795891106909188 9.089705073239857 6.966645945758311 0.7258792438108725 -0.7713466321150523 0.10496991454518695
Ni 7.072260266376852 0.6457127352023002 0.5710926403821778 -1.7832554461920258 -0.20788217523039682 -1.1011536045774197
Ni 1.6850140526880522 6.7846070098591795 9.086054319785662 0.2898800543604427 -0.46774460018282665 0.6980164559623333
Ni 0.30156982712411806 4.914960589856446 1.443459492978869 -1.8044696183757956 -1.1950191816793292 -0.7464372704678821
Ni 6.4493379898343415 1.974598780854368 7.239210146767333 -1.4692041939020182 -0.2427100815428594 -0.5791479290581832
Ni 3.442354010867087 4.5599234562445545 0.683724641324122 0.02020732818581036 -1.6730718486563831 0.20613459641167078
Ni 5.957819260993666 5.6946222440834635 4.731984935547432 0.3860966481930318 -0.4941773404530586 0.8749304649459899
Ni 5.215055062815145 2.744068068259437 9.717157693611767 -0.4629772607011704 0.40448466378191633 -1.2206350824752203
P 0.23690361225101814 5.52409052659808 12.302818789650615 0.7630553386405374 0.9704996550025672 0.006136966135673302
P 3.956751157405073 6.035413640793859 12.466288393896733 -0.1397224875350239 2.1635390872477065 1.2667408756943475
P 2.2678469575936973 8.343213950894235 1.2790622382648804 0.821700659087572 0.4695459150576236 -0.005096697796617029
P 6.223011225146599 7.843461530706292 5.811570585423315 0.6703534428294262 -1.1636627788552345 -0.05741633313593983
P 4.9331146097652905 1.0881621094312213 12.76165302830176 -0.04656987733973915 -0.7537939679432696 0.27686538726832965
P 3.999107514545041 6.26677311329849 8.068767245123437 -1.3931612468038266 -0.3063564547489111 0.40926228767621775
P 4.818305395946167 0.858098445840164 3.680536202941855 -0.9701564127305357 0.3242737013489641 0.6805067292133441
P 0.0667590958895642 5.635036797119917 3.709468378726651 0.888768913490979 -1.8522718254607389 0.6818187631565483
Ni 1.4150070113265298 0.9188908358855623 2.5530654716810375 0.20281273112728943 0.6422813671835583 0.02111004250573784
Ni 1.6286295892548865 6.580596450463978 5.043634687012545 -0.025291170466620962 -0.4313022981953927 -1.0332934504003366
Ni 5.848940481250658 5.6213442046811775 9.242118135790244 0.5289299134428955 0.3131266835932091 -0.46188145653383034
Ni 8.89865260298039 2.263394598065604 10.390173095419232 0.22221427558235277 0.7991963073374687 0.4029448300986222
Ni 2.1695141944111223 5.248851282695397 7.076524012711087 0.7826286327867747 -0.2548801412464901 -0.179648120085368
Ni 0.5687277211053412 0.20016121801093376 9.317223365508031 0.19933222877785672 -0.8123014772608591 0.1654340333685151
Ni 1.924362382105616 1.166436584882345 11.630227767529329 -1.4460087296221613 -0.6590051076961424 -0.9598612014521146
Ni 3.8920060514364656 6.712335512020271 1.5691574915664948 1.0348857345881208 0.5212173752899861 0.19975363258599146
Ni 5.572567744596425 7.816683897943645 8.072417091783432 0.41153102910573647 0.8697545771720053 -1.6551499740706397
Ni 5.26774887384926 2.70671721511032 4.976147435379384 -0.19577587888516607 -0.2916831690074525 -0.1715100643592659
Ni 0.7805621008688504 7.707886729678748 7.011372662940324 -0.2756834511450865 -0.3250378332084983 -0.0347793124627143
Ni 4.95279204393222 4.698091688687646 7.003343000288335 0.8475752128614886 -0.3324834908532661 -0.6809918963798787
Ni 8.020313603774325 7.3610651515301 8.745512291480606 0.28199448096477886 0.3832429807943206 1.4653719646401213
Ni 4.7333025075218345 0.4394152408315686 10.642988225519426 -0.034921494467533405 -0.4406202331622089 -0.6803432070522863
Ni 8.243693287308036 7.350836512940102 4.5075851085373255 -1.2259454389445401 0.44309929083032074 1.5932496370214173
Ni 7.38352644389484 6.167497284146625 6.849469092279747 -0.6353815547399315 -0.16249654800674598 -0.5980051709740023
Ni 2.1204022204719095 5.260557995833418 2.7983696254123522 1.3217180032611753 -0.5961637468898894 0.7167235454535333
Ni 2.42817724031512 5.250157066345185 11.26413771939851 -1.54762335454187 0.24174951740180303 -0.2641330273033257
Ni 1.0516092351791961 3.1598241415864265 4.187679902664114 0.05333599241897911 0.13439361912294276 -1.9935819691978567
Ni 3.7107378906083883 2.668441431875937 2.7429862627773565 -0.16911919552958615 -0.29004691895561013 -0.07763137463123404
Ni 1.0362209375841362 3.357215103312569 8.36407928546479 0.42802259900285644 -0.3221108893696904 -0.714335504837331
Ni 3.7124517316487338 2.740885220613081 7.261321416570395 -0.5049294367632401 -0.6034312270855802 -0.7672989444082398
Ni 3.9532418638462707 6.957677751108038 5.8510406166207325 0.42459814670233975 -0.16971106347731416 0.02085653173403505
Ni 0.9653731066411764 7.6969235877857445 11.603498194859348 -0.3773088746980728 -0.5931786961196365 -0.06896315743327477
P 0.1960625082213244 5.567199522925078 7.996408695041209 -0.5399797434991539 0.7053795811956239 -0.5431735678461033
P 8.613420486980031 1.747319882255322 8.059583233453269 -0.77845624657664 -0.32023372695163554 0.35540307576391694
P 1.923782033816822 3.241780201494589 10.491901802885456 -0.29686599875997255 0.4644448463856323 -0.4039069369015754
P 4.025857943481651 6.014892888019775 3.744187715103766 -0.7375425390814137 0.07213049941766288 0.0368693622225236
P 6.916989895298355 4.008338679513674 10.271748493119762 0.9777586505578257 0.03093499901595963 0.5178507728105984
P 6.193476938012179 7.792272998046236 10.037991456747049 1.5562239517266876 0.29352922107725576 1.9096421358500917
P 2.349739541907773 8.573276707691091 5.610129880794431 -0.10132589003469647 -0.08068610229715782 1.2093705653049946
P 7.047858434421457 3.943774932385315 1.6603220465882598 0.5656789480374709 0.05147631350242103 -1.6896536642744644
Ni 5.2872630850599664 3.008625276471501 0.25268183135261163 0.6852514429871811 0.24825852216491437 1.9629452181486067
Ni 1.4262331235378936 1.0219842686246525 7.048268305400417 0.40639705031328077 1.091284425092824 -0.12294115431162699
Ni 6.99737720123837 1.0681038216997703 9.51811908682197 -0.3241196922696031 -1.4543987534580693 -1.346884475224474
Ni 2.851142327541975 1.7388866961837803 9.355140965032925 -0.1233198778072844 -1.4272160223956905 -0.43242252784276497
Ni 6.372668540119415 1.8922981391497342 2.593664461659 0.3731552575410154 0.7782901533124209 -0.5947671236526789
Ni 4.015738120195802 6.928152531915631 10.341677741536865 0.42379827650886365 0.3042715471954244 -0.19796054524131068
Ni 8.295716070633231 7.1061743695032655 0.33406298373718707 -0.6995403488060276 -0.36998817266694345 -0.41055349568381555
Ni 7.503404637298901 3.8900383080197725 8.069324016763 1.0861553313963745 0.6632579694352254 0.6817745401821742
Ni 3.461822882367732 8.540024564331583 12.4574226669912 -0.5987273938520076 -1.673573213772834 0.6614345430732416
Ni 0.06298501842399913 4.829876089954002 10.032217898067747 -0.31198819911339176 -0.06779536237741872 0.9978991300614427
Ni 8.31399704173025 2.333507925705559 5.643694868153367 0.4844153759702884 -0.5274484438013626 0.7759342514857346
Ni 3.6391192845943734 2.836279970583635 11.856526421596834 0.8210974782859344 0.04940966078137942 -1.2026473876485482
Ni 1.4623688724573476 3.4172539473767363 12.630978543137724 -1.505326650656188 0.4093121670775467 0.9687906427312605
Ni 3.2481640326713253 8.397893641229068 8.044705460993507 -0.8089431023115875 0.3182994860434002 0.05653521608256715
Ni 5.561550195051346 7.729822081406769 3.579829452540431 0.07794144967248512 0.7248189208671582 -0.3594047407241423
Ni 3.0803980374997266 8.247238852634888 3.5174519862312636 -0.05492030618696348 -0.4348694467213607 0.234041607234584
Ni 3.5369779857665864 4.353709386940337 9.19301250941044 -0.6033144990020577 0.5355456189872003 -0.053699032185352685
Ni 7.4846249293912 6.304840333866588 11.200286712512327 0.4471225530571009 -1.4360243647159396 -0.13943349553969536
Ni 0.4378310713620005 9.128606544473097 0.3965247819070702 0.27480541941550735 0.30066043280539834 -0.5215040532924696
Ni 4.429780352482445 0.05776007023644844 1.6251511266989258 1.157283357691452 0.1908704711637487 -0.5523616621032745
Ni 5.877141780909254 5.302796469727225 0.09051347678527362 1.6690136194266094 1.5200570148878274 2.7640731952911497
Ni 7.8050043886316605 8.702712511976232 11.403252644987699 0.26667996209489553 1.0379078092438965 0.06157534960963589
Ni 0.012477488209076262 4.656778144879106 5.897425860396814 0.053610843346920574 0.3394236696165251 -0.037902431472728274
Ni 7.839362820916683 8.594132974319635 2.49242723664985 -0.15837224142572723 0.8482526985444874 0.37882454001165083
P 8.410788254770715 1.5740859180502398 3.3389051148011104 0.030009401877896708 0.12730277371443235 0.2998181394097611
P 1.8926608568302303 3.1788396159864503 1.6583044294904983 0.13810320676404603 0.26647735916578624 0.15460069019843697
P 4.718476422331545 1.0395398043606785 8.341742223905621 0.6226731060343276 0.21517382379580363 -0.4293361756079574
P 8.435915522087104 1.6292371413697178 12.451278229483592 1.0920853237275643 -0.5168156466778647 -0.4315612082837342
P 6.166753712901607 7.563425345479044 1.2980242118070313 0.5692712933744195 0.06567523071062237 -0.2864144644093454
P 1.7641681185143798 3.107529320000858 6.172378557331905 0.9010158491791321 0.1003388435310788 0.14937852256754916
P 6.796023548852804 3.909733878070727 5.950287428358159 -0.1320570005699661 1.0432551895987388 0.3184756066099483
P 2.4961233298141083 8.494603242791422 10.282259144706346 -0.41057252184720905 1.4007256894146458 -0.0026274103205180554
