# total energy = -381173.16227106296 ev
CRYSTAL
PRIMVEC
9.19681885202144 0.00000000000000 0.00000000000000

0.00000000000000 9.19681885202144 0.00000000000000

0.00000000000000 0.00000000000000 13.46047401862592

PRIMCOORD
 96 1
Ni 1.7957524624500742 1.2282627529606716 0.7870085795291495 0.11810748036840951 0.021874688585904262 0.6238033629840289
Ni 8.348568691581992 7.630407498249062 10.568181383900551 3.0761639814206765 -0.3044127007589789 -0.6682626217386685
Ni 1.603014729012437 8.792857815246583 10.092381199679707 -0.33925063437377057 0.1349536053914708 -0.26177558281474267
Ni 6.763745270330191 1.0923981475269635 0.2594735300171513 -0.4360660381326232 0.4470911855985333 -1.3431080389011771
Ni 7.575300159471644 8.201640313025916 12.892078644954903 0.3248591415387889 0.270965733954443 -1.814634217613623
Ni 8.58933221325322 6.21100725833728 5.2646334420696945 0.26160897532989136 0.15872808210324924 -1.9016981984126669
Ni 0.7883044113104809 6.97162096765762 8.636711465118978 -1.0402829943442924 -0.12919124898639686 -0.3091610140772418
Ni 1.2065490635658982 9.092140695502708 6.8904167356033685 -2.542619709134221 -0.1819032346681319 -0.8952591492010129
Ni 7.087850364765262 9.091588886369422 2.961317742004991 -1.1110608363888026 -1.1865646231540727 0.29352305042966864
Ni 8.693670123538565 0.15830760256630647 1.20120571179192 0.9965197332154128 0.4450762120510335 1.619824302186152
Ni 4.080711312014156 1.5079104248907302 3.2504620491188883 0.26829538621113147 -0.9064071953980326 -0.47708593218841056
Ni 8.271195854276517 3.6599200606086275 3.8622537548740947 -1.0986033273517402 1.17320722801056 0.280587059094291
Ni 2.9427889109911622 2.9539170618457473 9.08568544832516 -0.8187786003447705 0.5058097824856643 0.7674637521208783
Ni 1.5785144034945735 0.8015248384621059 3.355830922801589 0.14477856190169258 0.695492403988899 -1.0560993925512585
Ni 6.482856027850241 1.9359487695800712 2.424917878766766 -0.3446170408920065 1.512480745202466 0.008578999918262645
Ni 4.362538630020691 4.4380996940052135 5.991728425270513 -0.35010866013419706 -0.15566178447309967 0.8067813187735782
Ni 0.9606353233173424 2.0441401469795255 8.472237395488209 -1.2918978345759493 -0.7361757406408741 0.4533567068922708
Ni 6.2234689479306375 7.543267639284439 10.946030848553823 -1.722213086267724 -1.0382415384342314 1.1558551098853578
Ni 6.160525919460571 3.9660453741174884 8.298732049709338 0.1388053750373932 0.5321831302728705 -0.2874927850751887
Ni 7.516992327721175 0.455435668156952 10.995632051862943 0.8927032155483788 0.6889512604362715 0.3858688484529419
Ni 6.097481725982735 2.087677887595729 10.85927817566439 -1.5782629338045981 1.2451932314305585 -0.3839317793312291
Ni 5.955933486476189 6.771102725440661 7.434246708821278 0.9504298808358856 -0.640885001056664 0.019877712760533506
Ni 6.5689658430994 5.994900408105014 13.077738506576269 -0.7933920419508659 -0.7687840135941986 -0.41104149106382754
Ni 5.002315335970458 3.558828627390776 3.6562146622786176 0.5707782169372492 0.39242773261738223 0.388670322457479
P 7.005106585229145 1.7975826294088038 8.652042562205418 -0.5397737981359348 -0.34497108179731556 -0.4397997941434426
Ni 8.792002511089992 0.12044613856783026 4.345794901553041 0.9374725493442694 0.3646891290515332 2.3256808230181947
P 4.548608669764466 3.575520853672654 10.142965542927962 1.749514859406471 1.2914306651315437 -0.8074235803432676
Ni 9.123658193832181 7.394794195155163 3.0815606308753942 0.7871715149624507 0.37805860837990374 0.02816566380093859
P 4.439516004113979 4.7836425732684145 0.38153279061795203 -0.02359038572543034 -0.9802567343893311 -0.5061607380671799
P 1.5518436287191213 8.372268893856592 1.923730795687248 -0.4145302209433764 -0.07392435809329204 -0.5296894173167394
P 7.407439821126283 6.260706867608501 9.186612258484914 0.2808585675881227 0.1910627896802129 -1.7981984406551033
Ni 6.339367259558309 8.830813086797718 9.061604497748593 -0.9080781553425522 0.2610888411603633 -0.7208211125616747
Ni 4.655273375228498 2.1376717950713697 5.709650034108332 1.1186659024295702 -0.34057089584709094 -0.7552137311089316
Ni 6.9270255928692865 5.102569858669493 10.841684661131477 -0.4996748732325201 -0.49333761816058264 0.5439919499823406
Ni 8.508722095699138 2.7664307119932077 6.712657861088757 -1.3194513187141856 -1.0119113851801347 1.056098364109994
Ni 2.79843564172375 5.177992970370694 7.728411559366182 -1.5632212089801272 -2.032779465332925 -0.6198914295241323
Ni 2.4785610839771994 3.1181354599114273 4.436275964819706 0.24381385612999945 -0.3004452314707987 -0.3570735214878044
Ni 3.3578321505916366 8.077041810730115 3.039522891419838 -0.3349010991558233 0.6085263822203004 -0.3444738304459229
Ni 4.483136516100175 6.842755141397746 1.1220652458961542 -1.5972423031205782 -1.4122683999469225 -1.4978874207693236
Ni 3.0581262166666603 0.4247118552975201 5.069578110272259 0.5478604317988113 0.4330272513062994 1.8169055301463033
Ni 8.012939983080148 3.330140528919607 9.818957934773104 1.4259970623869247 -0.5083981120381308 -0.8829217106815826
Ni 2.3046216483468114 5.822689974425586 12.26723021542428 1.225867020298121 -2.955954367107599 2.434650088530762
Ni 7.1407780574662025 1.8171350663648766 4.740657561467385 -0.8819914855578295 0.056185031832000014 0.513108887250239
Ni 4.639004202615473 2.2624082496504925 0.871729675126206 1.0054640868928941 -0.6473130160701949 -0.13986492665015915
Ni 6.860845284150614 7.96774681506409 5.461560326510855 0.31041648375089764 -0.5564062644862933 -1.0434261679589643
Ni 2.8597324396128494 7.407458214764058 7.401591563995348 -0.062307085569337846 0.43340520347100836 -1.1763519442871289
Ni 1.728624881385928 7.752412497618423 4.937543979905439 -0.4951695291629989 -1.700274377213104 -0.05989667635563233
Ni 2.503061409495063 8.268675925901182 13.438587651514913 0.6041819892086756 -0.4944012835384066 0.40539560563195987
Ni 5.026548953740566 8.878287065898023 7.025707459538459 -0.4172733309061524 1.2615289924761046 -0.33098248082770737
Ni 4.371192836594381 7.496354666136307 5.116972077048237 -0.5734735043812252 0.23225340498590968 0.6915339335617832
Ni 8.199598619232761 3.0446620738145014 1.1796851555937964 -0.7195648715570704 -2.132964556894959 -1.233049139868857
Ni 4.021842474311511 0.6966443158623626 12.730230267116681 1.4473423608319205 -0.37208644995686885 -0.15965984988889922
Ni 3.8969588706301796 5.730721785544717 3.5368611057946917 -1.7959705797658487 -1.4021415959255659 0.49437634383774215
Ni 2.8817036399364886 0.5209676011440153 8.041906283850068 1.2324606143552388 0.5164037559514267 0.5556706718718495
Ni 5.911522048065618 5.79007805464843 4.981170009982968 2.1734658594431147 -1.129215138700326 -0.38179930636925863
Ni 2.6817188132150394 2.6829327933082663 6.865406906319104 -0.8769032724016447 0.14455153349255104 -1.1613467291275483
P 4.159730379900599 7.987326842476827 8.948052294619272 0.766687536076486 0.7469707743738491 1.4269542840938714
Ni 5.053514026720437 9.073351594514346 1.5868016569946286 0.14378688741238463 1.0872994723031468 -0.017660907614872812
P 7.5266397907347775 6.012797417661231 3.3220050229312053 -1.3553981691224402 -0.1022813119694303 1.041968095356199
Ni 0.5030816277704638 6.774533138885917 0.6309569566360907 0.00015066664525135342 1.3590331947718657 -1.9983097136908294
P 0.27482486010514595 1.5665217516645082 10.67601316568148 0.3945445218500689 -0.49419533817518757 -1.9811164897409947
P 6.626740259354361 3.819678001513585 5.82528899544336 -0.1469146344080889 -0.3712274443906832 0.2778840583408311
P 1.3807276164873763 7.490542276599036 11.825954889309315 -2.2386559229872023 1.6945649855331526 -1.29866189277266
Ni 3.8703800640436086 0.8474427158065462 10.103324494474641 1.3620660680609187 -0.15862575219743005 0.386528850634444
Ni 8.318283566983522 2.530164434758255 12.089013339329043 -0.1811784406869654 1.156449291825931 1.7824455486962205
Ni 6.27129240614869 3.4927310900420956 12.964684771030681 0.5099230333230895 0.5938374127495579 0.646513660097351
Ni 0.782751372065854 4.424856274806368 8.604056320293047 -0.08898690885336932 0.21881116343807477 -0.024545550549848052
Ni 4.616839869095183 5.5304702510755135 11.294952639076508 -0.3290258713219688 -1.0019236778398033 0.8683741518847109
Ni 2.1642873889334933 5.644952252594418 1.667106440161626 1.0161660466914306 -0.2919824454154262 0.09836089386910156
Ni 2.3432850749523286 6.262067996803939 10.060641138333143 1.0715532652124835 -0.46952097535695914 -0.8986653466690845
Ni 3.919730194197083 7.823228003056692 11.243386075571005 -0.9497871050455644 0.6534664372661004 0.25448521980091654
Ni 8.623884661815762 0.17602343479042828 8.703300112596281 1.6548057033573436 -0.13227554433867542 1.755095695928358
Ni 6.426589889892925 4.63622676331127 1.9307976313208537 -1.3204152252893517 -0.05463054286068656 -0.23791394570579671
Ni 7.570572994563169 0.5953450345376405 6.831594801677053 -1.141513753562021 -0.28529963407861186 -1.0770600539633257
Ni 1.3953781489760988 3.5534760787979094 10.837027392046553 -0.03894424247368132 0.17380091727597163 0.47429782792031216
Ni 0.29949072836299506 0.2665146145578707 12.513449290059919 0.87190736184895 -0.47953953593522575 -0.8232096395329306
Ni 4.4959568816301685 5.795780082359045 8.898975309986774 1.0890655630646342 -0.1894831038979188 1.624526849868144
Ni 4.765846728719967 2.042825001878529 7.995131262985257 1.1441483629713907 -0.39498675159381 0.7800662713762371
Ni 0.6873408138751741 4.117020352984324 5.805811972402169 2.074388399122963 1.2001153652553138 0.15855941773586887
Ni 0.1293394624326103 5.52740771038578 10.8397597669382 0.05192265701122026 -0.5570989196779439 0.5398414181490767
Ni 1.9152559270818756 3.4904042948634095 0.17469449446109972 -1.4797665427988966 0.7508179160340811 -1.9294182900357544
Ni 4.136913072239255 3.135756564901002 12.134267206349763 -1.6004402412325855 0.08894834230595004 0.6781662540056256
Ni 8.714399753312314 5.089510375848409 1.83895635854064 1.7541772978791468 0.5833748226553372 0.7369455289273631
Ni 2.208376938682982 1.4439833367996382 11.541885386857864 0.16302285282386117 0.6936715487300763 1.0956532435844808
Ni 3.2058639152848887 3.4493680889847655 1.9138239823810008 -0.15688151581281368 1.283895275986447 2.4101605880298296
Ni 8.375248663176333 7.478365688391208 7.1171983335190365 -0.17691426609397273 1.7484727912952018 0.7998532241951773
Ni 0.8012287008939094 2.958193582628708 2.544137161694925 1.5232847777965055 0.08813510237603531 -0.1418091948607235
Ni 8.19368506468772 5.223517223866724 7.209039606299251 -1.0696046261265448 -1.4239414654094769 1.5384478586901893
P 8.949028996785186 4.554053186546213 13.216583801011605 0.23586066272119377 -0.0615771493818488 -1.6298541756183287
Ni 5.592557975388988 7.079361700931558 2.9723281735778087 1.8042780711902795 0.6161517599760421 1.3010396489762173
P 5.520326159841953 0.2462126368624188 4.940048273688665 -0.9916953152435759 1.342443665844301 -1.2190060315122295
Ni 1.0496237428784712 5.233642921462508 3.83724484527172 1.4258183707172154 0.2633095029607659 -0.41380594118284214
P 5.456481843120853 8.09850718601491 13.124312117107431 -0.5334473416972748 0.43874204230288955 -1.043431824385919
P 2.6532730523941863 5.807653175543564 5.704118147547148 -0.7961960870585644 0.12694847569880718 -1.5726054784085046
P 1.0198996242321743 1.5573249327764214 5.446390173754955 -0.035966905012912255 0.8473427851357085 0.18962759989558312
Ni 7.443445367073143 7.240940611976357 1.328540267706927 -0.7691581091041657 -0.746812908639746 2.526992029899293
