# total energy = -340897.31340405904 ev
CRYSTAL
PRIMVEC
9.00778242087812 0.00000000000000 0.00000000000000
0.00000000000000 9.00778242087812 0.00000000000000
0.00000000000000 0.00000000000000 13.18380009356000
PRIMCOORD
 96 1
Ni 6.396903766772391 1.808897843034385 11.32759996644014 0.2837675137048016 0.35824825852219594 0.36876201356932625
Ni 4.527987068930655 0.30206337529157606 5.988543153293869 -0.7215356221301961 -0.5839533208666267 -0.4219627659620217
Ni 2.436001645222308 1.504903199174492 4.859944572009888 1.9048678543899003 0.6816094753592197 -1.8534915568004529
Ni 3.2937407105780845 4.476804848757255 4.774645375612138 0.43007871020093674 -1.2778405851519348 -0.23854052354620206
Ni 4.8971620269712455 4.6051837649683245 2.457829303779891 0.384999301363795 -0.2895882341516367 -0.04134590993663847
Ni 7.237374913072833 5.981338728849186 2.61167141956614 -0.6903188302077594 1.299967498957961 0.2581557266739683
Ni 5.38011428578801 4.209498903025883 11.951866317140098 -0.7904476146105612 0.4563026768944722 -1.1124456325514713
Ni 5.805768040112871 7.985435218690608 12.32379495429139 -0.6630653938084451 0.6448421859321991 -0.3449091182111286
Ni 1.847703370050754 6.565592509677576 0.33709554221807575 0.7166045033771659 -0.2276817264548272 0.6023117687691563
Ni 2.7592098891578547 1.5480054384440662 0.5361684362789986 0.2428409506937689 -0.5916486326283552 -0.7926248247675381
Ni 0.5645780815104113 0.0036598620303506745 4.601963482724047 -0.1983428682813939 -0.37127526690948315 0.6357330245420794
Ni 8.606206549779992 2.5406630701069863 1.4920373834276304 -0.09027400309590905 0.12767969743787688 -0.10171721193584418
Ni 6.657048525415087 0.8717173422415704 4.808264221464156 1.2921199778890844 0.018419897268084403 0.10294697057788721
Ni 0.7585444636712461 7.525903194377688 2.5836824377775467 0.3099757966690532 -0.8429192021467161 -0.23506182096898226
Ni 7.532262688823732 3.9525519071712116 3.88588530887777 0.540933622771991 -0.7420327136422834 0.24493999931464266
Ni 7.593641718788805 3.8880201533306207 12.535790413128936 1.5042120774357706 -0.3533071124668367 0.6480162127848065
Ni 8.00999944157214 8.895770726072517 6.791938266818225 -0.1970120652851123 -0.005693450840351485 0.11439892116857071
Ni 6.926714510161847 0.8256893752155161 0.4686587095434185 -0.13531793070942502 -0.32639100480228306 -0.11883098879799535
Ni 1.834957357811162 6.456355131282148 9.120948173822724 0.1588502095034103 -0.4793886121796582 0.2477381308850701
Ni 0.1111209057164877 5.0264507292149645 1.4975744673312892 0.1157981155089425 -0.6696777569186403 -0.4099091772315973
Ni 6.207848427631363 2.1093614361536983 6.862814201874608 0.013299545322383548 -1.1333430448257706 1.1337171403357378
Ni 3.3276369961311483 4.0738056674236125 0.20080418985770696 -0.09967832712894446 0.9071129632158055 0.36733607975607707
Ni 5.813559771976649 5.590067680332469 4.725786262545869 0.1366153093646099 0.008891646062675009 -0.31506246716334124
Ni 5.407732146937543 2.732123487175909 9.237071101162282 -0.6005436211251399 0.40934379164643053 -0.25230518143046227
P 0.20362993122842074 5.530084856655124 12.468209524911593 -0.12272415320481443 -0.7584803176753454 -0.19734116648975691
P 4.130374541532897 5.954603630384799 12.575354395431928 -0.32113129906524046 0.4872027089074384 0.28588378871685605
P 2.399907460738884 8.4338336238317 1.4403038869651397 0.6698888444881818 0.531380174755601 -0.5963691780324762
P 6.215387941585099 7.871288598831875 5.865498645880175 -0.07310520462610635 -0.7708617220588337 0.8381207523168082
P 4.739724004410406 1.0879869938760658 12.429502182724491 -0.054572693039557627 -2.001763733677701 1.66022121794596
P 3.904288208528291 5.932975944598748 8.20570252419926 0.1417773131815236 1.0648349726520436 0.2466428409383623
P 4.70854806917279 1.1315936689657227 3.8156155975837374 -0.10383580094074375 -0.05794829438000988 -0.4163950420662571
P 0.13563918890726176 5.660670679579057 3.717422661313371 -0.3218298677941619 0.24023899429454754 -0.9391414524062601
Ni 1.44542481131723 1.1672644876715772 2.5838535856450746 -0.02406475425868759 0.36976962889823417 0.0880289158154742
Ni 1.9345203778000029 6.495007525995992 4.60533869882735 -0.3654275498794545 0.6840268265514606 0.3079657082175599
Ni 5.846375123629535 5.4106416606855205 9.200697675421312 0.1421848330325874 0.003879023339432029 -0.023195721390172955
Ni 8.562311625650288 2.1806760502179032 10.243799789870762 1.0507664103741192 1.1880226957568378 -0.9817952825210445
Ni 2.327160609256945 5.12238361285571 6.861785513112939 -0.12168542752765493 0.17838545132286052 1.1490422007285823
Ni 0.5967971179616993 9.079484450190169 8.975886844418916 0.5801758561020653 -0.7634734000145627 0.6480594073179161
Ni 1.4716104350490278 0.9015258960954629 11.490195845261326 0.02889817109158894 0.9443096268707608 -0.6190643056371468
Ni 4.141337012837196 6.9078792369512545 1.4819252467914708 0.15785133592525075 0.3417446044402179 -0.23618256483698677
Ni 5.590725248455076 7.813773907559934 8.103185852328185 -0.6239951672798608 -0.6322818327686852 -0.5559498936751651
Ni 5.23278299519383 2.994871494961533 4.8846511178549425 -1.0438740541296605 -0.06273003203936939 -1.402627791533365
Ni 0.7747845947431614 7.1628625362206035 6.791133871840844 -0.3397625410131826 0.43323551066236354 0.2294017944697275
Ni 4.820604883491181 4.371693034747503 6.939991981569025 0.0032331622253170124 0.6936358103961345 0.4267856412719618
Ni 8.157438825556339 7.244923434809072 8.783706705528123 -0.48466091632219105 -0.6196335478770554 0.4743047698988476
Ni 4.564459580279141 0.2235560468999411 10.269046802665905 0.07943063262350192 -0.06286578628628528 -0.005592920706745207
Ni 7.959952201993926 7.2784143701495685 4.812232149656057 0.44911181557298785 -0.5956122452617936 -0.41426102644238977
Ni 6.94453190394977 5.942704349700346 6.938884925099593 0.6602832030776177 0.47952102399246455 0.3085398355534751
Ni 2.3763881406275247 5.27726342518613 2.455351262813734 -0.19405375398773675 -0.20013775539828757 -0.3358290102867313
Ni 2.2985969309447567 5.142588069006527 11.345372321315557 0.18102160339412696 -0.4379894804075812 0.24251210659944042
Ni 1.0175461347145045 3.5506426675202487 3.7355508235975963 0.2051696613952402 -0.2755412691402674 -0.050775687890970624
Ni 3.510431926433649 2.6562779585134613 2.7614258036532187 0.07411230573438204 0.16938144805203734 0.33783215675968914
Ni 1.1340978325011335 3.2890566636773158 8.194153646254113 -0.18994615957726643 0.13853489498482593 0.034714006442417636
Ni 3.6113461137977114 2.376216992759996 7.042575311030612 -0.331993438590725 0.9786050577185211 -0.9760051582018286
Ni 4.009255898018019 6.725985084898901 5.878010455774728 0.5405173611701788 1.0760694079152822 0.9307509143497197
Ni 0.9352240104334935 7.22389927045062 11.385279500131858 -0.681064144378711 0.9782818700511474 -0.7887887388508996
P 0.13567702159376796 5.38406870230616 8.076580465931817 0.014126154988736962 0.5383236959529697 -0.6625100355256074
P 8.577696918162813 1.6168519201028655 8.019599936162216 -0.3842930193253898 0.42005655007824433 -0.6500898074843836
P 1.821319575103924 3.0598806612747027 10.500356748743119 -0.6915161929499704 0.4132863212339463 -0.7228779950907035
P 3.954101245761466 6.181041266906963 3.6302120134688076 0.5827500445871449 1.2470644803113424 0.20015883844421012
P 6.95172011438595 3.8244702477826906 10.37893364217969 -0.3133161738961959 0.6408618611282124 -0.31165729813653426
P 6.432637639955756 7.753637951580064 10.13057736849668 -0.48061425705664323 -0.42344912069956103 0.524929791144567
P 2.350175493548222 8.358834826724392 5.787279566528586 0.5253023439926373 -0.09808938537526977 -0.21641052441638214
P 6.79293993223239 4.089713411321223 1.517679837874589 0.3241268913584547 -0.6330516210551743 -0.2571352558292539
Ni 5.073489369437685 2.649152802554792 0.7448706498340018 0.8345716015129692 0.2349054978967761 -0.2631596076464629
Ni 1.5400515664952608 1.0384261745529315 6.844568037639614 -1.4973611159522084 0.1876249676432575 1.894196490718983
Ni 6.851148222756943 0.6839519175547535 9.13872052869814 0.11087856672013809 0.05803596899780973 -0.8021751874601345
Ni 2.8041226927102265 1.61121304825694 9.09874669229133 -0.4718056576260778 -0.9864194115566174 0.9476381770233615
Ni 6.423873067581817 2.0831758124219006 2.657471489694907 0.08128594066468581 0.11348180867094004 0.09548665764510006
Ni 4.239485810973305 6.7295251434219825 10.568924889922624 -0.03632968766896969 -0.04148140707323823 -1.0020802580223258
Ni 8.320479688833098 7.254471684260639 0.36524306097869547 -0.46019686974255586 0.18238634495213749 0.01971470482010798
Ni 7.623385416608687 3.6284789161155238 8.096395785878569 0.2362877229562834 0.8206580767556705 0.7783744854961111
Ni 3.116116247431432 8.2455529539858 12.206577581377903 0.8306912926219564 0.14255635743939318 1.092808317936518
Ni 0.043758906613931926 4.80665182839639 10.214992901431035 0.4385111572390061 -1.0072260638893236 -0.13107869581709686
Ni 8.439634635762653 2.4046005154221546 5.944786048236437 0.8892149998894621 0.45197396761213127 -0.7796394682514638
Ni 3.710737985919024 2.563975211220812 11.417895779791461 -0.47239829690475416 0.7043704232048192 -0.8268968585765307
Ni 1.0690976739704654 3.1682262692024845 12.649869474618907 -0.490447183986665 0.6496372933279974 -0.6107089916939159
Ni 3.0238044923562812 8.260406787330737 8.010542610856978 0.6743443091563741 -0.02563338429738811 -0.4120285375674452
Ni 5.6736959330761945 7.947278252014346 3.7317405315994714 -0.8622963211217471 -0.48999724093343994 -0.898698256789549
Ni 3.175576619723691 8.544629348599885 3.5500148250798955 -0.01035177554796927 -0.9647295852880096 0.3048374470012234
Ni 3.365811978372413 4.048061425034388 9.197915171406605 0.10936727228193421 0.5402954749673597 0.056001969286916455
Ni 7.359880755092939 6.145973969628707 11.235181919531472 -0.22615577672860404 -0.039834615498434624 0.246700176538859
Ni 0.5476029153863752 9.238832122641321 0.49277344407812634 -0.14937003792711692 0.010066125986750406 -0.11845200819202181
Ni 4.703584781014475 0.363918016172728 1.6259182531906036 -0.15257029003196948 -0.346469520719713 -0.027015609356895412
Ni 6.2425554136095585 5.929048551428104 0.2598907391761545 -0.4410727473185952 -0.5959775990210122 0.9437797225092198
Ni 8.068414911094226 8.863171561199666 11.157555552268482 0.311750886291605 -0.7758833436431412 0.4225878011405303
Ni 0.1829417571572753 4.995923354317455 5.773278770186538 -0.9113007760449079 -0.9893322143280383 0.45233777870945324
Ni 7.927091811428532 8.925901758539961 2.6462387849155635 -0.3759338487274171 0.4720283151598451 -0.005794238084273892
P 8.639688477337987 1.7692185611153728 3.715286916082271 -1.5923345814063157 0.1373097643284732 -0.00919220802222933
P 1.7766950205915997 3.356263728920846 1.532814714033573 -0.230872465477983 -0.6951895280364996 0.6807296438574276
P 4.798247567322512 0.9266215781445817 8.09000206185902 -0.09495572484229452 -0.2549706440777673 1.0559386986036783
P 8.489429657430827 1.6587651320822445 12.322094284955112 -0.5662597602416053 -0.32303211563237916 1.5969911063417206
P 6.387832929793403 7.813449627389882 1.5149369681028888 0.023324790768869504 -0.04034755057911116 -0.588159131417858
P 1.7691645144203638 3.2318482370104267 5.899552567627013 -0.3276624153155389 -0.021145266619047455 0.5313464933041883
P 6.747495669512432 4.023344069850331 6.0207117461631485 1.167716637209634 0.2143173893327793 -0.6174985038119236
P 2.353202108468719 8.443751192365829 10.134439905633313 0.6700423393469105 -0.1863980372146919 -0.08664000588774756
