# total energy = -340858.9580425653 ev
CRYSTAL
PRIMVEC
9.33452212522722 0.00000000000000 0.00000000000000

0.00000000000000 9.33452212522722 0.00000000000000

0.00000000000000 0.00000000000000 13.66201667822951

PRIMCOORD
 96 1
Ni 3.7666662812934373 2.200716220122973 1.7152800088846292 1.3981856966016113 0.2929808047729535 1.1006077593762786
Ni 0.9733666067311519 5.172034562038914 9.948857601269049 -1.9279229364371508 1.4976323673357241 0.7276769591412436
Ni 6.6117632179366534 0.3666693551632819 11.49520703333201 -1.42276441438224 3.301255578550824 -0.1867417937073558
Ni 6.095993544298202 8.391809873644554 13.429721357613571 0.31598497897761063 2.3018412973964355 1.2811786483862322
Ni 7.910549927508932 3.798011605868634 12.290186259094044 0.21220548519609905 1.4207070176325791 -0.6368033747881225
Ni 2.657631733116214 0.09949480213880474 1.5565679331982993 0.7535800521602506 -0.12080405336396614 -1.7423864758918055
Ni 7.996847582570783 0.4330807447471694 4.857092460042234 0.9913099068796992 1.0593238130258271 0.693936886576321
Ni 7.079590787043177 8.636925084490322 3.2017755530057737 -0.610371148738523 -0.10414176221693676 -1.8546801777919157
Ni 7.6917207303629125 5.7339354429586695 10.742730686184698 0.2189345763898165 -0.7098538149168936 -1.5127113731560335
Ni 4.341252777489457 1.2095486801086464 11.022364959055206 0.11071041657338998 0.7237151462800181 -1.3755008534095858
Ni 0.4812543454224747 2.481377290403628 8.808434789715841 -0.2929674350365148 -0.802066172686096 -0.19907871800615393
Ni 4.466270029435736 1.9022635510810542 13.377859687331458 -0.7565239652799229 -1.1325614294647397 -0.4249910112653842
Ni 8.54263707867315 6.548465824862083 8.231843238213463 2.8435269678431028 -3.215993169736893 1.1317093658770896
Ni 7.257945497185608 2.2458859716475046 0.19757449075598954 -1.0878550876963007 -1.8866539024850346 1.906485849609297
Ni 8.247152787598747 7.281515165009423 0.7307343787135562 -0.7896636852566852 3.349450907309128 0.3706373762151681
Ni 3.54834114833058 2.034113673065763 7.702548775779002 2.3171581302591644 1.0437210734915638 -2.135590681663896
Ni 2.0141377961774602 1.8420652192807434 12.993561154088153 0.6281169027577183 -0.5004341199960478 0.7630689654872922
Ni 7.656818952939846 4.946671199555598 7.001291883806367 -2.3580422700680357 -1.6344749622197914 0.6490852774792693
Ni 7.6194528617324275 2.4290946331833547 7.869854212336067 -1.1202144778636127 1.0246514584546225 0.025486831417194815
Ni 2.384092903053211 7.706189239324067 9.333301888408188 -0.08862232642509899 -0.010222706169272717 0.5107262459506753
Ni 7.921844699020544 6.474881788642227 2.903657059848248 2.3023269787836025 -0.7456080896983676 0.9896631153048956
Ni 4.590792551720765 3.3837175199183798 9.464239094150058 -0.1980407636599428 -1.0173240715552738 -0.5751714609089384
Ni 4.4731402375618075 9.280493697604358 7.435443298216662 0.37844324541283214 -1.4125424795439157 -0.40239975622842955
Ni 1.1999434570628222 8.472348128687674 5.941296246485545 0.8019684707659672 -0.6898370054753346 -0.22036488107843982
P 1.6649520005523988 1.9818216813235798 1.8514762842708308 -1.6202001974683324 -0.2911746048021502 -0.06950668864157061
P 6.686943457403191 6.74200780215277 4.457219276991391 0.3018696226221511 0.020188302022416844 1.9525661889071273
P 1.310632217876605 2.2182091141831037 5.86339592733431 0.04309554563789352 -0.023133500693669838 0.2872094495068151
P 5.695943938783253 2.6406148996735146 4.209813374468806 0.11884487275506628 -0.3034642208027806 -1.298059483301971
P 3.748034575560235 5.650214115944096 12.839085084444772 3.0879828284324757 -5.146151423262466 -2.060171741302949
P 2.675563349706134 1.5522563175278754 9.36380897291583 -1.1272281901772843 0.4855572028842154 4.015792400765683
P 8.411179006608679 5.322525724278735 1.2384922321962917 -0.2732007939325488 -3.901580913017571 -0.3449127177555544
P 4.5568148919668285 4.776241498515116 2.184802727170086 0.0821518882094069 -0.9756061229911971 -0.6730803548422859
Ni 6.887056938118816 4.516601771576731 4.675592949468183 -0.16929994408182453 0.5278423368056716 -0.5745939911389136
Ni 2.8932910732667243 6.574919859956219 5.346521046301666 0.39056239727386927 0.6126553167870094 -1.2157466440346674
Ni 5.897485601351172 4.031187963190972 0.32534075940488905 -1.4762050506998834 1.2033575263416953 0.9318341201115695
Ni 2.9624318770572193 3.6779696541006084 6.3471537915331595 -1.0422069508398826 2.9971390688760255 0.5472122566918511
Ni 4.101383567957345 7.273412799991177 0.15822388019041506 -0.5521891410811522 3.340829998409337 1.5079782293464223
Ni 4.355637275753416 5.580475902751334 9.741660151875607 -0.005682652207074084 1.7028411094990155 0.1831103676023556
Ni 8.25277216978882 8.084050686257944 6.497968861683273 -1.2868440742021257 -0.7251248821433512 -0.2724168645786728
Ni 7.655568127003849 7.881594240542805 11.650325318082828 1.6256077416371488 -0.8239390614997874 0.08603888196863892
Ni 5.887180289162066 8.639650764888165 5.372204983338191 0.6215683030059231 1.082912913199677 2.0029880930031054
Ni 9.02009787439123 2.964513475443243 1.3594667027031682 2.1713416140112605 1.563700719719707 -2.4909608473073486
Ni 0.6811970043871383 4.1641115551953805 7.213940693995497 -1.3990711845303583 -0.08794946872779047 -0.7208900181263972
Ni 2.9425120073003788 3.976356981489154 0.3196364330654302 0.05159869801289823 0.09429520844016018 0.8084607633585301
Ni 2.1439996649952495 6.642884513986 12.405807381285294 -2.6839367948498745 1.8105299656372627 -0.9439910671890774
Ni 0.1358116930834921 8.428158501963736 8.475505063997778 0.35345597933987516 1.8584291033113864 2.0389513984715917
Ni 7.040917862768299 3.4153895527604408 2.5103684485530158 -0.6573362046341518 0.9943175833577715 0.21664758012785268
Ni 2.6292267829428 3.4291859761440446 3.1725799688265472 -3.4958567204015987 0.4357225387502754 -0.7074084387001945
Ni 5.067226550028697 7.726585169698339 11.370035761774206 -0.6039012247434631 -0.44673560203132734 2.594219435588384
Ni 5.815388481149011 6.552292978845355 1.7536971672591615 0.3429028864143772 -0.9780818382251992 -0.1085874566931162
Ni 6.631309706817077 7.3320055940228945 8.372233514294017 -2.39191038357039 0.6525868628746244 -0.9342154758595523
Ni 3.30982544447548 3.794744523199986 11.609093801352303 1.0169697735396483 0.639233324385854 -0.08341764229570794
Ni 2.3275723728856064 7.774125889788118 3.0319843332639635 -0.8663815469347144 -1.4375554566484854 0.8072551730862032
Ni 6.463885721831749 6.264145621992543 12.98039107712474 0.16037770189153025 -1.3687203401526427 0.08170863002440121
Ni 9.081939082047775 6.140883260165422 12.682709439592623 0.8398894141814568 -1.9668784917647415 -0.01780077562684676
Ni 1.562869668940025 0.894264934610046 3.973966410427895 0.9259979730457665 -0.02318415142594717 0.5966139470534306
P 4.894369873291504 7.882901073610264 9.442966652168398 -1.628698978967963 0.6459035373171779 -3.3753863962279675
P 3.423127871424181 8.965322899820874 5.204394549145773 0.10023265697051771 -0.15273972573029823 0.44390327478885483
P 7.743751355491605 0.18516331042389259 0.6867510449238392 0.08284325784947667 0.9220086493807153 -0.03985595565467329
P 0.7545747476727737 3.681731466430509 12.861353519914275 0.3689859566546742 0.4950399455636699 -0.17273956589099282
P 0.22307920497183523 8.097641750159518 4.0768272411675985 -0.9267338227705265 0.40918438325043077 -0.18417171898733445
P 5.124540514558688 8.57093001458364 1.8078121911304503 -1.1928550841484746 1.1404284909176423 1.092838656953821
P 8.015834000136582 4.135463907452295 9.229402125379856 1.109020408920006 0.522602685673287 -0.33582643918357
P 6.000380036369752 2.5686083976565204 12.287248685048835 0.22125371144129635 0.7936468382741493 -2.731583707303876
Ni 3.618844792319996 6.512723940467077 7.6720286229406875 0.6528622280231983 0.049727449132114354 0.17782906459875825
Ni 6.442173623868109 0.39229728506834516 8.96597164909365 0.1869713932196586 -0.041004724547135836 0.4653802137157082
Ni 4.811152610460093 7.4561267318657745 3.938472824315707 -2.8695383043052 -0.6707797317335674 -2.6140765795236267
Ni 9.116906201124214 0.9759429347784285 6.976043868943059 0.25372725858896944 0.14317856440442436 -1.0115293192503676
Ni 1.9059040146261188 0.41171402409421376 7.795765178480857 0.39370994176391544 -0.3324901757214854 -0.19008062827260166
Ni 8.834014180106971 1.7339807900799686 3.135938236519377 -1.1942365378770337 0.7200153288309278 1.2268324695351838
Ni 8.982563761789423 1.7042876758829164 12.641013063670957 1.1962373703571463 -1.6357198903704862 -1.656575907883889
Ni 1.3272943394867083 5.548010435546887 1.3467745532615674 -0.1946332806402906 0.9810244657932911 0.387960440874648
Ni 5.262504748394723 6.074748172430083 5.890460440161387 0.18885524050593283 -0.18897402547198425 0.29685031503068876
Ni 1.7697693470845262 0.2795577297908428 11.073884052383207 0.6417784594052108 0.8588950087496822 -1.6880788635881767
Ni 5.709749696688767 4.704281669107674 11.506682894568682 -1.5514620115616702 -0.5828462038453768 -0.05254383553498692
Ni 4.155430449818688 4.262264053083466 4.319792711617397 2.5995200218656906 2.556995518239919 0.9440466030173612
Ni 6.59309417411581 2.758127196003816 10.24901288710743 1.49440100488262 -0.8685898674399427 -0.27222454606220853
Ni 8.67977054005916 3.028959014712796 5.095440142502947 0.25453458498161324 -0.7671508488661498 1.6601993635690893
Ni 2.438914550233118 4.095101434711632 8.768159128028943 1.4528774317175366 -0.5214323195142698 -0.264983291118763
Ni 3.7454302439472276 2.0714424261855404 5.130865586605189 -1.2616153815423239 -1.4238771878304446 0.5539333774657685
Ni 5.538825265987031 3.240955341820387 6.280018976501215 0.25789295993088485 -0.6659375731499176 1.0560739386299618
Ni 4.5675402576419035 0.7358618315989508 3.6134671742474023 0.05273178317607692 -2.1216771569065975 -0.8201500267710004
Ni 0.7204990754387786 8.693725650315239 12.807948853160369 -1.2761282304465182 -0.33515846658226794 0.3710757493041674
Ni 9.280811071349312 4.232626946017877 3.27325558798702 1.0177611590926923 1.474200875785661 -0.29555242215487165
Ni 6.02268954373566 1.3779807934602988 2.008507212561094 0.9745414291721086 -1.0039947014362194 -0.7254814941518215
Ni 0.19676145389759178 -0.03259708396338425 2.032730296918639 -1.0352251202054106 0.4059054553888429 0.7914480308506177
Ni 1.3479049638649196 3.0194751404518074 10.777568055406585 -0.2141690366803731 -0.9403838094537933 1.4799457486892382
Ni 8.958639382133013 5.57110404275327 5.294277594073417 1.420157315776696 1.3073344808459937 -0.6266901976135207
P 8.463545674526147 0.46813747523394983 10.339469071680373 0.3093965271268156 0.08786565076473254 -0.256861433342577
P 0.9802928219886851 7.805639235757702 1.0216111497729765 3.669757653590544 -3.212900132633867 -0.7718757651456448
P 5.201578323885399 4.857582522442532 7.6233098861858135 -0.26304287956294053 -0.09462739496859832 2.0014258907223077
P 1.936203872747348 5.5254582306113065 3.675150628483661 -0.7302128381892198 -0.5900069832598741 -0.6018201738447184
P 1.6947291254466446 5.965767629125907 6.931205492946347 -1.020893534074087 0.2375704463234489 0.8512580610297146
P 0.135698745368376 7.128643699682444 10.792446349879604 1.9952611566724927 0.24466771948986252 -1.5200289898633692
P 6.763505206112471 0.7292165854509215 6.774324850458841 0.026912251009811712 -0.39717861703880625 0.4357256240740689
P 3.4620434932687294 9.341616147073802 12.518287436853687 -0.6650081193571128 -1.0043474567899475 0.9447217747075148
