# total energy = -340876.3330664118 ev
CRYSTAL
PRIMVEC
9.17699941498638 0.00000000000000 0.00000000000000
0.00000000000000 9.17699941498638 0.00000000000000
0.00000000000000 0.00000000000000 13.43146626914749
PRIMCOORD
 96 1
Ni 7.395734812005548 1.0036058547978577 10.022506872648432 1.0122476854736309 0.10789428728083354 0.524831832114122
Ni 7.962653140166341 0.8151130358240778 12.803572745503184 0.8201682816034456 1.5348735110753695 0.01394077845080825
Ni 5.527628062560397 1.037046841391647 12.867694277206839 0.025652410460781625 0.5703773819544048 0.7072482589732465
Ni 1.321432882433068 8.79994423095782 13.034123753708394 -0.3900957420500959 -0.08781474292213907 -0.7375721067677684
Ni 3.3414465064904566 7.481567289396248 12.100341100474434 0.3291531409284525 0.6583754445319436 -0.4442676001068091
Ni 3.081361160427179 1.1705538317776094 12.655450465531802 0.9845540762131043 0.03715449756311021 -1.6026789007551172
Ni 2.4551502377596703 8.822996853988446 5.0515611128792575 -0.04431887652203335 0.9611359543994801 0.27893666797506156
Ni 2.8686107783734416 2.23067165019911 1.4020840258416458 -1.2164963777164983 0.6093205959868215 -0.36415562514556643
Ni 3.7347084709535885 0.847449111664329 3.2748600326904516 1.3973742564439098 1.632194393715731 0.07969648469037888
Ni 5.587214321054765 8.872460881908458 8.99091667522733 0.8063126066672758 -0.5952119244995814 -1.3705846470548912
Ni 5.543513448892409 6.608825449095492 12.936262065223529 -0.16493318247269662 1.1057301682045084 1.3075833636320062
Ni 6.679589293119836 4.689703758795546 12.437161764210952 -0.5549466492216314 -0.3838430762721648 0.03280367679358221
Ni 0.8829549231712915 6.220720958415485 12.68775258647348 0.5328487888813275 0.7748536168270462 0.14084631672682194
Ni 0.19414309763618293 7.691950005549547 4.699710359174762 2.2692520506065046 -2.4587734639415264 0.5862860827648613
Ni 7.4449143529375235 5.432802125547878 8.523259527992554 -0.4454695908347102 -0.9059965902231751 0.34759155013929816
Ni 1.4780475578473402 4.468134280112656 7.609154197331153 -0.6582389189540793 0.06059678774645047 -0.06285884430774981
Ni 0.37350663739385387 6.229852073031517 9.044306623582257 2.107691641260783 -0.08483483435820872 -0.6260026846281928
Ni 4.628043498388391 2.454315130794787 11.009208694157113 0.4725191387533346 0.2063315429138253 -0.4854098786730737
Ni 2.334665409826119 6.527893489498722 5.583192042123904 -2.025442308241563 -0.9462832056573639 1.6586243057724854
Ni 7.837350387435387 1.2046830933424564 7.578624155014957 -0.266552949598728 0.3216406346014912 0.4876264267084183
Ni 8.971287990752726 8.050174185486036 1.3336080078210975 0.47459504744575687 -1.321947088552846 0.07166795795894754
Ni 2.1651203419555762 0.5724236102292929 10.147177330105976 -2.0209570187767003 0.8681738629484467 3.0543558844066494
Ni 8.360540312434981 2.38148646185727 3.648859474963583 0.09936773786706113 -0.37112228627138666 -0.4363393463986679
Ni 6.229264745056215 8.519843848736185 11.360751100674573 -1.5243384158720006 -1.1986246396424003 0.030440832988360474
P 6.264274998584016 1.4715318881213273 3.263564063865453 -0.7201662525864951 0.26141871369595626 0.5962545068314828
P 5.70913993792773 5.104485787353748 1.128721396736685 -0.40625486830846164 -0.33394439166950873 -0.31485420780727713
P 7.105016641230397 2.664486775956961 11.932528650131035 -0.5127463617044976 -1.405447006149715 0.2585179951093935
P 2.029034614678051 1.5487563398739996 6.255007146673734 -0.8481969056058877 -0.2883016541297293 0.5589431719755341
P 2.6505744445419817 6.182315215030466 8.138125632087633 -0.1961854556187589 1.2747616891162947 -1.1730323929955928
P 1.1088109783739282 1.9371361405424292 12.916477371755485 -0.3674769762093155 0.1792727390238203 -0.15898853485348746
P 1.462630198495648 6.2899614205038885 1.5424297163400373 -0.8529146227965311 0.2566760568046483 -0.018678036025477508
P 4.701110769315875 4.107432310280359 9.089127089697532 -0.08147568807798872 0.2225911993057973 0.5876564807498266
Ni 3.344548332360023 5.04163251699676 2.027842522428179 1.0337765606843423 -0.9406635454777412 -0.753834848483534
Ni 4.9497432198607525 3.1736450685465933 2.1182231208276283 1.352354754310426 -0.4995735717679654 0.29358244291269436
Ni 7.139733230770546 2.746382320513211 1.1399485380645777 -0.2688815977319046 -0.36285181873247835 -1.0019851272053584
Ni 4.7198410255282575 3.4385208084084318 -0.3216299762752941 -0.6150929796942246 0.7213828986024157 1.054150496355004
Ni 1.4036955069738823 8.271339876185905 7.652296190217011 0.28851814101590956 -0.45851665382665546 -0.24389793120337352
Ni 6.858329714603709 4.571806844753171 2.82721608621411 1.104327374319711 -0.3059977858579117 0.46577667782317844
Ni 3.393663634294699 2.891764348399822 7.327925961856946 0.7793574182346706 -0.4743970725023378 -1.5599800763350102
Ni 3.974622771865069 7.84257210021581 7.006726386863552 -0.06742898017693548 0.1420357090492328 0.017258529970131567
Ni 8.623901847360493 6.319511359261298 2.9465684723952803 2.534959621485802 -1.545491652910848 1.0578909372340426
Ni 1.4142765875289423 7.571336699621399 10.787455675481942 -0.5955435968073872 0.1654188638598635 -0.7646409379601025
Ni 1.7691878706047404 1.8541485330321008 4.031226505484853 -1.370438351285014 0.27607040217086 0.5088511404151494
Ni 8.18744374571378 7.964745496078356 8.166452276796482 -2.0575728702275207 0.41418312201660284 -0.2609551437959764
Ni 2.786559224823752 3.026813074720954 9.461326922346338 0.6849706785219687 0.9971010596401795 2.2290520813488515
Ni 9.025707598464354 3.137974071046577 5.99526960889583 0.05315781496990199 -0.0020342568212094 0.18348009223694853
Ni 8.87334187387141 4.105872220345962 12.38237507651476 0.2464988591613303 -1.9557255604717159 0.13662867910104856
Ni 4.7429120025581115 4.98479018138701 4.1822367872347925 -0.2789983744509324 0.4535559673872705 -0.37095053658021276
Ni 4.75867808789514 8.06884020270112 2.641902179906655 1.201963731317962 0.7439834096107509 1.4016757120327408
Ni 2.529493111633514 3.6566030272379626 11.801920673923167 -0.9127879021133958 -0.8543148455781674 0.07000008333822139
Ni 2.2683982956126854 8.734255267720075 1.9267844849777218 -1.8188120031403965 1.0985555048329403 0.1029639398587517
Ni 8.207412896874068 5.590050013935523 0.6598317784537344 -0.32093332412182146 -0.06125858970016546 0.645477762633669
Ni 6.777250923013114 3.4992633688541757 9.979834742142817 0.5944894445112601 0.7491978639321549 -0.23077707755069934
Ni 8.4304415184956 6.258071346844883 6.582519579701667 1.2249781899352645 -0.9663174986004197 -1.3071087379884327
Ni 8.22010468734037 5.897534563005639 10.933388323345397 -1.6888139419819883 0.13807209641579446 0.041257721098206364
Ni 5.966811733092499 6.345243666179241 6.873969157346062 0.3284494299932086 1.0333770112530785 -0.10906259655732185
P 4.023765604798587 0.42174186506553774 1.002089814461608 1.3067680668195625 -0.7053749532099336 0.1306323523082976
P 0.7407692442502725 0.12325628181700997 3.2502537436251586 -1.3141808143438658 -0.7459472182053412 1.5919419739535876
P 0.7969159632892739 4.698688041417752 10.671515297757294 0.9503324360260731 -0.1947232692509356 -0.6650595414203384
P 5.062739616109195 1.2777595412695542 6.783992346929633 0.07723953850945407 -0.5326644407846632 0.2525982871908488
P 0.19926111032096785 -0.10445995120740534 9.503044644892087 -0.048041576789259195 0.5956199585712775 0.7213828986024157
P 3.3164942445397116 3.182381572179218 3.4014383883677666 -0.4354299472105211 1.1621419713353338 0.7416676169933807
P 4.232395514025592 0.38587172667389547 10.513131296817424 1.1049979180241745 0.0689407888357716 1.1188523074087635
P 4.329332160949356 7.099262662472355 4.955942283100079 0.6163530773535707 -0.6063095770746396 -0.39416991211946956
Ni 5.451660859754857 1.9912620842664055 8.762460776034018 -0.4741744149685705 -0.1598935631662601 -0.5736524531612508
Ni 0.32462259584945297 2.300416847266289 10.808234238008193 -0.03129932433391384 0.07465352294983271 0.28513405503502504
Ni 7.624407288389754 8.726500703046158 3.82855889290713 -1.4190237163928852 1.4054025260650247 -1.0460816033039404
Ni 5.90279298378452 3.848484912169231 7.182007079492909 0.9205696029413437 -0.031001076367204672 0.0635558703747744
Ni 5.1792508032098405 9.084385333996925 5.017069359829653 0.8216628638711011 0.3596291980301226 0.4388945087203538
Ni 6.678598177161513 6.954449608561817 2.188495995372618 -0.9502835850660084 0.005548954842687218 -1.9642245990816622
Ni 2.8266168281393087 5.596345435670797 10.267604342941958 -0.6311479762745582 -1.0288577832264862 -0.2248658542725869
Ni 3.1693318787279647 0.6485147025296234 8.30920234119377 2.0864913530340843 0.9802413077703633 -3.3116461777565287
Ni 1.4587116196604264 4.248345139354902 0.47853923337717913 0.28847700336532894 -0.8333891511690937 1.5618703513791874
Ni 5.1774888192839335 5.801607386039427 10.771176595866486 0.13319959881484159 -0.7934671181631754 -0.7413094623230136
Ni 6.98377929932849 0.19462672551584612 1.6798066474632667 -0.9787492966058692 0.6149911640090376 -0.7589860536671703
Ni 6.950191480740875 1.827994084131909 5.4505155702030175 -0.7664851902576929 -0.14360433908793332 -0.11663269559509591
Ni 2.7337639460438203 6.908509548493622 3.370640377662839 -0.5058051544999741 -0.4523136103397371 -0.25252269675790706
Ni 0.22446115126129318 1.1526953905285662 1.4259653319374244 0.175107294792221 1.7817588070418413 -0.17707393160028861
Ni 6.733439926855389 6.457790389446593 4.544120754617386 -0.21694222855013603 0.09069489268341155 0.42846508585691373
Ni 4.733744179943623 2.807501137943133 5.2213080747413105 -0.46581010216427515 -0.2987004808655501 -0.814164755721843
Ni 2.237104726928596 3.950441377881909 5.310681038583132 1.1925167269724495 -0.9531120556537391 0.25114072880871585
Ni 3.9565899676233576 5.133044610152835 6.540667872961553 -0.08574449065667168 0.1843169863159471 1.2267476231308614
Ni 1.2932686706173873 4.336985778627517 3.1254887630715906 -0.4358279539798881 0.341976775055682 -0.04224245360897887
Ni 9.198290253207166 0.6237597460705819 5.579068816197288 0.4233110524598 1.0051524691897462 0.5742944576206238
Ni 1.0972387818605451 2.1015145576302325 8.410610022329523 -2.104993525603329 -1.0851662280102279 -1.6843682475058088
Ni 3.5325116384560693 7.7199765623710155 9.443489588196407 -0.15207072468773164 -0.5256864668049334 0.6037963237344827
Ni 3.5370175452665933 7.2149938046058 1.0797318196967218 0.28508391852338 -1.870364935517024 -3.0049099710706955
Ni 8.482034610326084 8.071106921605804 11.64400653536354 0.893663522579119 0.09536607290683576 -0.27270637079463356
P 7.510520723178741 8.15795804595367 5.8862734667791745 0.1320891393594822 0.1469737697807985 1.5120765677855121
P 6.482118615423579 7.019753137815771 9.580504027834879 0.42477760970299744 0.6208800186896468 0.052323491994064726
P 7.20671615095388 8.006344835329083 0.010898604741708067 -0.5713448880739966 -0.8211324452889278 -0.47550213264105856
P 8.242120309414604 3.377704831965775 8.076931563260874 0.3237126866391715 -0.3932936801621033 0.35958780326922585
P 3.575872961632703 5.388477217411762 12.476529257155528 0.3089861790622743 0.23373333196554585 0.1794383180674071
P 9.016851793836747 3.3316271169033667 1.879115478182228 0.4755466127257488 1.2454274589285517 -0.9737289605731424
P 6.767853675408273 4.191034776764833 5.026928210515083 -0.47662570472254046 -0.27733667047779337 0.4311675723897413
P 0.47938810584148367 5.0790654984226835 5.07616740194455 -0.3439331274511045 1.6718698579284819 -0.16500285936836742
