# total energy = -340870.8707654616 ev
CRYSTAL
PRIMVEC
9.20446381116125 0.00000000000000 0.00000000000000
0.00000000000000 9.20446381116125 0.00000000000000
0.00000000000000 0.00000000000000 13.47166318909524
PRIMCOORD
 96 1
Ni 7.831249940301681 8.534553823293784 9.20340907965177 0.14181407995672995 -0.3925768566007368 -1.7346716237460513
Ni 4.504719864932576 5.261041460053283 5.956051200614989 0.5231328471451442 -0.3027365986081367 0.2770412507245616
Ni 7.512296856850225 3.704741497480971 0.634035689828247 1.259164091788354 -0.7085800904107926 0.5218375253724883
Ni 2.5116036585256865 2.6397021827780796 8.549023240562216 1.3047078418564242 -1.1259621789806673 1.1270590115892718
Ni 2.4463716227868986 4.4793983847128205 7.050906535265483 -1.0889488349811116 1.2369567024533794 -0.8003227076324281
Ni 2.0109452530029146 5.967548496486489 2.477815912400395 0.14001739306762337 0.08220973803053584 0.034522202146585704
Ni 6.537175950096002 5.19993302414672 4.400855773712023 0.8437175296782953 1.169761692664121 1.941903824097275
Ni 3.6195725929104894 0.4575318103131602 4.827206542079548 -1.657406117094668 0.7696232216660424 -1.000844585843012
Ni 4.463833636238954 8.237774293404447 10.84432567895989 1.9009726331005519 0.2924041063338771 -1.36462354437545
Ni 1.13958626791983 0.45572497404738854 12.574221830897738 -1.4549947351708554 1.7308267960786643 1.1633138801562481
Ni 7.016765337726 3.4334031058422343 3.0401230558613177 1.0978759622674126 -1.2334075516495404 -0.6533756773245071
Ni 6.711398043007498 7.722223065273328 1.5515854361569867 0.04296519070761632 -0.8656901772946445 0.216034372023886
Ni 8.7846206988337 6.36412282410123 5.107013040516603 0.8767230380700385 -0.03642738958909855 -0.8488731057373058
Ni 5.637706532228063 4.968818139799997 11.101499321085658 0.31850697406851597 1.4566507827170398 -1.4904697881490137
Ni 7.132713969615589 5.998696402362043 8.556189836163488 -0.013785998040498838 -0.36128113181124877 -0.5490832484623189
Ni 5.8707451495322305 0.7403518502347475 12.309624788627575 -0.6054814247463894 -0.042836378439235906 -0.3155656320520049
Ni 8.530236929719424 1.7921919636889552 6.628731832174476 -0.46534627515397925 -1.4855381551753513 -0.6631597532944643
Ni 5.172881104711656 2.0690438292105098 8.093492480703354 0.6542159138376153 0.44098790091427276 -0.32326068670341745
Ni 5.80140792288904 7.568158748327395 12.790765128426612 -0.5014851869683815 0.5610437632583049 -1.1544726277155342
Ni 8.83343197095488 5.280205153916434 2.8889581450474173 -0.563557530819094 -0.2943859126505962 0.2032091952347597
Ni 7.308077416052075 3.42988700062815 7.622051804973956 -0.8125678435483682 1.7739781346551577 0.1445222229165124
Ni 0.8911366166891145 0.8713626668686492 3.5684417958836843 -0.1601380750768984 -0.057876560601810005 0.0007042251558762065
Ni 7.915894190429224 1.8333727352277356 9.122430967500065 0.2913625524432401 -1.3326490483513822 0.12153913175777777
Ni 8.134684297598827 4.116935800353046 9.849914056740543 -0.16541860674954736 -0.500354415798048 -0.43469923969208357
P 3.7456001127828586 0.012480332617217768 12.528849346493788 -0.6270444956291459 1.0922794420162414 1.3389978733875456
P 8.42816862940795 6.29077245119275 0.9488780596969546 -0.8956568988600639 -1.515341868800345 -0.2354695979303622
P 7.491549995194343 9.138771652281648 13.393002156780781 -0.18350014684160657 0.37632054264287446 1.2241400103046853
P 4.394358342637096 4.027670909342073 7.858964581138353 -0.33865876642604253 0.3621139121251893 -0.2831080257439318
P 2.880500163159401 7.430929395875075 9.721368195542063 0.02458591686948024 -0.8388092937434005 -0.6569862774939008
P 7.380129959549074 5.2812268494105785 6.5126193608272684 -0.6203038344712027 -1.4352648608420957 0.2641641376515773
P 7.228458803220057 9.097250315578151 7.045033166843736 1.8576066074100912 1.1901875646186404 1.0762882087943078
P 0.15219949255752097 9.119966932511034 10.474042982061146 1.2760796365967702 1.2660541340399678 0.10186325059540521
Ni 0.7793189482028804 4.640274004953054 0.8916520666681426 -1.2297666124628432 0.8702525998543463 -0.906998034904496
Ni 2.0131083020220504 1.27190043664356 1.3009193500164506 -1.0601365387351096 -1.8160519238967563 1.5778351022385602
Ni 2.4026136013529777 7.793916634677789 0.0505656429426562 1.5458014708417829 0.2994818391162649 2.3129199238081006
Ni 4.565248419612732 9.114453458628214 1.1594835575567055 -0.21822289503477257 -0.9878090928152924 -0.47556023957250365
Ni 0.4113622193345008 5.334281379394829 8.061281459246054 -1.809576857695374 -0.5881745580368257 -0.18365132770749015
Ni 2.948603991638488 7.851564192153735 7.227830138334921 1.6809569078314148 -1.537072061388585 -0.9421085054543838
Ni 1.4109246595585663 5.065860802815948 11.87999999244683 0.12263570725606622 -1.0178485766001761 1.0345766879881344
Ni 0.5954109979176113 2.206981925383993 10.582920744774139 -0.1049712000967676 0.31447291320845844 0.6892155698412518
Ni 8.95310841072851 7.736453166480068 3.115201106645933 -0.41022105204506126 -0.2135020925203355 -1.078084381462782
Ni 5.982597794981326 2.9209353731213725 5.678144503529209 3.0629778217477055 1.146644389920367 -0.7095144292996038
Ni 4.368549025830046 1.7751913188449393 10.538384025693329 -2.4083057942092783 2.6769925023215575 1.777061915786804
Ni 0.8936429922121385 8.901342505691831 6.301222279071153 0.9586720662400199 -0.5113530809013966 0.1740513427238809
Ni 7.929636455048669 7.903799524849886 11.670259714194733 -0.18547603962105477 -0.3241729141050417 -0.43373918977165943
Ni 2.3026071009576157 0.4720435681155834 10.779432367493037 1.708336585395948 -0.5920103868431482 -2.0891041080665826
Ni 1.758982257897288 2.880224029242065 12.95202089302638 -1.221376331516619 -0.6585955309625496 -0.6084109396883587
Ni 9.084456110741561 4.1239311929255695 5.946136152089827 1.0714812743239677 -0.7063216333939191 0.2593543749677598
Ni 5.672867584368909 5.2792386852057565 2.2295733616076814 0.6121405819341199 0.13379738029984056 0.3941372591093212
Ni 4.753286412854963 3.825863038088662 3.783381675799227 -0.3312758436984101 0.6646733617255134 0.5437566940430829
Ni 8.070418730570717 0.5534340402505108 2.0122081054515335 0.27078447118157234 0.2009008588165572 0.7873828596423085
Ni 1.113721724329313 7.434261411810935 8.48935714415054 -1.1450593048214346 0.7772935937271065 1.469568262109656
Ni 7.880466208834953 5.00842494800996 12.010890230603493 2.3326886217945955 -0.3858202546031936 -0.7212114060215579
Ni 3.796077392871967 2.0056618907178767 0.41268582124493364 3.2803265417076406 -0.2493738667162802 -2.337623854312684
Ni 0.10561662114924794 2.5623294591403973 1.5538617000822306 0.1675798760669243 -0.6756293465163847 0.9837524062474153
Ni 2.2111607519996848 5.07556230777837 9.592821413897195 0.844972742241635 1.0354842874040682 -0.1008756898711553
P 7.026034232884595 1.5324972188979071 3.963269116248077 -0.12720969977999383 -1.1402749960589138 0.5467597425354649
P 8.595266467252165 2.380670159388639 12.708628174268487 0.5186989797435066 0.3096796055848731 0.14682438868712777
P 6.817369036017328 7.247594883691475 3.793283838074913 0.6392942595307765 -0.4741330202076737 0.16193167664221145
P 3.6342076905293226 2.1825532781636254 3.248462414706127 -1.4835635479474838 -1.8239665507581426 0.3291734526434266
P 6.252665970600316 2.8198887683040437 10.067051042191691 0.15924358828708704 0.26197561464069075 0.07103778057411636
P 5.287614747364963 3.640595588483707 0.8919291210318702 -0.118422440505667 -0.08711154620752738 0.004002693401489881
P 2.6791709240293735 5.372102521606014 0.3252581412306396 0.0847247911429057 1.7204310546666368 -0.027036949513134078
P 0.05906412447188192 5.835602506319208 10.464249432459612 0.07012246784869859 0.70706339665595 -1.1314188312198645
Ni 3.7587809051037198 4.164872648402659 12.425171185444242 1.3138900225763244 -0.45493639267456487 0.05764747531013943
Ni 5.616968875036094 8.095289192058823 8.008419302557549 -0.11457272774227363 -0.3471380075416473 0.03969654725867357
Ni 1.0299242848816026 7.43005497180351 11.768562468320129 -0.12861172233384302 -0.5294217654776494 -1.9803652133972667
Ni 3.422063206303616 6.546260755976372 11.846361358636901 -0.11887752576521464 -1.5030147146935597 -0.24190506914306079
Ni 1.5458989183526375 2.0202233526254205 5.665076926114455 -0.2445299083604176 0.5342628956200347 0.12513250553599095
Ni 2.4467950281268145 3.991212027789746 4.516832939439736 -0.8418894753306211 0.13237581736196555 -0.6340070429899081
Ni 4.454214971451734 6.071236782446337 8.602842661497487 -0.18574883366646722 -0.06407266211019287 0.477732564633474
Ni 0.18852122759757042 8.09949563206625 0.44602162819218466 -1.3271414882695918 0.2394990308047295 1.4063263234308747
Ni 0.8404752473217816 0.7294454809463475 8.340643382076196 0.11483498026472481 0.48709138014055475 1.4497656255614322
Ni 6.189201191932481 1.5837844918112027 1.1712210899362883 -0.3428308955258612 0.927590514343867 0.2856490469982306
Ni 3.8829951455855802 2.701390499911049 5.986147036265492 -1.4038362100191695 -0.7524166279797687 0.6032288812667869
Ni 5.659475089378089 0.6617770236102609 5.88644336273281 0.2766540425884719 -0.5148330690301972 -0.13822379150231034
Ni 3.5106653759129816 7.8675247325757836 2.9388030784658254 1.7774149282508487 -0.3453904287229213 0.14274739040427672
Ni 6.424798650203966 5.510390387408124 13.460118346282195 -1.877497175686431 1.1194115223463432 0.8600846581824091
Ni 6.053996821540629 3.0428761110171627 12.26652856814887 0.18316770320285228 -0.1550156662486685 0.30633665725456916
Ni 3.8225494310806245 0.2024254907818533 8.79797913730805 -1.499349864247463 0.11286063014717336 -0.2638432639770488
Ni 6.935038902658313 7.216216866218139 6.060416014672312 -2.2578422661076663 0.9629380406052255 0.05486579879994422
Ni 1.7759460848856592 7.5856840476143494 4.527543253646827 0.3306004148979403 -0.07800598436183341 -0.4126931677346376
Ni 2.9657887257607283 3.6278105881110276 1.686557854058276 -0.41790505095288033 0.8956700114861865 1.0753227595572448
Ni 4.442488484428844 6.623412572480184 0.9713636445856642 -1.491654038265102 0.20623666920717384 -0.6072326031095413
Ni 4.644885441372573 7.514404679085893 5.08500056507293 0.04071676099307182 -0.27246108755304693 0.428587470367391
Ni 5.638350844701849 8.917800087165086 3.392677034820668 0.14064397090802874 2.2691877730274728 -0.09837940581186283
Ni 5.888132381860518 0.5250097352462847 9.780562102955093 3.1802463511545875 -1.0497261420350632 -0.23792243034622895
Ni 8.28208458267304 9.013793441295157 5.0870752512385184 -1.6078876986495665 0.7997830330788742 -1.428714718428404
P 2.8859768191865744 0.7236512709142371 6.934107410910498 -0.1538607267086189 1.423886186691509 -0.40576301627370764
P 3.5010283021979385 5.8875525006341105 4.069668116829778 0.4448216728380662 -0.0013076630678300059 0.018656695869238838
P 6.44306951106773 7.1174253550590585 10.184146550284616 -1.8207233612304965 0.3740034644739236 1.3273487191843916
P 1.3153823241601443 6.570440882671137 6.338983592266917 0.4086567928817349 -0.7104302562456539 1.494217428116904
P 1.654364321082407 8.392308038009853 2.277533220817072 -1.1211881546307916 1.154715596964276 -0.938677625395964
P 0.2762241210828098 3.5206338103288286 3.985066207236227 0.5091375613073166 -1.5765037850216463 -1.5877068528263172
P 2.554726571949733 3.3591967177900113 10.821315439628243 -0.06487253230366892 -1.428430868639398 -0.03661662278176919
P 0.5869557773687683 3.1556307939295585 7.908176247439669 -1.3769735813003703 -0.4580086038419854 0.09254582984922127
