# total energy = -381176.97607753455 ev
CRYSTAL
PRIMVEC
9.11980734879542 0.00000000000000 0.00000000000000

0.00000000000000 9.11980734879542 0.00000000000000

0.00000000000000 0.00000000000000 13.34775989922714

PRIMCOORD
 96 1
Ni 6.477124188269539 7.670432720746092 5.0720418768647795 -0.4031901133402089 -2.202228019177472 1.2311339251240152
Ni 7.161903151479271 7.651855673480145 7.308232281961149 -0.055601391414388114 1.061616979935378 1.4616268957753924
Ni 8.46786866229468 5.503365894320441 1.3448669604067842 -0.09659351755603365 0.011784908450070027 -0.5448681819397068
Ni 1.7389192378176725 5.843735338630556 6.70056220060626 1.9983850470134552 0.5215945561237469 -0.4167143730788888
Ni 0.5936565856117096 8.14790934649767 7.646477723174435 -2.074331577743098 -1.5136739941796191 0.7433956554280811
Ni 3.152954463950453 3.8371132802705996 5.472461603662553 -2.7316176458656054 -0.6228646532198434 -2.4365907571969005
Ni 3.200988488471684 9.191215290152275 11.228082277109573 -1.5750513688458359 -0.866572837009914 0.18491193958746865
Ni 4.144496381939118 1.6669821986258235 4.375008628720707 0.1774652535014363 1.0670052408304849 0.4191826321137232
Ni 0.4125946694094769 1.155443092983075 2.3935335267334183 -0.258896975715367 -2.192062905719012 -1.444720349828041
Ni 2.5580147214657347 9.084422347842875 0.3237449477656396 -1.5506793677593744 0.11637867060276086 0.4806620795754432
Ni 1.7534926897229177 7.318763835315453 4.874374615713192 0.5942410759458798 -0.5486160790179132 -0.829862368962758
Ni 4.365907061135328 4.552160883576395 7.02675490462432 0.44543590938329736 1.003994187215587 2.1636774125977833
Ni 2.2999059380976177 7.233274762624734 2.384751152400032 0.8559523811815903 -1.7795787686713869 0.4408948269798342
Ni 4.719354308969925 0.0649312033009795 12.946259425432071 1.8672742124068422 0.9486205955412889 0.7730844407417653
Ni 4.483151302495675 3.2035055552588227 8.946803545217504 -1.5367820409519921 0.5859271567635457 1.3181035464370396
Ni 5.323094665402429 5.562936474949391 8.893705291758236 -0.6329953138959421 -0.4065906543813255 -0.6084536200008359
Ni 6.562275828093866 0.8861014430869911 5.667886304223717 -0.4333694651370666 0.03416970390317341 1.4268257289358073
Ni 6.072852254910579 8.269376058591513 9.514203293920332 0.039970369745350516 0.2960764129791417 -0.46974646110420387
Ni 3.800916765494681 6.588385836106831 12.871805319453085 0.02023612454121676 1.4306132210026974 -0.9505738626129178
Ni 4.164259004141036 3.521841545374274 2.8223833404957794 -1.2349769530191892 0.1639870165093434 -0.27154448927604846
Ni 7.090485941297809 0.19782320985470472 11.566541121811337 -1.1385832101787874 -0.23549582318260734 -0.1693894184718373
Ni 7.2973961270463725 5.267016970930995 4.090407717417954 -0.3680505893245984 1.4805895529208244 0.006822422238472122
Ni 1.9841326138053037 6.249138128082288 11.130162907205557 -0.6030494182661291 -0.5030674438538368 0.41979172645263185
Ni 1.3671958963547206 3.739312467860181 10.952517270780362 2.630238276885154 0.30755638859428325 0.5972250982748682
P 2.388596063115459 0.18301355494298524 2.670939822136266 0.4385492095657931 1.3351319626742362 -0.29620522524752213
Ni 0.04726796071644944 2.913860478593873 1.0451910078027988 -0.48194428872197653 0.6620649775683888 -2.400711526801788
P 7.468310433777411 7.0946901724169065 2.51630619521827 -2.1928738316560814 -0.33779976085985697 0.9108706304860248
Ni 4.4132844595381755 8.089022751408704 1.5774247799432837 0.12079891115764356 0.43775859534369765 0.1675780762947114
P 5.154542388736132 2.749001723843486 6.252010867350218 2.2878789216790727 -0.623667608737113 -0.5678893254252284
P 4.952091788708261 4.113899428783863 13.284544993797038 -0.5026501538107602 -0.5211798371838314 -1.7594460024772538
P 2.383580169155581 5.074999430339668 3.8597714412584483 0.39343817615976756 0.8153168670484153 -0.7396457014673455
Ni 1.3787689316912393 6.871938881562329 0.08949905191646149 1.097513436721671 -1.274953493412127 -0.45862643993164237
Ni 8.751795619845371 8.448379634308756 3.8420461839849596 -0.4674129278750208 -0.2866479205763902 1.1741477375469587
Ni 2.6554416217809633 4.335173310872077 13.017362914245862 0.7338877159376458 0.26189153956731676 -0.12226443995957655
Ni 8.296781079226845 7.696077618591868 9.92185685178897 0.5567721324661443 -1.1639407151069694 -0.2870053039158089
Ni 5.717115935468838 1.4365611499162323 8.280535966661882 0.889472881536539 -0.7291751409533248 -2.6382768309189144
Ni 6.876973015136606 8.80073250527938 1.2226095610287202 -0.13806515443725897 0.35895634033281404 -0.20951379729654884
Ni 8.234720791232357 2.478754477092464 11.810137555982447 -0.9164347548373636 0.832735833855811 -0.9235142873919643
Ni 6.198687354653116 6.544948194414288 0.45586085872666376 -0.1565156478329627 0.34907199133956657 -0.06351241873134868
Ni 0.6380253596193497 4.330321573441795 4.913443869757041 -0.3080770369844436 -0.4179716425247575 0.39594371619044066
Ni 8.723332701574863 5.124884775722454 10.664379698245536 -1.2810850602311616 0.5687293048280204 1.247853037650909
Ni 1.5406637491016983 4.6102996544749795 1.8549113296494892 1.0411944504149682 0.4067642038447123 0.31284823312084187
Ni 1.776328686951162 0.7960032198375042 4.768233739618576 -0.13385445879002109 -0.42908754993226106 0.03539612011110678
Ni 2.674547617864498 2.3185559438211634 0.9926061994888787 -0.40898589408637953 -0.012425627357862472 2.9024026591333887
Ni 8.007655831572285 0.9414741764618834 7.888565741234703 0.16546334394455375 -0.3187237180650124 0.8650877678239552
Ni 6.124561561733321 -0.04569479397448773 3.520685153821342 -0.47353061073698444 0.48818307054283666 -1.740097936967945
Ni 6.018416125735104 3.407652439425853 11.224678765062619 -0.5258165646248943 0.8530421495133309 -1.139957979039127
Ni 6.481529055147032 5.881436621594439 10.772402902546187 0.20142562097177566 0.8791157066719311 2.0971894561778783
Ni 3.7561202725293716 8.58956336956852 4.2929595473057445 0.3272361264113977 -0.9031421514935155 0.14165775688452378
Ni 8.64334287262561 1.556906125724503 4.4221525600592395 -1.7325221815032164 1.3887957707462792 -0.6669133067996257
Ni 4.089850497198048 5.494036331555068 1.4300523435177508 -1.1232272965480075 -0.05586930036379411 1.102623761365043
Ni 3.645533490424863 1.999818682188922 12.432917333905928 0.9559112156654312 2.079471470072825 -1.358943720381853
Ni 7.336811933763813 4.514003610252524 12.996500443295648 0.2986860826878469 -0.1957339699036371 -1.9564161587808373
Ni 1.3490930790631614 1.1618087184085202 8.435370229338274 1.444970518165634 0.5457037904671247 0.259444877799037
Ni 8.49757187434436 3.585643716543921 3.0397521211410483 -0.3761621626881393 0.24439415411350168 0.9084962167165773
Ni 0.7851132580602493 5.9132191496856645 8.892383831694987 -0.3580700810731188 0.840063992086108 -0.13418535976687856
P 4.546397165426135 8.466993160803503 6.836282259372636 1.4824877983848015 0.12511965002018452 -0.7371118793018983
Ni 1.1953513692893036 2.096525117735368 12.556998694723946 1.8390491561228777 -1.1819415225597645 -0.6738599133207879
P 7.483960022932231 5.820607507571919 8.790967927710577 1.0274524182385272 0.4215102518056354 -0.111006350547254
Ni 4.867013107341531 6.781005283973341 3.3225646382519245 1.3848720102118408 -1.7373453139234725 0.8678028527622733
P -0.17247835366580166 -0.01691450641342828 5.9073715293091675 -0.48937554818904105 -0.5210391978409091 0.3941339166752115
P 7.174844157895755 2.1200359806963958 9.774124182979048 0.24641555541890464 -0.7583221948309262 1.0107659587217817
P 2.7445694975443935 5.218052726075386 9.250464853567793 1.53063967549968 -0.29849093595790527 0.21136653423457147
Ni 4.213369165911842 6.431342756126653 5.720996413432344 -0.014397149261936495 1.0057211972090228 -0.7055963251921202
Ni 7.432040960543896 3.459918054487781 5.692566326467755 0.07884210710988357 -0.8339396243559251 -0.015317089973044587
Ni 0.3024739094528774 2.0585958395914914 6.401118803085869 1.409175877064528 1.8572471671881432 1.5247734465268903
Ni 3.902748532687402 0.2354150551321897 8.92237705361362 -2.5771151718079293 -1.400754228659736 -2.2256266006070704
Ni 4.123657622487625 5.034498366565454 11.022913974536168 0.08531434509778854 -1.4022716937455268 0.23566063089524575
Ni 5.1112962629947845 1.405809160038581 1.8498388928849727 -0.5805908321522968 0.16462876385840033 -0.07416192802539485
Ni 2.412690593737272 8.715371109889457 6.67139705718137 1.835796710623851 0.7782338461531887 -0.2807035300674972
Ni 8.654833829697331 0.5839512867897059 -0.09949983249173805 0.8350588255620328 -0.33580972701302164 0.611640759479566
Ni 5.000755079926276 1.278359854421683 10.415537550973111 1.6808373515344146 1.5035883278088429 2.743834499646771
Ni 6.617532739917321 5.411803030034671 6.8386442894373785 0.06503168358935252 0.9290257041284968 -2.1596238113537
Ni 3.3821260990736746 1.9416981509047366 6.930583801760501 -0.9010999242525062 -1.4062872426628232 0.3822561914010191
Ni 4.148746212094214 7.224747742892941 10.21518724254335 -0.35115921288589846 0.053258602213824405 1.675654778892211
Ni 3.545671601587294 7.041001867431813 8.114089453478012 -0.9972275579157147 -1.001820833713352 -1.2947455884373895
Ni 0.15824233462694817 7.818164477575296 1.760342576910671 -0.046586332399971384 1.7646501723860126 -2.4153645008282725
Ni 0.03865339083553913 0.6767872761605662 10.352202313932095 0.3166724919629385 0.4729613684970757 0.270633804536321
Ni 6.9141909483189 3.5873855997190787 8.160820257550395 0.29166671394722027 -0.5794060678155764 0.5740293768846952
Ni 0.031247195408599406 3.0841455186281284 9.419166695072166 -1.2265514479596553 -0.9066717619133288 -2.1806353806083605
Ni 1.812324565968686 2.595752483658416 3.2834151299047174 1.1187967715804796 1.7160907754200705 0.7853159498109508
Ni 0.20906063628627122 6.133991442377891 3.36590469800743 1.317626349690305 -0.5955803635825936 0.9795342544010096
Ni 1.8286490208562884 8.038982369303522 9.643035162308715 -0.49651987254330615 0.6105657812478323 0.39083544842959783
Ni 8.717423066509408 6.765319215589724 5.697144469682044 -0.4325135448946745 -0.600521766748269 0.3261472642225931
Ni 9.116834142630884 4.5813989854588835 7.1397429319645305 -2.514280752980212 -0.8691146295951614 0.5719187582995957
Ni 8.35292261234868 7.2536392921018376 12.585869268376284 -0.7874309392714246 -0.0760167218459465 -0.43441281879991633
Ni 6.1136633921295855 4.348679745334948 1.650610320740782 1.2359609141990133 -0.9085707787082546 1.96645554529471
Ni 6.36247909196113 2.3159203195404277 3.7377064698122995 0.29411774659087414 0.7708360110272209 -0.330881693583785
P 0.5053221330746599 4.522293514997122 12.890318528068635 -0.7268950866698966 0.7495781300897091 -0.33837363108545593
Ni 6.157502305338919 2.1646135982889105 -0.20388058579679727 0.31087182612076136 -0.573385058432477 1.1284463788551016
P 1.090418867648658 8.575245272264867 11.949622271160893 -0.4078672071009041 -0.6200986604389321 0.062036348406454445
Ni 5.355597658262439 4.241503771123156 4.639254130353555 -0.38096781160689874 0.93805361865872 0.6045517138432686
P 2.5922595975009015 1.957749011576346 10.231819034933585 0.3820965258947032 0.16859751869816125 -0.46919933035148226
P 5.500702910618107 7.666192010398196 11.863555914674427 1.7040027339072845 -0.9795465956961841 -0.6611710049992097
P 7.434968418655023 1.9094505126463217 1.9595711490548615 -0.9179882153674126 -0.7700639087478868 -1.0291074373434468
Ni 2.010078465288672 3.6145808647888162 7.944693594645736 0.06438196582049557 0.09129627371283631 0.23581592552618738
