# total energy = -340862.5285966804 ev
CRYSTAL
PRIMVEC
9.32130062724015 0.00000000000000 0.00000000000000
0.00000000000000 9.32130062724015 0.00000000000000
0.00000000000000 0.00000000000000 13.64266567947458
PRIMCOORD
 96 1
Ni 6.906449761214119 8.126477487707604 0.4401182490503721 0.030941940994495102 -0.8091986699658192 0.6653649884758992
Ni 2.973420262897559 0.7204824587590174 12.44459414166751 -0.8678398766477958 0.6837658595805902 -1.4177201670901132
Ni 4.8692981974892104 1.6144026258731965 8.192611182042357 -0.18229224257643442 -0.12473449876662389 0.0067118648025368275
Ni 8.792894539782885 2.8004542123435416 0.9562358567977732 0.8220811823554424 -3.0109865162820793 -0.26824087882411224
Ni 6.484166888383302 4.969259823170462 6.018407606143449 -1.0352022373872751 -0.2675718777815456 1.7036646338415755
Ni 8.505472241397827 2.9537709616166867 11.984371711875873 0.008910158005436267 -0.3297257256024709 -0.002620982562614841
Ni 4.162221632991176 0.48999745971644254 2.033862076807441 1.156415353264202 2.1946075265177365 -0.41457110148364085
Ni 6.484399920893748 0.6068679243557111 4.280823063118043 1.9234340474278617 0.5024426657856443 -0.3679968532685275
Ni 7.578217239729257 8.071668241250523 3.5778021964318243 -1.0206914453656097 0.017069553887777054 -1.7387123694743278
Ni 6.321006845868884 1.1290984409171523 -0.009770587098012555 0.21150563091559707 0.03524211103174576 -0.9089798412212151
Ni 8.562043213633888 2.0377108417499796 9.37417549449154 0.012501217790804276 -0.2133694235972132 0.03142993637450716
Ni 7.915322069341568 5.994332551424171 9.977699868387361 -0.875458312425002 -0.12879015689323625 1.0584429530827708
Ni 0.10586946588609712 6.2715853110533315 3.660790666182173 1.078412454226162 0.856187380010532 -0.6938183587205858
Ni 3.04728224740877 5.3136073032074576 1.1439500688729463 -0.08213671870075531 1.4750110303917823 0.3226027414044444
Ni 1.627107558342755 4.0886392874925015 5.053966208587824 -1.9737042564373233 -1.99707506995278 -1.371676080346857
Ni 4.875254508456231 3.9050562757625285 9.494449165913373 1.885056733201244 0.18282240404829161 0.8099761715617921
Ni 2.317331211685279 2.2975048056964673 9.789949303240558 1.5906163131636282 1.5273311799517375 2.0594196936282727
Ni 1.9972097914343296 4.219501024058994 2.915833268915951 0.13272240206810693 0.1931135015616545 -1.1807768128277019
Ni 0.8497605063845145 0.19245875398786955 10.060701387958295 0.319008853405599 -0.9211784401699361 0.153447036209968
Ni 3.6097295146231163 0.23098555287501465 9.89422016610499 0.19056528121850405 -0.26929117446549755 -0.215838453962996
Ni 6.404572304115099 8.801749775179863 11.662118510219354 -0.14319656212655338 -2.463359540650312 0.5645422633298665
Ni 4.1179827412079595 2.642131924746 13.203917527137753 0.43337357890212463 -1.0720263481941603 1.733715173370053
Ni 0.44909186496265674 1.914473928925305 3.202534098648665 -0.8044596126189371 0.48687283637184536 0.4911218414561864
Ni 2.3143390742511425 2.267564788754265 1.7268473370740602 -0.07795713340176898 -1.2852862427967027 -2.2203620097740213
P 4.01547640051263 3.0739598092047173 11.177504101494234 -1.0330178281414466 0.3570462677942948 0.36479068762640404
P 7.548491612696666 3.846257512726597 9.94547613284278 -0.356194975537593 -0.12533330869288736 -0.43797765333303923
P 5.060683137668941 4.97557034355336 3.3138984711310977 0.8054024361481806 -0.7313595501991533 -0.10175269315946991
P 1.0702530713791316 3.797572360644056 11.278705460131059 0.26550882460492986 -0.8348963318422397 0.07510449444432227
P 8.056166918655602 0.23222062518038258 10.656312909929385 0.8846950005319215 0.9739518752172259 0.46099288328128996
P 1.2033612413463317 1.5095939239746534 8.352913313848656 -0.9968832872024188 -1.0547480207296867 -3.730773016931652
P 4.708030378959622 9.250579711600777 13.104639152777132 0.7917743038417847 -0.4763698799579925 1.2546168387373038
P 0.23000961272126352 7.450832348218631 9.627479036957064 -0.47865404800647887 1.0977875163186643 1.0636435234471036
Ni 1.252624314054781 0.8080970899067557 5.721637907699351 -0.8870380468428015 0.15821540413288881 0.07416784156266583
Ni 7.559649209296858 7.224389997167286 5.769524224336081 2.8704505317068243 0.6836123647218614 0.6911783499945773
Ni 1.5284602360204245 0.14189163135096025 1.1179893150791334 0.8303344235031701 0.8083676894240918 1.0184368450034784
Ni 8.830189062754787 5.235988834627845 5.780206434614961 0.6467484018159765 -0.2757328163257832 -0.6210301711142658
Ni 8.510086285104673 7.48656089272033 12.058410801095022 -0.7501442870058241 -0.5538611294669364 -0.5917663891531422
Ni 0.05303167446739443 4.8293191399969615 1.4093284238997803 0.8100507335534695 3.3565008721773744 0.3184115861412323
Ni 6.412700478079483 8.989667191604145 6.762314492852577 -0.044154840140343314 1.0864474087154967 -0.33796585412407604
Ni 6.749050282357946 3.0654214980219474 7.736400639950574 0.856053425535829 0.0417490589123281 0.14657242057732175
Ni 1.6470551412369991 3.7838420851285317 0.1711101796408192 1.0331749225446014 -1.547225090662187 -1.5937461170418616
Ni 2.793164955416766 5.146150141200403 11.161310206278266 0.4973999611554143 0.5282238885148064 1.4675574023272144
Ni 6.475954822715157 3.297671019233625 4.2156792908876675 -0.5376436391668096 -0.3480808310708909 0.6114342998957147
Ni 5.503398301015733 6.627192921995116 9.949555133905642 -0.5230361736662799 0.8664576515882885 1.375180751066006
Ni 2.1589157110835586 8.64627980551019 7.3200405214052715 0.38925062044098124 0.5396277594763739 1.1552593852828876
Ni 6.124709580368936 3.853155275035822 11.665734242651448 0.5052744788074847 0.5664019422464245 0.5003862974772478
Ni 4.062306613812015 7.520201465928428 11.955490594661141 -1.487763187851128 -0.26833009610380887 0.037530135734974074
Ni 0.36144088074328873 5.306914609507427 12.748429385828354 -0.21016197240350903 1.064613857780173 -1.476817744583218
Ni 0.7826629895865524 5.41938542034946 9.943961421524877 0.15422659468846986 0.188393727488482 0.5357538783432644
Ni 6.528871845187411 0.3046163691358626 9.178526059370633 -0.003240361314168613 -0.9899209969519726 -0.17144630100086602
Ni 7.0900793794461805 7.045831166362547 8.095666861306373 -0.01794887116893683 0.12301108831761395 -0.6618466909099956
Ni 7.065061009124614 5.841360690266488 3.9090327425207922 -0.48343244323172874 -1.6336113286679155 -0.10938295601121806
Ni 7.389078732950234 5.5818743292337905 13.565939124897074 -0.0491522933549347 -0.49600668035231354 -0.957210908313461
Ni 7.228910827869955 4.298210084787499 2.10275767245601 -1.6411014663973735 -0.25290347713609346 -0.6048967558875131
Ni 0.8003007542372482 6.514377223037622 7.8241364480037445 1.0301009116049678 -0.7913611275637661 -0.5485086069057714
Ni 9.168151452005544 2.6973326658206327 6.350892799268664 0.634226615199882 1.2051580698855437 1.0322197577201837
P 1.9790612195207344 6.747568195591504 13.116385855563735 0.9132026210533112 -0.3180554883533942 -0.0854243883130916
P 5.232717058181172 2.7226213538543176 6.095106062371819 1.0759704204435727 -1.4151261811106919 -1.5389348256289368
P 8.352835947055187 0.3899799062326849 2.027914155010797 -0.38874565578010467 0.2705924097754243 0.26709005304912065
P 5.897847770798787 6.446014805772955 12.109243580793843 1.1715311258597176 -0.8514202976391918 0.7440026928844606
P 2.968153728161462 2.1635390760908226 3.6473530794997693 -0.11473290746922175 2.2750120930187334 1.1684884823786523
P 1.0973128064922115 1.544194591125791 13.218664756528867 -0.32886646292596905 1.4766637355038568 -0.13230511202503023
P 4.823418756832449 8.214032462532668 3.2922478866505083 0.15553297220471923 0.023049939840928044 0.7288820351929383
P 5.311463404111348 5.694419710479167 8.122693039737948 0.6394354130943309 -0.658598359176027 -1.4126628071718639
Ni 3.058039028090993 7.298009627867633 9.440083613356183 -0.5591020661509015 -0.6570739521117006 0.2931170732405016
Ni 3.732090225208511 8.434770177728275 5.341812626141894 -1.2214215829322577 -0.8543171595710125 1.2097539167863423
Ni 0.3600715817119035 7.640819093335681 0.8313183135077563 -1.7761787418509023 -2.909031991524448 -0.022226929719000428
Ni 2.2738100600342386 0.20110239586536147 3.5323450106839918 1.542164388309828 -0.5263948057258676 -0.5287098270122894
Ni 4.4108207151358 0.9508006065241125 4.564413374901314 -0.5117485165676026 3.0154522653629163 0.3524226529793544
Ni 3.500698263635277 7.937245767924401 1.0137650587167906 -0.38597914877856104 -1.893536488537481 -0.8217937330220105
Ni 4.213022720268574 3.898121228251632 7.376644118192795 -0.49642936971202895 0.5884555796123543 0.18125994465717815
Ni 4.477598511329429 3.174974741833187 2.0735624274171958 -0.21564844943937697 1.200655296919184 0.647165177638421
Ni 4.2640102335543295 4.859790471062983 12.95803560406494 0.8109966424065066 1.2702913120497672 -0.8255130908551267
Ni 3.3649614869502376 6.292176063676409 3.506028183214216 0.35582473668236786 0.7325592269342094 -1.1785332682091638
Ni 0.3209193235667192 8.843471915850253 4.089716829820807 -1.7312949939643345 -1.1329962030093135 0.557259356515208
Ni 2.0937784637634747 6.722139688051552 5.370762720979719 -2.743365273319837 1.183014186798653 0.07177594429172154
Ni 2.9737371871117664 1.8865286702725275 6.763583121839449 -0.14959012435772304 0.3540023387616484 0.3125003628631199
Ni 8.606953239047192 0.27820353227178285 13.390957809192715 -0.32059805226958976 1.4531412269018844 0.10281404454444874
Ni 3.477842435010657 5.114131474265015 5.675226220788728 2.6710877068013485 -1.031335298232701 -1.568521538147118
Ni 5.499902813359031 7.059095376857177 5.170529070313303 -1.797438422560627 -0.4414046767367173 -0.9039103971181077
Ni 1.1343463330524137 8.685345375561488 12.379627474145071 1.0905578313394444 -0.6824365992462053 -0.8033224136907003
Ni 5.3459708582583065 1.3775017757530008 11.172592708304055 -0.7316778527705204 1.1152579051892857 -0.2619167363782973
Ni 8.91600095440171 4.4573060403197236 7.959853649957906 -0.7531275380038642 -0.5401448083221084 1.4547389104063075
Ni 6.406818737515807 1.9786417610019302 2.063657613593166 1.391201294863978 -0.837046802526339 0.9941481476594428
Ni 8.873337362389114 9.307607427557313 7.735214038407379 -0.10426620360994303 -0.21188024064619637 -0.049944707349243014
Ni 2.6561045540723884 4.6107719303995545 8.989752947567991 -0.22692890744920274 0.008070949933592551 -1.8845098595588383
Ni 5.341468670156475 6.273225859926877 0.8805729970458294 -0.3329897410657233 0.08758437207888786 0.9523769772599275
Ni 3.6894639183975864 6.762370420655084 7.176028294209245 0.535039368774743 0.6055441596635249 1.0411232308574006
P 4.529182587841928 8.742307842415098 7.798761071876173 -0.8220343882779069 0.39352713632914804 0.5430540115491034
P 1.7075876661506546 4.386697189654349 6.995331157088645 -0.07422954803853667 0.41101192337747283 2.674752557247445
P 0.42940248208998744 7.802804651997446 6.249023103391875 -1.4659918576123074 1.439368084377192 -1.9388534673067255
P 1.6375567361111887 7.515745884328685 2.6140981137392525 0.6639580808260437 0.06775113940304461 0.2979862284073449
P 6.9524410574758955 3.181369153919847 0.03656839366935037 -1.0134851574251578 1.1845365369804501 -0.24478161935990747
P 9.07581465006611 4.171775965919494 3.4120443074909463 -0.17727422053655276 -1.5513887351215734 1.6912770588105002
P 7.741535744350778 6.518767555534439 1.9074624467509826 -0.09094017592499823 0.6421582113421327 -0.6112784910441408
P 8.138660427353763 1.1234217689626687 5.6318150604826185 -0.7201274289287598 -1.8132098264622707 -0.510085784153199
