# total energy = -381171.8996496541 ev
CRYSTAL
PRIMVEC
9.20534645896194 0.00000000000000 0.00000000000000
0.00000000000000 9.20534645896194 0.00000000000000
0.00000000000000 0.00000000000000 13.47295503336644
PRIMCOORD
 96 1
Ni 2.9286718086984918 3.48231817333381 2.5457956695157984 0.3774245743403306 -0.14782866158192606 -0.4930946489118411
Ni 6.509468779732299 2.534121448984565 11.545191029307846 0.26389391470932616 -1.485311898097158 1.9092359015506088
Ni 5.019132373971234 2.341131357960033 6.490394381086369 -0.17812448435199 -0.6361798822715107 0.23542100408061392
Ni 0.39543131138151777 7.188381500611922 3.625019455998361 0.5303586754696221 0.22804399489025243 -2.1935903981071316
Ni 6.410317991732049 4.044755643951883 10.017411876337514 0.24671226072371705 1.1793297959685303 -2.2830118233947583
Ni 5.449712460194582 4.468873576876914 1.8277280069632518 -1.5269280309760476 -0.004165444231599278 0.3480198959259684
Ni 2.467815337577472 7.850954731314176 2.839357854052347 0.4996237082796105 -0.4790204302069621 -0.7491847513060322
Ni 8.973270586201416 2.8157774382560943 10.530111938855674 -1.3161826752652428 0.8877564130660646 -0.730071170405033
Ni 6.0252031122613925 6.299006940901206 0.6020388716000681 0.04737668951175067 1.0684399163944827 -0.31408081997636234
Ni 4.562924602872509 3.9941814698479585 4.110854635060953 1.5862117563380296 0.5196610865464599 -0.06058650333380534
Ni 3.563251580454616 1.6087263681110058 13.33112584226869 0.8368621973193587 0.9859432432511472 -0.8997449528865086
Ni 0.9233146725467505 7.016057412656795 10.857060074364215 -1.2988621817089243 0.5082158208239957 -1.3982643723583468
Ni 8.514586576872992 5.694049974435658 7.106876441468574 0.3989279956297452 -1.0583989872187127 0.47998587944402504
Ni 7.039374555540894 7.306127088701348 6.503422708099344 1.5966010699921536 0.7952355229175079 0.7020751994127393
Ni 6.223136474398741 6.041827968182704 8.467496626449142 0.34909230305454075 -0.5310860405539499 -0.9268114700859973
Ni 1.6141022905130247 2.581280439507755 0.9455455845345513 -1.9280424927341504 -0.6420201431023718 -0.3143245605560522
Ni 4.8554244904138635 0.48367376368589005 8.27650409563221 -0.6983188176941005 1.50895730543024 0.39174176229395113
Ni 2.38632040431536 2.7636291498871945 10.411320623394898 -1.0940136510985288 -0.35445382447677015 -0.23194898637161346
Ni 2.2860097426461814 3.912419581535061 12.553183843963657 0.20400289478064862 -0.06834763533646294 0.7702490281754992
Ni 3.1436350620066182 7.219808553831943 5.619758224871457 0.8156397976054728 0.7048897860433989 -1.9070962294997864
Ni 8.868237581737311 7.607031457669146 8.647939830086772 -2.264845694008693 0.802003951989593 0.44305275386310145
Ni 6.891278939781167 4.005688153071458 6.087579461213996 1.0239395199892625 -0.24053492826841158 -1.4843323077927082
Ni 1.2537774093790746 2.188663202575376 6.4733773774008 -2.425119523332507 -0.7993300047018557 0.22255340408932642
Ni 0.6141420612818738 7.625902418155685 5.77131597147947 -0.30979196279302135 -0.3834291286631977 1.2116668175383392
P 8.845675277272674 3.285075212189873 1.8433292283450011 0.11585982198481337 -0.9496230686638744 -0.38515176778125926
Ni 0.015799136333193634 0.4587401619425536 10.293876970673258 0.013961861496730793 -0.9327088094070388 -0.17993454097753525
P 2.0631022752405506 0.204048473869644 0.4180442452523388 -1.3443344551091105 0.5612090851915753 0.4934497182584147
Ni 8.615108961513481 0.07679744490295083 4.175821368540831 -0.16270789268660366 0.5484540995187522 1.0988514388068045
P 2.8911876374296197 7.154607084014307 9.502906645355251 -0.2746395832616044 -0.154486790328392 0.7774056938249385
P 0.9292981478229702 2.0591255655185092 8.851205849497218 -0.14320787498046306 -0.7964369994247767 -0.5222044217936038
P 5.831255665192666 6.381597310406195 5.048303196744793 0.08255015208909008 -0.4520680699878343 -0.049813581088017436
Ni 3.038657289621988 0.5068178460543078 6.320756413262935 1.2744927517256244 1.3477704773738532 1.359715051330239
Ni 7.609157892728848 8.274014049382645 0.9697298710663734 -0.9390139256894602 0.42828125198088174 -0.29809267207822215
Ni 4.831812776439243 4.881355951726342 6.239783423151841 -2.0940786784630387 1.9492810903979523 -0.7214752012059058
Ni 7.942952965022699 3.1514780172917556 7.9404886937435535 0.8291830835075462 -0.08829193966887375 0.9413338320718885
Ni 1.7209855696394663 7.220001866110099 13.306308227892247 0.499966693441326 -2.515324620863694 1.2811174561309935
Ni 7.148476323192827 3.9251229598138044 3.381320792809854 0.4627741435514288 -0.11473290746922175 -0.06675869358278824
Ni 8.341314338220249 6.723161695212551 12.703043204127882 0.5502335600166782 -0.28766890564173686 0.04397743402221459
Ni 0.3679027224376178 4.673278297659157 3.4551660830649835 0.06570942638266748 0.3440758236765558 -2.3153876686223027
Ni 2.4170110298090774 5.195368734222352 10.514280583809455 0.5599099067641776 -0.18943091050374472 -0.9186654439400954
Ni 2.8188796400531495 3.430068626152544 5.75102554655048 0.8297502688649259 2.281833229705625 -2.6385177432851266
Ni 0.7579074820109332 2.3651112857978056 3.9406781544626597 -0.2667632658373212 -0.37028667774396873 -1.0108973420933236
Ni 9.513541582257737 8.757175075264096 12.752435411731089 -2.9243102578397573 2.04577073538627 -0.3065454308312656
Ni 1.8240670406288633 0.29095891252406403 4.60121608303634 -1.3242585102948419 -1.0336629179246133 -0.3059185958805441
Ni 9.005673406158788 3.5004619114406244 12.857820060434502 -0.6270558084830556 0.6809839259600787 0.5935319656939971
Ni 0.3384953222569848 9.286721842556117 2.086852989948511 0.11025044621783592 -0.6414845823138758 -0.9680409090494296
Ni 8.229202422237048 1.4021675962293232 0.4914937056045803 2.0792781231150963 -0.6401090421225879 -1.0008337872097344
Ni 9.306697444632112 4.0446267690997795 5.473697911240302 0.16578627450161126 -0.11572972416485229 2.6808435006365317
Ni 0.654834295833457 0.22570405169626992 7.293166881253056 -0.03324976319206532 -0.7108861128361499 1.1169664032399602
Ni 8.04085182588823 5.099946111586515 0.9769984127249935 -0.5047466313284726 -0.5892513360407723 0.8534206158986721
Ni 3.6479407689795718 5.235006956590662 8.28357748394336 -0.1950881087895221 0.11455987222646723 0.30286129711145904
Ni 2.64818489844247 0.5690441478576769 9.20635364371525 -0.6619307659833696 -0.2026147561838704 -0.15875430735549434
Ni 7.1655338304033425 6.761916204309298 2.801700622267794 0.27452234095744976 -0.5594612492625333 -1.386248321734077
Ni 2.365102080451227 1.001578529159704 2.5501608448634654 1.5104297762107082 0.7103376965318476 -0.8284066103528379
Ni 1.5001400998674865 4.982310987656036 1.3664407256223445 -0.7013933428543663 1.0678313362762062 -0.9757773584617389
Ni 7.0048637112169745 4.871174838410189 12.18224611875901 -0.7967007946091247 -0.20346167756519795 -0.0355491007492033
P 3.5564488293328833 2.0920715009240327 4.1091838646569006 0.4023192806994813 -1.4426909781028379 0.3308048175992625
Ni 4.400035995160651 3.6733659362302156 11.485640721754935 0.30482819102984277 1.6023130327752662 1.9319549404146792
P 7.488871628983675 0.6358602354652354 11.766969000688258 0.6580478859891957 -0.6710448124694959 -0.2017827472008783
Ni 8.653973934769175 5.077411423161614 9.544188022087877 0.807878408492499 0.22230529263426232 -0.19653461142806153
P 7.849877705764456 2.314076844364941 4.711209848771759 0.9665509547674643 0.22596988597004308 0.0904822624519732
P 1.8982161073210935 5.628194925010926 5.560800741638219 -1.8349580167726396 -1.6463010083204423 0.8907939143408079
P 5.503517710947666 3.8729470554051684 7.915185957602408 0.8058624065037346 -0.4643533151130906 2.3624545402031187
Ni 4.378458662779945 8.952567761745694 3.747394412882264 -1.983674737386474 1.0425450509055916 -0.06415827984546368
Ni 2.5286994998496524 5.51766632863928 3.5207256408645358 0.7728566410016754 0.9970982314267021 0.3293691135940005
Ni 1.1059395433235544 1.7278619635338295 12.111216744022334 0.780569693375217 -0.7761558805782376 0.794671937104554
Ni 6.912147460475306 1.44429126217391 9.430718317484306 0.1144670554023448 -0.2624720946611351 0.28494405051140603
Ni 5.9520482229996725 7.531566026416148 12.071969748883623 -0.26063838388650595 0.6257422318779546 1.7486018606738982
Ni 3.900121238505785 6.202783453113014 12.457242960315435 -0.20298473792877947 -1.429052561383797 -1.0034354864986397
Ni 8.06447274520943 6.0002013909533725 4.667193563570571 -1.2752201168099522 -0.8377188888926992 2.364183349968767
Ni 2.2030235432383036 8.769206463242588 11.455784100661255 1.6522446274983866 0.7624881532831578 -0.6355129381114732
Ni 6.611869055074865 2.8182444711392125 0.7936582865190169 -0.515004561611055 1.404835340707645 -0.4377614235571751
Ni 3.7242162707315045 6.29774580841991 1.2108841764605005 -1.4359184352656948 -0.9151983113271012 0.7284372343460359
Ni 4.2875558653142996 0.7152830452124598 11.058817337470394 0.6886401569537559 -0.30996962602146616 0.3968963099116971
Ni 6.403745374274787 8.389642407758945 4.310968743802818 2.432553868123365 0.08637312537960608 -0.9048285380570029
Ni 4.853592626444683 6.0330000408136355 10.374687026149907 -0.3192970740699791 0.14548124439567203 0.04979301226272716
Ni 5.174021535506115 8.580441626297723 6.1174627778127535 -0.5348830457025369 1.19594092216265 0.6510832817459045
Ni 4.763849702647966 1.7789240210064303 2.046474657715265 0.10715895177670577 -0.13265735315812635 0.24559923016519639
Ni 4.864979640162658 6.442278955053642 3.1750639562959555 -0.3961594317456726 0.14380797045830718 0.7678018521865874
Ni 7.05512490353722 0.981234713220557 2.4948542020833795 0.2108967936870045 -0.266054926916387 -0.03314486218308485
Ni 1.3215563762387756 4.0446267690997795 8.077252527864777 -1.7307674035956386 1.430750775021826 0.08189734899643959
Ni 3.0842789872665186 2.774196887759657 7.812872212517683 1.4228572312063623 -1.677364562494466 1.5683197065489571
Ni 5.990517366352476 0.6142331942130038 13.331085338743744 -0.9067116140123288 -0.3698508757581308 0.28271644673246793
Ni 7.335786715378239 6.672081227046793 10.528400664926675 1.5245793282382132 -1.3207720944081385 -0.2406588554407855
Ni 5.835867543828644 1.6206933186634451 4.435997602105389 -0.6282025204929891 0.20190744570420063 -0.41461635289927945
Ni 1.3598966447394758 6.5238659417815414 7.845652451684788 2.1926213493256435 -0.5634570006854877 0.0002046598116383572
Ni 3.8533764885786406 8.373183248076051 13.312855990913746 1.2558026315152888 0.5589421435342696 -0.2556509579742436
Ni 3.5673571650287608 7.946515434148694 7.631728482005408 -0.8590724148678108 -1.268327503455177 2.440178474548159
P 4.154336089625913 3.838178461377043 0.21954751590436877 0.35232263706638034 -0.00784700684824455 0.63708979568029
Ni 7.537761224663679 0.8049283923354412 6.227469431033381 -0.04269213955188777 0.06900660907670052 0.05450892968115773
P -0.06368258763213515 6.891647153644319 1.4912541788149714 1.1424303518390198 0.16192267778114694 -0.1056952227469857
Ni 4.45379521918084 2.553388239373992 9.657737813206687 2.4847696308949723 -0.5959377469220124 -2.1091191177359288
P 0.749673299496197 5.216356924422015 11.940137218924662 -1.347882320361369 0.28360244888184705 -0.12962833652381547
P 4.890607325038035 8.196514236535732 1.7657382825669579 0.8511711577428632 0.1949248437387804 -0.3555714830209811
P 6.766601725717907 9.014390869368912 7.9189583086304 0.8816099338486946 -1.2574391386774473 1.067944979035935
Ni 5.902523458405732 8.215992749896472 9.99456144452496 -0.7065897994536412 1.967671419979682 -2.2109929098542955
