# total energy = -381164.3580502627 ev
CRYSTAL
PRIMVEC
9.31326389488210 0.00000000000000 0.00000000000000
0.00000000000000 9.31326389488210 0.00000000000000
0.00000000000000 0.00000000000000 13.63090310930882
PRIMCOORD
 96 1
Ni 5.846205774174984 -0.04405546309658682 4.337530612774553 0.04434484466396234 -0.8513737606719723 2.4250333913766045
Ni 6.235267369570704 0.39053029709754905 0.6102469540995059 0.6765423452489574 0.02755656946202996 -0.9549534797378522
Ni 4.404763995499178 2.93677941498309 7.008178857937645 -1.9178241574402517 0.18390278159666393 -1.2204710460935302
Ni 4.949813446341527 3.5891176648430023 0.886098377351329 0.10140585134301246 -1.9882307321882724 1.3137902637736665
Ni 1.550453531497036 8.521627067037427 6.992653647177032 0.09904994951632619 1.561061482324647 0.3000963327718122
Ni 3.750684165307992 9.245183845203528 5.7566298715855035 0.5554680689427401 0.730473033829142 -0.1773330987989462
Ni 6.213725790392959 7.225602589391154 8.897994683868829 -0.9696920714996076 -0.9173955760887361 0.9454702228377653
Ni 2.3613128445581584 2.145114738621204 8.040923887140584 0.2549937840062189 -1.1167429743752444 -2.9493368617910822
Ni 3.77662160500104 3.166230295312578 9.470942016434885 -0.1617414150082763 0.4458884235396838 -0.2680966399367641
Ni 2.329936458803803 0.8133031134831886 9.8922601010144 -0.47253302271040554 0.4393737623496175 0.375853630308785
Ni 0.578217708552518 3.10286284839283 4.044438475569491 -0.9624700998298716 -0.5174249981270895 -0.42927935422809294
Ni 0.5223344004253492 1.978854353199196 11.494149857172383 2.3317224012265845 -1.5809304533344322 2.044484412474679
Ni 7.456040675683825 1.085600595267555 6.930319041213103 2.1981728752714917 0.9831741651464422 -2.9351482289955255
Ni 4.103209826802158 5.57267521626302 10.061446713923502 0.2774731960556576 0.21292025187493654 -0.7546390895523842
Ni 0.37705307304734803 7.1821003341645016 5.5755297316188255 -2.0929188538269825 -0.6966018350029938 -1.4901928803385434
Ni 5.86733756974537 3.117233214441797 10.525837712268324 1.9143580532685223 0.7154027697595808 -0.06416496471368305
Ni 0.24196604422877616 6.995583599969646 0.6268552974404799 0.5261546646906035 0.17668286680945702 -0.355601050707336
Ni 2.7703513908126167 2.9925379253752906 13.423631804969512 0.9683324721479193 -0.39989524463902093 -0.7891836602964731
Ni 6.904667518718826 8.106888803335158 2.4656260557904686 0.16553199239896008 1.5962755683319347 0.7854308781222602
Ni 8.727235992029678 0.34958360145860656 13.078688071537863 -0.8823478404559837 -1.126103846764854 0.9462628939423896
Ni 5.282548422253027 3.0131668047002824 4.5850268730499115 -0.6058938296934597 -0.31765876713560776 1.0940663587133352
Ni 5.228326600388422 7.494066731793955 0.9471980445348986 -1.0913332760528884 -1.1139610407547331 -0.6448650687503346
Ni -0.07069419155404649 8.02526735936034 3.1713656289738874 0.7738159195911511 -0.7396202475460488 0.04468885826694239
Ni 3.5270727013833665 5.20558361018001 5.423354726373394 0.7212952239846158 -0.056506419727160744 0.031674705395461585
P 5.512269387232819 5.541652734533202 2.1828800233448344 0.5565697866473511 -0.9345350639825002 -0.48963960048370514
Ni 6.368167644048189 2.7190818735737556 8.17581533741928 -0.7454849338569419 1.512550164987821 0.9909332402665708
P 5.737194021353754 4.937855215617695 5.331209294300498 0.30105638269223634 -0.24290111450774296 -0.06837874568471448
Ni 3.1986311400853302 6.933790094632708 12.961271098133878 -1.2557491525695341 -1.3013101290287845 -0.7666271151521958
P 6.568281743396312 4.950092844255636 9.328935232610231 0.34981118349843626 -0.646849446170215 0.08812996016971274
P 5.355312952350615 1.063248762138896 7.0077020188309005 -1.3704730611776914 -0.7803665762254753 -0.24259515323154993
P 7.077996671367772 7.4737079371192685 -0.0908527510569558 0.6224908148201924 1.115832032525201 -0.7908304518712768
Ni 7.589993348971117 6.168081484491477 1.5820431909924937 -0.8856388525024297 -1.4971759965245957 -0.23526519522903996
Ni 6.253968403288349 8.315561792118798 6.980385284768538 -1.0456020925643605 0.8409186267769194 -1.2694395055724332
Ni 6.760041845112599 0.6565199053077317 8.956716674803337 0.2998898731879609 -1.8268531282773182 2.756425963158537
Ni 4.121538329967659 3.893624138165766 11.684409592089908 -1.1440779147447715 1.224577097842104 0.9488393964203143
Ni 0.915706174309379 0.22463964824854402 1.6158754844118604 -1.6083656667272495 -0.026219852928477425 -0.24225705316584084
Ni 8.372531026805467 3.699545033762381 7.943572340601472 1.3116333653316636 0.9640901519317977 -0.8103656936907269
Ni 2.8799312527258674 8.096495200930333 1.3452115490986467 -0.453374961724716 -1.1465474593311866 1.0221086374281108
Ni 1.2051270229230586 3.352234799998235 9.405486535770368 1.1014752495828966 -0.28812604778381345 -2.7398114945303074
Ni 1.3831873135842383 8.700944648312092 12.975583721947261 1.2884034482694455 -0.5327927388324114 -0.7251608775876092
Ni 7.291167966568554 1.5820348090550704 11.98134531326672 -1.10781276176515 1.1949983557437225 -0.5819609730269462
Ni 6.99197936687765 3.9250564035029427 2.880905420119725 -0.11216206141825198 1.241792433279126 -0.21365070228305783
Ni 1.2825109318672367 6.0572629584923465 9.76884538572089 1.3482996104044458 -0.4341932465899425 0.802831590097211
Ni 8.241642417309562 6.443642333912627 9.404613882951969 -0.08240231365731614 -1.4802686792462958 0.26193627676232306
Ni 7.2090249798207315 2.9510939014492354 0.5924316117695844 0.009990278443492472 -1.9545230555231823 0.5209900897705285
Ni 0.740104585292352 4.286830135954092 11.12056783754464 -0.5935923866182874 1.206272385995645 4.076711861958876
Ni 7.632061361572013 2.9804399956944043 5.228500758421549 0.3773682671810985 0.7081016081124772 0.14194700599016843
Ni 4.727813177054926 9.406489574282016 2.457134221854339 -0.41098595523554377 -1.0063187215837055 -0.7975088923327168
Ni 1.4697820404301847 5.28821088664562 3.9521030529150005 1.3539622080068616 1.0888490761784537 0.4847308503281781
Ni 3.7186744776149916 9.126719129621636 8.1665197688169 0.48220576991347913 -0.03831175109600498 -0.5991819648909229
Ni 3.622421896204704 5.337673630706583 0.9914965838167598 0.34974227793371376 0.8958700433121345 0.04693574531959013
Ni 2.924010930308344 5.157424723051555 7.985309732337339 -0.029964664682890333 -0.8175665823145404 -0.037394381488058175
Ni 0.3171129072073276 2.313470608399024 0.47026859913127916 -0.7425510480395986 0.28517596401655404 -1.3190497124003928
Ni 2.4402427552937347 8.053114018133128 10.89635287412554 -2.7969522054073575 -0.8192303431702085 1.172411471582142
Ni 0.3866671552718125 7.979818631998732 9.015506652563612 0.45370920513568314 2.8680732897238994 -0.08520173077932423
Ni 2.534781696164159 0.7684578856160558 3.1682857326340343 0.38731689375337813 -1.0373843326402585 -0.05845274482025418
P 1.2584268316711067 0.5014885220537335 4.784651094721964 -0.9063673432990326 -0.9702998802869355 1.2148344166330434
Ni 4.0128432281157504 6.66148888754282 3.162600916408312 -0.8372285795198421 0.2695043189175681 0.3667814928041877
P 4.001704564606635 2.042743342891946 2.282426706162458 0.53117037273764 1.3471037903241316 -0.544224891928753
Ni 5.270208347713246 6.633875060365123 11.82587154998205 0.4527041609099365 -0.8332639384451391 1.1484827286806867
P 1.113484507095557 6.3026115801345926 12.006957720053022 0.6031579188195354 0.5695921670489481 0.4051557217070119
P 1.8765481503165633 6.095195881964442 1.8635757051645179 -0.6134718991510338 0.55034900254862 0.8602340392760798
P 8.53759000119681 0.2734327686420262 10.723213712058186 -0.059739324842161635 -0.33240044422115655 -0.7725601928071792
Ni 6.523233486378261 8.367585683725752 11.0312033460435 0.4166963753567598 1.8127927935295103 -0.26412171444941607
Ni 7.452017345720665 7.230305787611975 4.613870051049685 -1.6388748910597002 3.7798499769639613 2.0239670092476176
Ni 4.357843772456602 8.839516700445975 12.568728204728368 0.4585043125314813 0.8158197748267628 -0.4366864453254415
Ni 6.10701441373122 4.486404066001605 12.82299893309447 0.4761366809012639 0.50610494512858 -0.9181327113650769
Ni 0.13004482779529858 1.122704638261129 8.34197607091859 -0.2210361961138516 -0.3731496011140606 1.0791765860856963
Ni 6.378766138256695 1.7421950066857157 3.0589657107809045 0.5239627992456073 -0.8219765384567779 -1.9556990781091546
Ni 5.347312858743316 4.994861703359579 7.4946525360872025 0.3146030110284194 0.8831320269201759 0.29917870605354924
Ni 4.33189701949975 8.010394077065978 10.101071857428714 1.7714749086173296 -0.32057876899588017 -0.7663517500036221
Ni 5.228149648376153 7.00870598866893 5.231826524925817 -1.0490553412202834 0.06707982436763286 0.17242589130531596
Ni 2.6597563831447735 2.1527050486211445 5.2216443336093326 1.5635120007476686 -0.22430303979058147 -0.712378124000644
Ni 3.602705716732466 3.92574558502441 3.2705714463362994 -0.4360912349436038 0.7058421226543392 -0.27613519397052444
Ni 7.5408938221984965 6.238899542454111 7.004716186455464 -0.32730528908643636 0.8100520191050501 0.551102849995509
Ni 0.16242984001958433 4.744660871275653 2.121296066443477 -0.13565808765766313 -1.1136424810730499 -1.6014455425686485
Ni 7.849554011177669 4.8774680131151005 11.120935711464881 -0.9668875121712767 -0.13313480701517716 0.26344217188388824
Ni 4.800335562293621 1.0788857320651537 10.172634045169257 -0.7501468581089855 -0.5267871560682799 0.48917757324562205
Ni 2.842845836259901 0.8543066200313331 0.44659987050079003 1.1349024188930907 0.3751494051529088 1.2510106094432842
Ni 1.8021072327343253 3.935282367159304 6.196199159240949 -1.421958630651493 1.6682757128193204 0.7919910478382811
Ni 8.458417945602339 7.3517321210834154 11.84002026035249 0.9962484818318972 -0.1837346314499158 0.15202573038240913
Ni 0.5305421798154688 2.0584361924010257 6.206177390080136 -1.3836484222173848 -1.0968840306677885 0.24186933080911896
Ni 8.544360743982033 4.495102654394175 13.370402777026372 0.20581963627441327 0.900028031344566 -0.4988163818869668
Ni 8.45132123858399 2.6759055825802296 10.048742490769001 -3.0840526401401336 0.004106823079521959 -1.2043198902549648
Ni 8.158549477653771 0.6107498703449007 4.261484088512573 1.1027227488367526 0.28535645545847627 0.044148669492756226
Ni 2.527563916716363 7.371737011733566 5.170610441944703 1.2062955259240968 -0.468516959572477 -0.9162511780716479
Ni 8.34166687056031 5.613308986238161 3.8641700100604757 1.7151808620112914 -2.73031101123904 0.34605377333853304
Ni 5.022261325469794 1.898788224279579 12.52118399301095 -0.3917011388640028 0.10986118119921726 0.8212165203623019
P 4.168849710089987 6.8804716593570525 7.989563099916447 -0.15981360185794413 1.3343883996399921 0.5773407006461153
Ni 1.7918160762313387 2.8381798910942937 2.0255519892368663 0.948241100714683 0.19569334647368877 0.4564011501455494
P 8.398272887958639 8.50206921304985 6.741230914882071 1.0619442813678097 -0.5607396017543246 0.3422850503247202
Ni 0.8849118675427494 6.060271142700912 7.512113043066207 -0.8876301719008456 -0.625677182967974 -0.37893586877853447
P 8.513934311135646 2.090324807664579 2.335573777384127 0.019868971009785137 0.3484384715206257 0.8159807258846591
P 8.744325831109299 4.872001127262383 6.0603810392137945 2.175386987725228 -1.4394331332871726 -1.415280447300369
P 2.8201959786895268 1.2521217520760644 11.975075624074131 0.17065028746213193 -0.2963859737997605 -0.6570891216203523
Ni 1.5909382892513197 4.756041679643661 -0.08930954324469798 -1.2391583380903886 1.7268050765137808 0.08839966889133163
