# total energy = -340893.0277930083 ev
CRYSTAL
PRIMVEC
9.06659156006280 0.00000000000000 0.00000000000000
0.00000000000000 9.06659156006280 0.00000000000000
0.00000000000000 0.00000000000000 13.26987321327510
PRIMCOORD
 96 1
Ni 6.389861728225921 1.7880859861451701 11.365168349028083 1.6296238047750773 1.5303421988639192 0.8012837859941168
Ni 4.5462338022321305 0.5098570559590593 6.095529340031065 1.2796475564536864 -2.0529335716832966 1.4823533296894664
Ni 3.008458275659391 1.5210476651589788 4.969049765972006 -2.2190929132536104 0.7492958229625999 -1.5075912783206489
Ni 3.403698201193327 4.546832197274575 4.965042332505946 0.3516814039379556 -0.21469894104191412 -1.1858809668234869
Ni 4.8845989989592775 4.6886880886998945 2.476954732369515 0.21411375796240545 -0.3259338626602064 0.4220650958678409
Ni 7.144129612634411 5.995736993452902 2.7219693958163194 0.9511395053084006 1.0999302736932801 -1.8428057949518328
Ni 5.042520890615052 4.526967295183761 11.392133298963406 0.16107369951729036 0.6362161348260849 -0.07190012857441165
Ni 5.727275217593019 7.884289880587716 12.399542232826914 0.023976051199623226 -0.3400067958135048 0.41455876018846666
Ni 1.809292743785706 6.489585168708287 0.4479766619563141 -0.05903227147280801 -0.413219729662069 -1.1277642651864126
Ni 2.8567288660337526 1.4953348115170122 0.3994713038113365 0.5358860330457546 -0.5578229423281619 0.6480246974252388
Ni 0.4988610937245822 9.094607320070576 4.807927367498316 0.2013834548799306 0.22311287613722222 0.06389062800637384
Ni 8.832047895311158 2.3312745526274883 1.4550419719999943 -0.4548510320496102 -1.1734720516361727 0.6741342500280971
Ni 6.7416998799996 1.0059836656715058 5.103819209440147 0.6317010205645508 -0.8333107325226746 -0.6711980502179086
Ni 0.9238766125750149 7.57749455564524 2.3953182353745817 -1.4291770027768032 -0.8026197311967208 1.2789003938750167
Ni 7.601947153061455 3.9839781937155907 3.659512988497082 1.0288580403368024 -1.7145013194457634 0.7997503800687258
Ni 7.7038375089247895 3.713494567939573 12.84067271150218 -0.015082091144103056 -0.07845361342221327 -0.8100327358313405
Ni 7.586388881957923 8.901887850037557 7.336302367196832 -0.31143284083055395 -0.39672276044831034 -1.4830251589455103
Ni 6.925225826198713 0.6077517649253514 0.4022429608488362 0.47814856912497 0.49595782939224914 -0.6485368611749669
Ni 1.8109247302650973 6.3534593631439416 9.246686700130129 -0.2988732589979885 0.9057255959499757 -0.7132268451541846
Ni 0.27931720592530107 4.542416767188666 1.4336239627762928 -0.45755814656812815 2.6943759879053277 0.6602587775975856
Ni 6.0383137073819135 2.242159024261166 7.108259456476543 1.1724793487056 -0.314591955284826 0.991717683841079
Ni 3.3209383535050803 4.440281613353421 0.254448451956842 0.24268025674618846 -0.27476299621334616 1.066533443400389
Ni 6.045648579947621 5.55723129303199 4.691868649016397 -1.075505307881696 -0.05839875165386717 1.342082168739824
Ni 5.17682431127741 2.8365738330132695 9.440811491853731 0.3097590526725568 0.5683762923639759 0.19811841097541363
P 0.20547072439199612 5.334682736792318 12.400670116816002 0.5370306881731589 -0.3544759359639572 0.32699212872139166
P 3.960595454102533 6.304672034001691 12.583953078361517 0.3323055705145051 -1.1178356932187907 -0.42115363979716497
P 2.4976465076098875 8.460435507362188 1.3358779459114563 0.6526809652503276 1.3202583879965133 0.01733823416813143
P 6.25237593392875 7.984530116788556 5.867208084950123 -0.40478985372716086 -0.33253337025459506 0.3568326091215919
P 4.874943078956212 1.0178699671964064 12.658570220176758 -0.582374663525597 0.08230949683319373 0.9823285293166953
P 3.8837470241063032 6.289548959292665 8.297545123535825 0.3765498850448612 -0.6757779562791071 -0.09012333645065769
P 5.009010768238214 1.021605402915902 3.7203679509952763 -1.2407560215948115 -0.041103712018845336 0.31450428066702607
P 0.31468144627455713 5.871733220793813 3.5671543403325474 -0.18488494300427516 -1.0539612631623332 -0.8064997829774175
Ni 1.4105168475464211 0.8035720092692132 2.707571648431467 0.3862807391793799 1.7565231724035038 -0.42838409610733325
Ni 1.9936256166329627 6.574149268115417 4.940917945703919 -0.7005708469530708 0.5471852601086576 -0.6630260559300775
Ni 5.986480003478132 5.2354488922537685 9.056436062976767 -0.9411494839752244 0.8807200750445736 0.5724828583331818
Ni 8.847098437287768 2.340359277362767 10.111683053847011 -1.0034550268826652 -0.4219658512858152 0.20970817269554204
Ni 2.3135674993260915 5.233109711633308 6.99804052961338 -0.6847842735427755 0.4437587787911906 0.24712466567078728
Ni 0.5729079469311903 9.167865379812143 8.909313388518788 -0.2874300501580534 0.5062214161017863 0.3645011814104432
Ni 1.6478983475654503 1.0923882831637273 11.503255258345165 -0.6011668565314356 0.35843389217044075 -0.22624756511146193
Ni 4.055758399034155 6.908008368841134 1.4955678229199032 0.9305879064092941 0.6109956696963993 -0.09310555900743321
Ni 5.497654719942652 7.873409970725107 8.554251156789157 0.26588934787280016 -0.4358271826489397 -1.0002187793335549
Ni 5.062866322058131 2.840835131042791 5.084590782076295 0.39832584326937204 0.5465147164041942 -1.1287094027085012
Ni 0.47336946491648885 7.745960893276192 6.843459676944584 1.0309300923744826 -0.9833106907243067 0.0040844544820187725
Ni 4.821568054488562 4.561882739251184 6.951396542714064 0.880531098962219 0.35976289539450945 0.49058216690263257
Ni 8.291597439477597 7.22097804263064 8.98511100055412 -0.2929854327586438 -0.60859348801281 1.0903899383030125
Ni 4.672848753258246 0.2637870412555816 10.633468117652113 -0.44682610486260466 -0.20719620490696575 -0.976511408414286
Ni 8.018729300123358 7.1655993014299595 4.852394465765955 0.5184161583957653 0.5072416298361845 -0.32766627197028086
Ni 7.025502328765761 6.28369194114996 7.0384865945276305 0.04796470080473675 -0.7799374591078567 -0.44721974075659754
Ni 2.5718112265066737 5.4145956747331825 2.5439804170781195 -2.1736823463292954 -1.084492856092287 0.6712600138040955
Ni 2.276911269680651 5.102859057394771 11.514653777244558 -0.22086598908457447 -0.1929263252515129 -0.7920432412324552
Ni 1.3049273223297986 3.3148637371651235 3.8716975239334634 -0.7307360576825415 -0.1413281414592469 -1.0426075287124108
Ni 3.7342570625940525 2.5487276844148377 2.71798825546576 -0.11819258388304807 0.12248144106638904 -0.10732684481313774
Ni 0.9663626605885038 3.490003086178475 7.983659723999547 0.4894578234902022 -0.43064692399958093 0.34092802207619344
Ni 3.525045462527629 2.571076832590948 7.4267896708649985 -0.08287719641120565 0.9192300581943136 -1.246159709108886
Ni 4.141863819005155 6.821295487236138 6.129195407782598 0.7930079191385697 1.0953449683154426 0.08616332336164516
Ni 0.9960466813303226 7.21897432589761 11.4113608196681 -1.0868464439261283 -0.3326357001604142 0.17363199579827515
P 0.06946459783613905 5.691978976680405 7.651807059984327 0.858293370609941 -0.3617902102371834 0.8242339670323868
P 8.334074420899533 1.7222534648848322 7.966953622405511 1.1539357813754578 0.24939777797568016 0.12956560160668007
P 1.7268864931679933 3.201195878875513 10.276574434428941 0.8391005997315742 0.37619610124986824 0.5663451208665601
P 4.094799142257818 6.337928291815067 3.791362082826267 0.14701130788695327 -0.07809031654552358 0.11474627720566047
P 7.108343775777978 3.8858958063041684 10.49815467869084 -1.3421029946754306 -1.0419572967229218 -0.23291957781499886
P 6.642910298447108 7.822872789413288 10.376377660916965 -0.500186779871932 0.9235610814694997 -0.08636849739391578
P 2.46438118320496 8.469465832548153 6.017064336761082 -0.4138504212675324 0.41023287911960316 -1.1680236269270916
P 6.744501456789221 4.02842262550435 1.5765669385287184 0.8743771635456813 -0.2108703113244433 -0.15507171629758454
Ni 5.208167518273277 3.099577520758743 0.11887661513633407 0.8272961508974785 -0.8915647310685614 0.8987908165033552
Ni 1.5320726404864227 1.1506230007033431 6.9656619178622545 -0.4669591281670538 0.312544585837494 -0.26068697773625427
Ni 6.839909199692752 0.8145153852726877 9.277857641886502 -0.3200869169611261 0.047153774867667184 0.5814644930065018
Ni 2.7857827871379883 1.5000041061663822 9.316737906439691 -0.6778883177538905 0.19401133078557553 0.986040945171276
Ni 6.558536597462573 2.0548160430185876 2.5469261526734206 -0.7264729115308134 0.10750296537968583 -0.22122568641683837
Ni 4.141455822385307 6.925706355550978 10.44202341039133 -0.1256850356053513 -0.4232316053721163 -0.01631776332341706
Ni 8.129858512778359 6.9003108326133376 0.040661849793191554 -0.13649292485413267 0.6273635695314614 0.6508277140916727
Ni 7.666084221701536 3.808022851462543 8.154483375434063 0.11482186763860226 0.4496849144676384 0.006173218690247433
Ni 3.18075071492536 8.322369451205676 12.432278974944348 -0.1663326339233845 0.4045049754968904 0.06975042922126051
Ni 0.014229108781982436 4.837978585197997 10.149250475943447 0.5093697319227808 0.09879849562715243 -0.12945093040568673
Ni 8.607976151690721 2.509786673698249 5.905186223643871 0.35591343974143225 -0.08472787646669924 0.014575326711013609
Ni 3.657644363978179 2.6301910095111243 11.482567109741414 -0.6837882281780934 -0.0639775312932253 -0.06454137421649529
Ni 1.3027694735403812 3.121219474793783 12.847307643200061 -0.9520165085967152 0.7566160107730969 -1.242642439984247
Ni 3.1499877697888325 8.53708447234427 8.153169626318153 -0.3071442407575291 -1.2488074311443782 -0.2878000319029624
Ni 5.79887409108054 7.945407774240923 3.6634143428419828 -0.205721163023336 0.12279331587985301 -0.13676674734080962
Ni 3.2600289914575726 8.44889373631627 3.6165183046975162 0.2611572325044535 -0.14716223164252076 0.04561651228753434
Ni 3.283756261549613 4.409564001174655 9.264348420473763 0.6485918827826185 -0.7103734348657894 -0.026220624259425812
Ni 7.132134512010883 5.966805499809914 11.18303956458716 0.5034862765588103 -0.27182756773410605 1.190346715904324
Ni 0.6132007864482083 -0.30744449289761155 0.05295252130131911 0.565371186989065 -0.1751224643008726 1.1434611070963792
Ni 4.79683439273423 0.2259875144154115 1.574735487035179 -0.21523578738199062 0.12782625031807018 0.0743871566623235
Ni 5.942688366281129 5.67060902039193 0.37101489956568207 -0.03306438665413661 0.26575487917746493 -0.5121089852308148
Ni 8.3499862890736 9.009635224043597 11.166638100469276 -0.16344245685978304 -0.11952801486501995 -0.0450297865461289
Ni -0.047608672240467546 4.8811446275779 5.455882212684319 0.5031319785431851 0.6128329800154543 1.3089622462574038
Ni 8.04458721923016 9.127972376982576 2.473543880627587 0.45674670641042625 -0.8297862643091838 0.6344924672667589
P 8.450833986908435 1.7608227453477818 3.8053754067293077 0.6721881820453198 -0.06543226146188086 -0.5874675046674722
P 1.9442761588144777 3.197124979268587 1.6365868679449576 0.8622862938194182 -0.38299795466305003 0.7718562247616191
P 4.767957298640555 0.9682938445891169 8.429739655003146 0.1570992882505746 0.01420637340736908 -0.6253115720984391
P 8.77155559647505 1.4827322492594899 12.696494865980348 -0.7601129681827619 0.9284721456178721 -0.7472769927603582
P 6.5696069057477775 7.717790993323587 1.4974119676416155 -0.5738350014857021 0.05313596059303107 -0.8458749423409303
P 1.9102492407191674 3.2472178975943504 5.921827045778732 -0.1016033120657992 -0.5282357155893483 0.9540178552974603
P 6.940457700006366 4.0474352679892585 6.083745490990703 -1.4118181997833814 0.6180906288699678 -0.9428461549513569
P 2.1420275871589527 8.508796706701487 10.189975791877503 1.2265313933549973 -0.27951388063477023 0.1347378898362389
