# total energy = -381164.3518351826 ev
CRYSTAL
PRIMVEC
9.25753005327501 0.00000000000000 0.00000000000000

0.00000000000000 9.25753005327501 0.00000000000000

0.00000000000000 0.00000000000000 13.54933099844389

PRIMCOORD
 96 1
Ni 2.8386548781455803 7.970436918283948 10.998533257525995 -0.09655058013324018 1.1731588912711282 -0.27472802921035266
Ni 6.82512310381078 7.002460344691564 3.2814989994912316 -1.8987452864319299 0.8516331849809462 -0.44645997977243757
Ni 4.3182858663464465 7.044776513414996 2.0533062237156345 0.4015692899073342 -1.0614912529907912 0.5371836688112555
Ni 7.687823048498576 8.535683172914297 4.644060191573163 2.3353404575951453 0.7697654036708614 1.1947255616983101
Ni 3.658436914672836 4.706629983996687 3.4809182262079386 2.819743235159944 0.9219425720294703 0.6512452612450655
Ni -0.07961845930627999 7.908318893314744 6.728638350958837 0.8848222701384051 -0.5879608993641229 -1.03602807572268
Ni 4.416184243999103 4.66887777746548 8.668834224051713 -0.9228262601860041 -0.9754415723888751 1.306179541305944
Ni 0.2814353862416197 5.880734716153049 8.309303242156187 -0.5375621351965968 -0.9993808568132917 -1.7975404953561298
Ni 6.289778670439825 6.9160227889333745 5.8065791251827354 1.7207596416506494 -0.15586875827758317 -1.9275290434328418
Ni 1.5537930594420422 6.101573089571881 6.07152314783566 -1.6410693276078576 0.5461377926807498 -2.561154791823931
Ni 5.447852622626975 4.220730017296451 1.7912348125601674 0.24665595356448486 0.6817444582751871 -0.19679275018545464
Ni 6.28775127141326 9.257529801669689 6.44216501699915 -0.40168241844643077 -0.4591769131184737 -0.6408652035623221
Ni 5.346575246596709 2.5793607259306137 9.157707709324246 -0.5350229137145108 0.07192198295128259 -1.029470991330453
Ni 4.497881944498839 1.619327112908062 2.069348597108948 -0.3659176021419956 2.6693390995413577 0.620208446543919
Ni 9.33205291657313 4.505621239413034 10.104196630493973 -0.14712443642604983 -1.0571162638515472 0.03339220230720055
Ni 6.3765124671516675 6.720920348363185 0.6647684030102177 -0.014376580436646207 1.0485316075063298 2.316299896023927
Ni 7.849820562497994 5.320718965860645 2.371593984591741 1.5945297892854216 -0.2520023054780628 -1.4406410375523448
Ni 0.5203296457856267 9.093310480517871 8.935783427659679 1.4637822515554983 -1.485577493053719 0.0013801681769782682
Ni 6.350924654779853 6.042371186490202 12.163030525254184 -1.9870495673959778 -0.7300413456083621 -2.230111375851301
Ni 2.730443612293863 7.465086881470404 13.671545932189241 2.0627628990688924 -2.3234843295875085 -2.4759098665114974
Ni 1.2228641416217558 6.463875775890025 11.971985659996067 -2.7777095551276614 2.618229425349736 -0.23127510023304043
Ni 5.043307827823812 8.424546527645251 12.560080423929916 0.6694245032572536 -1.2186327073332108 0.019065244161567164
Ni 0.7018151857705394 1.9771676698618021 5.124871294141422 -0.712079876033935 1.4189023603236723 0.43863482730106396
Ni 6.817254203479361 5.000139966358626 8.319614278849286 0.7776730885537123 -1.5894606022926303 -0.8245910932614896
P 3.1322111481565256 5.139854606125425 7.017659357119945 0.3517227986988523 -1.0883094016249 -0.1581251584119277
Ni 7.792062834065377 2.8530595945169783 9.183750066409322 0.15323697708169093 0.13579024236015325 -0.12438637139858578
P 8.862168476429781 0.6194203932767387 6.217584750034484 -0.7446189863122208 0.19922578510697947 -0.02435786001907418
Ni 4.082496582297919 1.0546825977148226 5.3835961082735855 0.4489151261811494 -0.30392239138612176 0.26169099352073644
P 8.263845067818067 5.176181153067176 6.570720630343016 -0.11421251618937749 2.1308719360319883 1.3179652210869623
P 5.024403951968802 0.8809335753851653 7.9935631534814995 -0.7799644556910503 -1.4944120606262135 -0.4656272967295078
P 1.6811488969236121 8.437071965466911 1.4588561655729395 -1.6962783686798333 1.0021000555166677 2.510520257496515
Ni 7.730852047016738 0.5256323588560231 8.073585241087132 -0.1086494202793032 0.7708915468555047 1.2964990807933865
Ni 6.466264218578855 2.342608658782713 6.8288899926870785 -0.3971264236446322 0.850591116869677 0.14020585492934565
Ni 6.120680631082526 0.47661373855618205 3.5280288696156554 -0.9290933241416386 -0.4844886524103849 -0.6058038410828147
Ni 5.8110995769848905 6.5828720639606875 9.597018231544599 -0.5140303706232437 0.6291317171754779 1.1002712019724663
Ni 8.802050077897738 2.4099479305600586 0.3084942200989201 0.6477277350101103 -1.1758228112565363 1.6431719757731573
Ni 2.3303702043849057 5.833299133449294 9.886513223231553 0.855945696313371 0.9850562126605036 0.10661619189935831
Ni 1.8812041159376942 2.5926175086066046 12.76296844706331 -1.059315585495711 -0.372810472607087 -0.23203434699656814
Ni 2.0556067198713492 6.542407401197589 3.1452059427391292 0.012749072135552236 0.1487750846555954 0.05746955497137844
Ni 6.327540134500836 2.0116612259028233 11.108879309749979 1.3474799427166277 0.4159003618180257 0.7269539649322899
Ni 3.884329899363378 3.0540035363920204 11.300711065041238 -0.3042998293301985 -0.41028532962409336 -0.21226153524501506
Ni 8.276962987547034 6.031178832959983 11.136492669642397 -0.5459588439007242 0.7331228127471633 0.3333813200771871
Ni 2.565159675214852 5.19255772328633 1.3559494642975791 -1.4397516929688559 0.46347476916287916 -0.38449690780607976
Ni 1.752922525475957 3.9087790355695877 8.884431909849816 2.028776771931435 -1.516875274725736 -2.0622497068779
Ni 1.5441744859781075 0.5323190726317691 10.988995224571335 0.36481639865801685 1.4298627159899182 0.7460287221755539
Ni 1.1688094251098067 4.37064645490469 4.200332901884432 -0.49737707833727884 1.0472239444384996 0.6700140572121364
Ni 7.764864211508072 8.873823706450084 1.5148420028015168 -0.40030610692419444 -0.32086827521184097 -1.542930319941575
Ni 2.2601333257796377 0.9902501902952017 4.137043799395317 0.3122951888308493 0.8170809009273734 -0.36391291300714096
Ni 7.686980613286624 8.208623902551107 10.015055876033697 0.44651397293882455 -0.840511621146488 0.4753710063798329
Ni 8.21734449562428 3.5596590716890204 5.381997332876837 0.027810851564681136 -1.0511446196491445 -1.1312311406890905
Ni 7.528213977187989 7.983989941913593 12.364224420433873 0.6426220383524287 1.3689522536577907 1.1149665992011122
Ni 5.382263023982146 4.559620410746174 5.920854073054545 -0.5570981483469953 -0.28343121341130545 0.8542940196425609
Ni 8.974406767745224 3.1405429249780283 2.758209721428011 0.2412700066622232 1.6482123664105421 -0.29789778245859666
Ni 9.331034588294946 7.763142310964961 2.8325828643486646 -1.7388506948244051 0.004129705897657404 -1.2617357091702721
Ni 5.475134562952496 9.114862009896157 1.2292925703160353 0.559948473311597 -1.3479753942958075 -0.07014380800493726
Ni 7.67426076733913 4.881560267129038 13.510159415156732 3.291016160211003 -0.12829650508626939 1.3827801606798185
P 0.5880031143888123 4.343271939281153 0.11843528176468099 0.5652459742651104 0.8667348165090749 -0.18797000968750208
Ni 8.576407046511841 0.997415518361694 10.527924878552158 -0.6457353871704298 1.1053601864595994 1.0369611290599108
P 4.793595218953572 8.070538588029404 4.084174972450962 0.5914354881762847 -0.6523773179669797 -0.9060356709912267
Ni 5.940547616201638 3.767435070557695 12.952238643858447 -1.4839929221754184 1.0264933967593677 -0.9981331004491196
P 2.3769540943469076 3.3951435095835483 2.867106044485052 -1.1877902680310575 -2.900014618517186 -1.8337256870274352
P 1.4166149828409007 2.7513193419966284 10.642281292686222 -0.2928082837508312 -0.5476747981505664 0.046531825012952124
P 0.4911628723924862 7.070919777574911 10.002901665157085 0.5424968534940529 1.7952699541543984 0.2881617861177553
Ni 2.017558272386487 7.324289110716809 7.729947586355114 0.827451188418104 0.4837911121227281 1.8672757550687389
Ni 8.583766782704169 3.2329515874582953 11.811411954080148 -0.4008653218617741 -0.1790570234685884 -0.8096894935593087
Ni 5.0532967024798126 2.803828051031698 4.43873373509001 -0.5248436591886638 -0.6923633714416141 -0.5566088674154027
Ni 0.5520496458980677 1.9726499953185872 7.712576757435261 -0.20335703366653363 0.2828920530783838 0.18620160493316962
Ni 8.695486652350718 0.9987023150041261 3.043057433154526 0.8608755295148207 -1.7901092358890653 0.8681910893396273
Ni 4.889799468652525 6.372041080257461 7.306300804559185 -0.8105407858160106 0.815846257189324 1.6803586121257834
Ni 6.500730002030473 4.418119067727653 3.922896768517134 0.5891505487968499 1.1732277968358504 -0.18925093328245468
Ni 3.2960046229374678 9.107298608048193 2.619139405735408 0.4524941017816594 -1.3983373916881272 -0.11452979031948017
Ni 3.3946436029742584 2.8847481190280937 6.603632074540931 0.21765159591233482 0.3919317668175702 0.9516593823676127
Ni 3.3191947350906505 0.46438176442923595 0.0834862552574176 -1.3707294001628716 1.0079842822115865 0.42815758191882386
Ni 5.561683209068306 -0.04002307859155857 10.179963957402759 -0.3971598479857289 -0.04805288964316886 -1.0501166926052623
Ni 1.2835194768822955 8.199681128762695 4.5255036361680805 0.7029177499186926 0.5482697514220881 2.676155351132243
Ni 3.5954671969618786 6.352591010144154 5.007033123048949 0.44781109448369333 -0.3114300126170766 -0.1660852937992688
Ni 2.82357436209866 1.669206683479458 8.999627981936895 0.3057417039830476 -0.37218312343573323 -0.10337197393044777
Ni 3.84991040356077 8.119622011037855 8.745645800322126 1.071716273152909 1.0624587591103833 0.15410163907483138
Ni 8.791681644519869 6.322828051831785 4.701861430395848 -0.5074367765661262 -0.904252610948875 0.17523893527407886
Ni 0.4176877098625942 6.725539855734219 0.7040406959348608 -0.7369997792040662 -1.4527069675779434 -0.22040036230206558
Ni 4.277636052987315 6.414023977908034 11.441691209131925 -0.005138863888462118 -1.765522547688637 0.25407769994985274
Ni 3.5178983547536884 3.2616221572540662 0.6745665725523048 0.7135801147285453 -0.6235233698497649 -0.4371921813172664
Ni 7.528723141327081 7.223058022335552 8.014591632425992 -1.563760883533681 -0.0418462466118247 -0.5811400197875476
Ni 4.230450423588204 8.22515785077689 6.086318531964689 -1.1969721916406417 0.2935312779597848 1.935360880772435
Ni 6.9119217032312354 2.1882300918100692 1.5885911882135384 -0.7077048868946909 -0.29442525052896384 0.2613348957328983
Ni 0.500909199767684 9.010890692693604 13.397401776419416 -0.5380537301210346 1.1974452746223183 -1.1732830755538182
Ni 2.5687145666586937 4.989104990835035 12.352016515884412 2.190263647726744 -2.8437779075116443 1.3616978860882225
Ni 1.1882502376933128 3.949993558246621 6.553757132734436 -0.756574101791568 -0.6828909131748045 0.3623414547549631
P 7.140906702875534 2.2672616237269234 3.8780079322618177 0.17766117156232628 1.5879325956838783 0.1898659411586343
Ni 1.6934984416790395 1.7296490955545596 1.7451674927610985 -0.19394499632401438 -0.846088086793001 -0.3072882225345611
P 5.697694836914437 4.207834278282726 10.589601319349821 0.4714850410618654 1.37340129056808 0.4513365911384485
Ni 5.248195477394366 1.7550795299197464 13.157307741013113 0.06583155378282857 -2.079779745341863 1.1153093272525114
P 4.426015740648476 5.618931773361831 0.27576514923809703 0.44496719727699496 -0.3085136103012299 -0.7930809384683503
P 7.544590547407143 0.9122499471982535 12.72891832669979 0.2133434554552842 0.25015599629794333 0.10377872245056322
P 4.035866404686909 0.7277362692152146 11.56031627025754 -1.048714412941097 0.6896518860477219 -0.789681168758182
Ni 2.0779081091635714 0.2094969736588049 6.975195067919686 0.27574310073842834 0.9456376016535649 -0.9827375918296558
