# total energy = -340866.8242830181 ev
CRYSTAL
PRIMVEC
9.31734576945933 0.00000000000000 0.00000000000000
0.00000000000000 9.31734576945933 0.00000000000000
0.00000000000000 0.00000000000000 13.63687734534810
PRIMCOORD
 96 1
Ni 6.007889842648393 5.060101468043709 10.048755664436525 -0.2858655338844109 1.074686925745459 -0.4308718955261934
Ni 4.827521880272191 1.6262588666464435 3.049832849766418 -0.3154447902034245 -0.02968595710020694 0.7281852662362297
Ni 7.436611659365186 3.3729164767102233 10.561993276437372 -0.10077207441375548 1.0705543916343239 -0.9094436682315111
Ni 3.636438970137907 2.5534372721721037 13.386749797066692 0.2679953384722094 0.6967933821885096 -0.3389636992609711
Ni 3.2311716938896122 1.2804362570908123 10.049819705335633 0.4253566221349191 0.6525094726694698 -1.7749045031241693
Ni 6.134326226193762 7.059780922732252 7.976427932213599 -0.3306783193237273 -0.6146792891955737 1.1524815654274345
Ni 9.388250878714013 6.289404130963779 13.283532239445794 0.26287781473998595 -0.22066672858957478 0.41335574101930106
Ni 8.069511012724528 3.540237373962083 8.269375535654152 0.22200473067470797 0.8002615153771895 1.1836901298197549
Ni 1.4551644443145637 5.821337943507245 10.67164725658982 0.2552166986503024 0.3689545891961065 0.2461471322488664
Ni 8.32784374449895 6.409532671350694 10.113680793973804 -0.2923223452533481 -0.15010228810745116 0.16728882718906674
Ni 8.489630138300113 1.4756532878971917 10.925211370744602 2.1915281162614644 -0.9675796531422948 0.33284858750216867
Ni 7.204563160308633 3.898657035142868 6.164877803323112 0.5095157705823419 -0.9079691405685136 -1.120530723552451
Ni 1.049217001817277 7.030449917912737 4.0409617904506625 0.8359725956255538 0.43931334142532724 0.73314029624866
Ni 8.184487060841688 0.1601698342915744 12.88781710619018 -0.585307778011992 -0.7102333097434994 0.24317905075947796
Ni 4.460707290456596 7.296599902877621 0.7984173441840812 -1.5712978153406745 1.5714813921063902 1.115740244142343
Ni 2.1535181524569724 4.876382042049046 13.210152550260096 -0.45096223851816525 0.2659721373945936 -0.8628971879305397
Ni 8.076154280334539 7.147708715769663 3.9454627221539336 -1.6368951416255098 0.5004518606078607 1.6506420588979571
Ni 5.778096141293977 8.878498885805604 12.862071416063978 1.505745997581794 0.20359974580495904 0.5280626803465938
Ni 3.4813703827137674 5.560303181428612 2.9729479750619463 -0.08234909182187754 0.8586787789738181 0.6874271104822612
Ni 3.673466102651488 0.17417473687868154 12.739584655435696 -1.5439477054624957 0.006754545115014173 -0.36874684406067465
Ni 6.452467001150035 0.9340639241284624 7.009641489366541 1.5428477875300977 0.5258996112570039 1.47182337669242
Ni 8.510538262447188 3.074416666861809 3.0573472892158904 -0.3572658400042686 -1.3287142320733503 1.4171812638675079
Ni 5.640572116155462 6.729779166475076 4.6829176040020535 0.21245513931305993 -1.3328416239781626 1.058039289886449
Ni 1.352263676453469 7.488704940161218 9.070391487603215 -1.718501698854408 0.39171836525518344 1.0151759148640194
P 5.002138259345423 1.1483069752148451 5.3313098400849945 -2.406549987860436 -0.3093453621739059 0.02573545709289116
P 1.025262105568556 0.3684945072771451 9.708952060317174 0.5139285549380568 -0.5943578040294022 0.6822388814131024
P 7.103488592239351 7.59661844010392 6.127390393923227 1.018622478651723 1.2518868414006505 -0.876506036963226
P 0.08344894487453115 4.53109052120838 11.7292824804066 -0.2434384750684517 0.29836546612363457 0.21404716639052815
P 2.588349367171698 2.612416071570938 7.833676876038315 1.1718329733708528 -0.34823998235657444 0.6885810215810464
P 2.202881450911163 7.905609581409378 13.49643172925677 0.11871811736921488 0.7049034128901538 -1.2870402493733317
P 4.618459273493195 2.0381228237753666 11.482932787164065 -0.03326956068640722 -0.7047617451059669 0.6947881788330228
P 7.466594878396062 7.406656392371938 13.430592568089 -0.4516870324993318 -0.5176216875189278 -1.6027328939215042
Ni 8.738570985430927 9.128986412351933 5.184168450532661 0.2653273047217431 -0.3511134472496276 0.661469510076235
Ni 8.096326334157363 5.86388094477977 7.203993870475573 0.7481390836503373 0.5594463368641979 -0.7123544698515603
Ni 0.28855447485973895 8.006199647493078 11.610737888818704 0.8432896981122574 0.6736565390607302 -0.513978948560018
Ni 6.323309952608701 6.0810589598172795 2.3826624348037906 -0.10707770491680914 0.3011605123702684 -0.8533848775647302
Ni 5.80466921173402 3.812564759243147 2.9013683970996076 0.641212816709728 -0.4104822761262479 -1.4735164481241267
Ni 3.957756960038098 6.352734130886982 9.191569161135835 -1.2786072881146302 -0.10524399414218004 0.9091531335742857
Ni 4.908992752617121 4.084006996665935 11.91713042235918 0.46451143795750965 0.6839291246313318 0.2712953493797199
Ni 5.267934185166995 7.377045867176125 10.596317446912153 1.4240196269455796 1.5900748388378616 0.4526355124555302
Ni 0.7943158485292049 0.04815856563234697 2.5744786343652137 0.3122339965756107 0.35474153092051813 2.1222793092669705
Ni 8.686999476003985 1.221159302623927 8.548672295650908 -0.2353760097752914 -0.3314833317235259 0.29357935758890086
Ni 4.145669191677229 5.567468220407712 7.034924107402677 0.534071605544835 0.2901240520504487 -0.8391535644566968
Ni 3.2640432901422325 7.341379067160527 5.336042120055716 0.6107696697285223 -2.2092658998608594 -0.8491528417612537
Ni 1.4556023595707634 2.7881132627658545 0.756027147383933 0.6806350272610924 0.9749674609659339 1.299798834590581
Ni 8.52565099745902 3.5860321289455386 0.8478822017083264 -0.562831708396663 1.9279548181163506 -1.6332261774143548
Ni 6.933856993210096 2.4651554199913837 12.558541171176792 -1.0328311660519376 -0.6628818170427293 1.5925515825131282
Ni 4.990193421931631 8.497782815942132 6.470235179736698 0.26979511068510953 -0.7692761227392687 -1.294886227780312
Ni 7.6255581163966175 1.5537978677641784 1.1767873063558272 -0.9443607918236704 -1.1865219428415954 1.0648082331791662
Ni 5.579608722084912 6.514539159379899 12.659481569465452 0.3221551123440645 -1.3868034229065986 -0.34837650793443875
Ni 3.042644517422626 7.786813421482814 7.771246931726791 1.279088598626423 2.277320943657568 -1.4954057919980506
Ni 2.9926569567947037 8.327806475115443 10.609463290209439 -0.13111186304787745 -0.8579984650773417 0.24585454070911206
Ni 5.334348226575352 9.139841120298165 8.838837739612709 -0.03494000641029467 -3.118812155108506 1.3243315296246223
Ni 1.4039097246474248 3.7805037720817904 6.571215642612628 -0.5916856565138777 -0.27387622273301865 -0.7739946112608606
Ni 0.5922039817741463 3.349520621214098 9.870576332300086 -0.2762498651715178 0.02713979363958552 -0.467781109847717
Ni 8.739763605703132 8.181365749973029 7.904152348514279 -0.9812998309418647 -0.01599149033224988 -0.36148064941656455
P 5.70626872193132 1.8278675967241658 9.115148290256018 0.19741881380522774 1.677510601154027 -0.5830596054077636
P 3.11272959310636 5.087084501702323 5.143038890629615 -0.5173974873232637 -1.1948536026357421 0.2363604851757478
P 0.17870576217846879 5.266797468970052 8.665908731877728 1.9786505446990053 -0.33214179124313126 0.6744145002726771
P 1.6779421842239055 5.009489645242056 1.6591444389178789 -0.5212184037312507 -0.30985084105541477 0.3726163543184099
P 5.395470015525802 0.4725823050029177 1.2037330706309346 -0.09741627056764512 0.09721546741074871 0.4258029656437183
P 6.30558836075142 4.8821401618007805 7.89710191288946 -0.9152893283790108 0.902105482698885 1.0265677016407286
P 7.219182075989008 8.241276283959522 9.667959465398516 0.40100853230785777 -0.06898089804508764 -0.0728789475479132
P 9.335980568346328 2.019171342262376 13.068915562789758 -1.3252329583929694 -0.011236749256083872 -0.48730323904104467
Ni 3.1856285072448247 0.9255748903002983 1.389025264609567 1.2609409811831185 -0.6654840305522668 0.01756217725347943
Ni 6.946742882557424 1.4521828936340537 4.863347075167692 2.2847738003911875 1.8399966076378118 -2.3671110651385234
Ni 3.482777301941133 4.19322492503136 9.187218892346053 -0.04633667828301052 -1.3023375418520347 -0.7907350639439931
Ni 8.291170671128679 7.603848700504156 1.642125374939694 0.5478167230450695 0.9634535467890634 1.0051293292612948
Ni 0.02060903734443637 5.1812362817852975 5.185995582059061 -0.5122809920323048 -0.17683507611660512 -0.3342855770590114
Ni 3.4306281170698414 3.458393807782089 2.140662078616449 -0.18161578533470013 -2.107957750437976 -0.03870795809315914
Ni 1.617127867687382 6.008653865010275 7.138141665023577 -0.5587891628961731 0.5232922555411439 -0.4203229163657536
Ni 1.5242432466436249 1.53418485469395 11.563267875046638 -0.1700172818638233 -0.628526479491311 0.9343882539919908
Ni 2.8897002848583497 0.17138698699240487 4.518156181662493 0.4691921312626307 -0.03630757618178264 0.1106016589096676
Ni 1.427808716820886 7.328232292128654 1.7162150458811871 0.2964651637771281 -1.5654413565598975 -0.4651490715415086
Ni 6.447100209925117 0.6174921902178078 10.778110977514125 -0.6135145794635111 0.11439403607256429 1.235122477458118
Ni 0.8260991787834394 1.865826463825406 5.085096180092258 -1.0808267200946096 0.5250588605232634 -1.2321096587737232
Ni 4.110943443595166 1.0257186555165092 7.583781000955149 -2.8088926655986852 1.8954966975876455 -1.8956681901685033
Ni 7.37648682642353 4.941855031523866 12.548341472645685 0.2536084736229181 0.22382121505815644 -0.2847301347283871
Ni 1.3687926480385453 0.6547196456677357 6.983008787912889 0.06498334684992034 2.066862265949247 2.7629287972740606
Ni 1.174386226323429 0.48686300102797203 0.4481988108438735 -0.6055552154071184 -1.5481136639147275 -2.0908591430844767
Ni 3.174307932004764 2.46855625123634 5.320878139641561 0.8728938941319354 0.7281117326858171 0.25811124658927803
Ni 1.5040991448584307 3.950256496607441 3.609327357106196 0.24562262720396408 -0.03210330829244793 0.6561635244822893
Ni 2.474165293454049 3.7404857715418225 11.135273728736157 1.0094091875835713 -0.9773135926006074 1.4189455548567822
Ni 5.946246282328852 8.826815568228142 3.5168005221441008 1.1287240579965208 0.9462906618565317 -0.19650067286633255
Ni 8.747729936427618 5.368570837980078 2.7033878415062307 1.6733526131215957 -0.04749213204369241 -1.5750043176579844
Ni 5.015667045558237 3.3222487498333098 7.479391321222975 -0.6282431439229375 -1.5614708019479238 0.008109773591327968
Ni 4.292100599473766 4.911256867665134 0.5267570808677808 -0.0041191643746961324 0.6692177865630862 0.4335787529343953
Ni 5.23567753374223 4.025279765605768 5.128870934489668 -1.8279540746509806 0.4122463100052061 -0.5311266639838982
P 8.151801811506598 0.48465013138228114 3.1025531879399453 -1.5682068351201768 -0.00553198556182273 0.3851509964503109
P 2.232957843400806 1.6296690152372766 3.114048929282485 -0.3276878692368356 2.261426126804183 0.9412932086419401
P 4.54930593239712 7.3916647828565 2.9707257880703795 -0.5914046349383493 0.26355555753330095 -0.34393287034078834
P 3.603008333132691 5.96895265423011 11.59141371347065 0.011563536467883311 -0.445183169942543 -0.678682788630728
P 6.1152443018385 3.9265345340056346 0.5728444005117612 1.4902219338042657 -0.37197203586619165 -0.17380863058545548
P 8.452481880290136 2.204800824161741 6.6692918887788215 1.01470900252993 -1.561945170481181 -1.9368742320931676
P 1.5257526566756332 8.33708655160853 5.931659977359046 -0.673876111270704 -2.5033828751207854 -1.3723031724078947
P 7.319054706440209 4.791091057894712 4.207999440387874 -0.4924194772216874 0.4176553968359194 -0.529920559490939
