# total energy = -340870.52467448264 ev
CRYSTAL
PRIMVEC
9.23537416695643 0.00000000000000 0.00000000000000
0.00000000000000 9.23537416695643 0.00000000000000
0.00000000000000 0.00000000000000 13.51690361926308
PRIMCOORD
 96 1
Ni 0.5803028914300083 6.948215316378566 3.734355885748723 1.0251232558847183 -1.335293685063081 -0.34321656100005404
Ni 2.957249940509265 7.295844037028859 10.12097086701058 0.3775431021960659 -0.08407944424942294 0.5916607168132133
Ni 3.748232035499715 3.6821344622765237 1.5557412684481449 1.4049662098585545 0.28376442838100807 1.234518525325532
Ni 3.278049899078605 0.5358484176686795 4.556034517539403 -0.32283131247548275 0.5721666126443437 1.025956293308975
Ni 6.933013890428396 5.929184126012923 7.056661698043135 -0.9499177170861577 -0.4961923140005584 -0.2802301899755045
Ni 1.6798314504875587 8.922405849071346 11.534676697791259 -0.0052211391896232655 1.2050595966344666 -1.748681050651266
Ni 4.874919983034946 4.1557798640265 8.885972297811673 2.0909679007481987 -0.8357635649385412 -0.49925321231406916
Ni 4.258274047012525 5.341592677256138 10.850694724864042 -0.8084360807681819 -0.13219943968510134 0.797609165356007
Ni 7.720034009882623 8.041415797027213 8.89178411880222 1.2996098585082263 0.22564926940583074 -0.37817276536026484
Ni 2.608697682437942 6.857597824627001 2.10391983422501 -0.6705419046911485 -0.7908980718844186 0.6389828989379447
Ni 6.347010926035784 8.237602851376835 10.791909720940575 -0.2508761622934196 -0.25346886272126024 2.31213959399865
Ni 4.1588275375159025 5.8285739593658015 0.1607675471782404 0.4783342027732149 0.8272267311121237 -1.7218212501459442
Ni 7.743205563776291 4.074776396827868 8.465988114373284 -0.8543063609377353 -0.8241846018516904 0.518557569069636
Ni 4.588235496798492 1.8800174218702457 3.108807048987563 0.8026076470118629 -0.0764833770697199 -0.6767999697857183
Ni 2.1672098536882665 6.118426178956391 6.088000238620524 0.33157383455480316 -0.2678053339485904 0.21323598334314242
Ni 1.565146573543925 2.7829968999091297 1.0138067391748709 -0.9549377960085682 0.9933197382208763 0.05142154900508564
Ni 3.0415412009267673 9.395607952859228 8.891203213764392 0.6618688023971827 -0.2515495342113603 -0.41296750444194685
Ni 9.160318324103152 7.194033271734397 11.009599497064062 -0.28105679964185787 0.8399943151904372 -1.1809619322553144
Ni 4.979861540186702 -0.22142271437929564 0.22795858870793226 1.5611782104081693 0.05323957605043089 -0.3625651407299949
Ni 1.9444156862387398 6.574468957461518 12.187151268062578 0.478886218621943 -2.0136756546239383 0.6449465727205473
Ni 8.406998085142346 7.562127581634736 6.6244720440484 1.801431088659788 0.21656247661321412 -0.1646508753455874
Ni 7.616034460900318 3.7622605689251762 4.8755332118825105 -0.22640928750030687 0.872561193382865 -0.006666356276582068
Ni 3.1963999556852514 3.6590829682475894 12.788369511466676 -0.4903109155191169 0.20520694239107884 -1.229811606768166
Ni 3.8762158513061955 7.949403763769889 6.097353825620727 -0.736071868073158 0.20090625813319593 0.8707372528002488
P 8.673143099135071 6.121686266052632 8.567000019798552 0.2613608638748273 -0.9423571311300803 0.25456492399891645
P 2.414847177763528 1.6689060027967617 12.319468321448538 0.49977823157960377 -0.7801706581645853 0.10316448590533199
P 1.8302941671219348 3.9247200366587456 6.51206553392245 1.4301761334652787 -0.285757804661953 -1.6699569571764852
P 6.182778266453835 3.793079012664982 6.563105753033151 -0.2690798297856398 1.4293436102616546 2.3618837553013132
P 3.382705159629842 0.8725332198797534 6.8078422460689545 -0.019980556886984944 0.1425188193332384 -0.11957120939812955
P 8.27173679445814 5.959356093558007 4.759801967040849 -1.0273112646749727 0.5171614600530577 0.7963331268570608
P 6.3652046132300955 4.398965737732392 10.822958125498218 0.3036848214540189 -0.601929445729073 -1.6333449623804064
P 2.2704428666111154 5.113174166912532 0.7701360083229375 -1.2424380372829247 -0.6115543704133468 0.1351271548548576
Ni 2.9904788169179617 5.346062598373928 8.667146570660316 -0.1753944870153366 -0.9783515469468184 -0.015332773702328434
Ni 6.065082657517639 1.4259510134461275 10.718471872295028 -1.638718053766862 -0.7736390276936547 -0.31306960510302856
Ni 7.814844361525668 2.6253213560165007 11.172855977591981 1.5182060777220177 2.1867445788298916 0.10847535659528416
Ni 3.4903988582962704 5.447134533731564 4.182819192639447 -1.3914923437418358 -0.48987819885707246 0.3355683004261769
Ni 3.8872521234875164 0.036345815204676356 11.052731465238475 1.7896670061453244 1.1860501454114993 0.851934518271449
Ni 3.013114719107432 2.6701129209365058 8.131539196258526 1.127639309572774 0.3436983857324791 -1.1383908916623233
Ni 0.3290314476029897 1.3042287813542373 13.022103903205737 0.18030143739865076 -0.02903443955913709 -0.16791000571283338
Ni 7.314564140553157 8.041489680020895 13.11592514627086 0.03413602245176057 1.011651960871161 -0.119234137773685
Ni 0.84889158543878 -0.02611948534159971 3.928972002945172 -1.554189437795162 1.5028663620411538 1.0107428187933303
Ni 0.8420398613121508 3.659166086615482 12.159968791149373 -0.13634174398824905 0.7612092865707342 -0.2734522478217226
Ni 0.02511560016493898 5.108205535587385 6.537328900074754 -1.0367978640091695 0.3796948584317461 -0.19702749190408003
Ni 4.81406810236321 5.83443842198935 2.3245695477829025 0.9263630696946691 0.6081052355224817 -0.14089953856226056
Ni 7.641154678752361 1.525508347433273 3.883555203191129 0.34475948000714174 -0.41197145907726473 0.7870082499117091
Ni 5.383244214944638 6.750282776303195 4.6170766469198705 1.6572680488549072 0.3831172538497338 -0.2140764769665668
Ni 8.923865038196576 2.6021775082454632 6.893485565270846 -0.9636931736036952 1.2713670616124493 -0.2088360545032339
Ni 6.608879961769134 3.3438981171981172 2.5929615283209944 -0.4981486663959808 -0.5734912449930382 -1.512978253664175
Ni 5.718017294694177 1.8378025263549171 8.157181212753452 -0.44454502213791186 0.4057043951216303 0.23759255781063596
Ni 8.211208151883767 3.3097179972457593 0.013531670292946716 -1.0552555564937247 0.4173157541083135 1.141863423591956
Ni 2.8314364376422074 8.257191080076902 0.19849128021509507 -0.5274353311752401 -0.12672684660630434 -0.9022278672093622
Ni 3.387562966464465 1.4019759819961617 0.8266758927758785 1.2090432638725628 0.28222819424213974 -1.1013829469794063
Ni 4.2001004248617795 2.9304950614219956 5.27316040143258 -1.921567169422452 1.3528347792706379 0.2541867147238913
Ni 6.180053831061793 6.296401075363283 12.079732783547618 -0.32782953702102247 -0.867926265714015 -0.03566351483988051
Ni 0.9666112063479217 2.082410647689197 10.199503871607954 0.6264161180165276 -0.521374726803457 0.15177067694880958
Ni 0.38487221422821016 8.122557794838999 -0.39983444398633394 -0.4261919735520209 -0.847893515432856 2.654854018551305
P 6.051368126815329 2.137619714718432 0.6173829188844044 -1.1573936580170712 0.1189816554432467 0.5897403598620489
P 0.686262186819741 8.769966762355963 9.146659205646102 0.22537339003662477 0.5441215335816694 1.4370715750335314
P 2.346135993638819 2.1245147187140017 3.158846153533866 -0.15221624912666043 0.5857968018332685 -0.14061568877325462
P 5.727095667542912 9.099660386289832 4.609656023741886 0.1622659200531786 0.34773193237190436 -0.7777664195984669
P 5.8621537799944905 9.083932544009674 9.043416957349043 -2.1283782230758574 0.6500137028308096 -2.151673960379004
P 7.410907564315115 1.043209400048236 12.691007425929321 -0.5936350669307647 -0.5469775149732258 0.09717098732605846
P 2.1932813150839725 3.926991938714482 10.49302345829746 0.22715310764486685 2.1636198198869705 -1.04854420591182
P 6.078649422232585 7.477346846384087 1.299558452616083 -0.16821005345175546 -1.198986393857193 0.9189310388966561
Ni 7.836473607926215 8.285876152374128 4.442114329580383 -0.852778354328983 -0.18041070928300543 -0.24274659120774963
Ni 1.2538682857854146 1.1539969490751187 7.853766846135021 -0.8823455264631385 -0.23703282865242406 -0.446770826144637
Ni 0.010201394352708806 1.3568334728561646 2.121072694745819 0.45150396995424824 -0.531991840197671 -0.4467816247779144
Ni 3.5564410192742 2.3707852074061377 10.366788822366413 1.3110785212694582 -0.6554829534754969 0.9086898207846221
Ni 6.49243112835133 6.082574456271968 9.646040824707951 0.09045218054498616 0.5469029529815485 -1.344683353808097
Ni 4.412938858912591 8.435138270361163 2.8921987351841016 1.1759529090764973 -0.5297770919345393 -0.6435895444720207
Ni 6.093472197840134 1.941183305265131 5.728193753536518 1.0959031548117577 -2.7029254201372357 -0.718912325574736
Ni 6.831101536017621 5.389099442193975 0.6741296757196563 -0.006172961579931304 -0.16974603048030765 -1.5249117718769674
Ni 0.7375850083812776 2.878490669243738 4.771561369022837 0.8059145998979088 -0.41621352218307023 -0.700041199701846
Ni 7.154330398004272 0.0999258254181369 2.028968307746394 -0.46545580414865 -0.6975328314576955 -0.3312781576912553
Ni 1.0125387222957951 3.899359699077233 8.405067891932392 -1.0169561466928938 0.6014345083705255 2.632452253817337
Ni 9.170070879269238 5.514211056621049 1.609700789346725 0.9245815523142141 0.5649636671380012 -1.4789358193674853
Ni 6.0672991473281135 8.292460974186078 6.5891522789184895 0.47803081260018315 -0.3477468447702398 0.6456204588591204
Ni 1.6664586286310292 4.4113411391742074 2.925058196624386 -0.25332668071644115 -0.32726877942154603 0.08080822969731889
Ni 4.694276063481276 5.440688242532768 6.470447243581107 -1.019784103059992 -0.7856046846959631 0.546074286432666
Ni 4.6157292058225865 7.098327088792951 8.287470177962826 0.617333438988969 0.4574589019861025 0.4233215939827613
Ni 5.447226887473667 3.562222363529854 12.371697133220104 0.33053973686333393 -1.0705641618263368 2.2122306389161386
Ni 8.642546304376312 0.2910361945643519 10.924483517729579 -0.8728347587592258 -0.011814733246740943 -0.754020996352411
Ni 7.15190149458696 5.7299771042965295 2.8086370693292135 0.3519752810292906 0.8551879922117401 3.0358573113818297
Ni 8.467489786219879 5.057346329811207 10.773661545038422 -0.04538511300301861 -1.7992209683823464 -1.3222062557515035
Ni 1.4285184474765937 8.507774488525254 6.109951799581012 1.0709120320840588 -0.3719026160808369 0.7595079876089114
Ni 2.2534867195609856 0.03256854715265943 2.245036352158552 0.21897365715786804 0.48426908020041115 -0.67394810215922
Ni 7.674632910264736 0.6301351235940009 7.201778980084584 -0.41135953652487867 -0.15913585906462918 1.3353350798239778
Ni 1.554498187079437 7.0184780433706075 8.411069038094253 -1.8357568585248516 -0.007624092204161063 -2.0027361248932993
P 9.247934319236366 0.8185376810217531 5.81999983794895 -0.2198429471366988 -0.22117992078056747 -1.5343196954544285
P 2.7130481756402385 7.5905263573314405 4.312716577982304 -0.47898520609365247 -0.4263727221042592 -0.4523478060117822
P 4.157368348390673 7.421352772546976 12.008201116139078 0.44506129965269803 -0.8967179931347267 0.43732073647533076
P 5.380787605404695 4.4450225489192094 3.983634335821157 0.0003144459166252649 -0.08416146244026795 0.12222175964709917
P 0.4025875090384275 8.022649516631862 1.8159146894764815 -0.2082228463992672 0.8817940248350427 -0.2524550767447652
P 8.739711676442987 3.4469464226367603 2.174518728838306 0.730227236366923 0.1552871747425003 0.6572153627855714
P 8.744597189400242 5.79905770338965 12.681112646000395 -0.39003326424327667 0.318962830659012 2.0826339269612064
P 8.31183678927931 1.9167834466014912 9.119990215538989 -0.5700364536752183 0.6262471965388311 -1.248600971560527
