# total energy = -340870.39635770535 ev
CRYSTAL
PRIMVEC
9.25861594364936 0.00000000000000 0.00000000000000
0.00000000000000 9.25861594364936 0.00000000000000
0.00000000000000 0.00000000000000 13.55092030877107
PRIMCOORD
 96 1
Ni 0.6946970805069747 9.013021633951242 9.430573164616753 0.48514659770935803 -1.0606674715379152 -0.5110352925506618
Ni 0.24585976161981218 9.057527799492801 11.892789047820001 -0.2528430562118033 -0.36582452820755706 0.011835044961715103
Ni 5.235543473707033 7.944281109550734 12.367193108027417 0.6006071273732236 2.1214994936781526 -0.11978795339462595
Ni 5.409355465741917 6.294451348262495 2.001375694957218 0.3528875084309149 -0.6689442211867254 -0.9249962712541296
Ni 0.4479614538444681 5.723074399216056 13.15286164269398 -0.9650216626071317 2.1144947802255456 1.5015409583615107
Ni 8.760307719148486 1.8838783068936211 13.240183350555153 0.6028221327466714 -1.404871079041587 -0.060116762786238405
Ni 7.038381117612249 0.24473669153864075 5.808764738995594 -0.031070239042243267 -0.5606650397626474 0.47787474663829316
Ni 2.8785128714450257 4.955035194653026 5.417278063173561 0.514854409186436 -0.357878533887603 -0.03565477308913214
Ni 5.529532297181367 4.974256080790799 6.841087424506738 -0.4294230788948088 -1.2475313926454321 -1.1373351967042993
Ni 4.077753583760714 2.923926381322568 8.892031896055677 1.308262649087218 -0.49591720596230077 2.7962562077815973
Ni 6.705070953373404 2.4608289425753878 0.43344487033029905 -1.172899209851838 -0.19859072262614186 1.4304558694892267
Ni 3.486479869632351 6.957683023403755 3.1767689908831844 -1.3356569819397708 -2.1569948583712852 0.7608313344060252
Ni 1.547836851031153 0.0933573994185983 4.002833791593928 0.5914869102395104 0.849233574400518 1.3399988038482342
Ni 4.973182081372696 5.308779123682846 9.190992596146573 -0.17846386996927976 0.5036503129405003 -1.3993694324970674
Ni 6.477864524750593 7.1947776535656525 7.489349769827405 -0.869615994711612 0.9530038122106491 0.5877924921070586
Ni 5.226451513115851 3.87516581421321 10.999606690370362 1.1184280753871514 -0.577075877020503 0.6744412397455546
Ni 3.6888732082507163 0.8575746474316899 5.763978963260701 -2.6316287294747776 0.6274718129745516 -0.14480041627856352
Ni 0.5929921131973278 3.586334039668905 1.0374991775340874 -1.5262993962531133 1.3129297155455841 0.2688530584868144
Ni 2.1434435972946213 4.694025560206992 12.251969635973182 2.9653178106003706 -0.7931174481332406 -1.2455997228403581
Ni 1.2037126236858928 0.6879660669124845 6.42884108062203 0.07381174377482773 -0.7817706556618536 -0.33494172258577154
Ni 7.714537820233438 5.2738741425945 1.0441959342505862 -0.14305695122489556 0.3334905919615418 -0.13417507535423343
Ni 5.94027226429603 1.760618356434962 2.7865701885013077 -0.7762666951244889 -1.4145967909697832 -0.712288135389999
Ni 8.80710076276135 8.513371180525867 7.276125702594412 -0.876466184864226 0.23720149301980437 0.8874723061667427
Ni 3.577390216928496 7.645144495762046 9.942444990730884 0.3146045536903162 1.9547264297832398 -2.037492040317246
P 5.829437376070941 7.960585531751418 9.51564595473088 -0.8025541680661082 -0.7082756717964963 0.4092111227233082
P 1.5291159301397381 2.5314258870843096 4.027265426632636 -1.631778903444867 -0.017369858737015246 0.31566667640624346
P 0.38006987683528487 7.977797298288086 5.462741569575739 -0.2549387623985674 0.05751969148302352 -1.1825809559159763
P 7.985389363140191 2.080762769186372 2.249357531289351 0.38440923318827985 2.249104372014036 0.5107599274020881
P 5.848732331134101 2.0903639536395855 9.523871308895043 3.1721319495775693 2.2185015595265147 -0.6627337215006393
P 0.5650375748949295 5.806290836887688 1.992134670653696 -0.7973088605067689 -1.4485199260797892 -1.3453934925012443
P 4.265721999160076 4.727041783697983 3.167826094004343 -0.5206082809510776 -0.6627288364046328 -0.3898512301394576
P 7.988379896002669 1.7547298768667423 7.069298412930103 2.1451001638162284 0.3729842791807899 -0.06695846829842017
Ni 6.464578411259406 4.0195354084069965 2.818807762414176 -0.37314651579026703 0.9416683325931718 -0.22798511662785897
Ni 5.853148690810265 8.403628808950229 3.745759068809046 -0.7253328843890992 -1.2755967834230808 -0.26136729163273054
Ni 2.704645327716102 4.562090286862449 8.219378653605265 -1.1320850040489534 1.5452137166591131 0.6119392645565912
Ni 3.1755292622445292 7.682345613537369 0.8885132375655932 -1.0783834007604394 0.5164999152096589 0.3767920829626543
Ni 0.1857954183008378 3.3873663888496615 8.46828172219689 0.05883223964685997 -0.5130919179693745 -0.36904303514485476
Ni 6.943517341423604 0.4775038447348377 8.640974347596872 0.8044698970315823 -0.2853304873165473 -0.24360251145014175
Ni 0.6462615584736666 1.2541628204897113 2.2720152155650535 0.5303746163092221 0.28460517911474853 -1.2172805641806907
Ni 3.7541742245945096 2.4451911407031814 12.16491827968967 -1.0714157111933547 0.7716885888355033 0.34097687303625795
Ni 1.1206258066336878 7.142309078545055 3.598568374419605 -0.08381796305792016 -0.8551753938062496 -0.46145336785747626
Ni 6.954053646059822 6.117685857827828 10.56654697845207 0.34395421049702696 0.5529522444994218 0.1566100073189819
Ni 7.6639209683475 3.8650091128195987 9.946565074705504 -1.219316363663797 -0.5108077499208881 0.33906371517394507
Ni 7.567631365345167 7.3548406013256855 12.96889480098862 0.3368368827259554 -0.056419516440309285 -0.584058221875607
Ni 8.884724996566307 3.9712980207490967 3.6669599166751468 -0.18854336569246882 -1.1641785421493887 -1.5790918574637967
Ni 6.339429703203392 2.9810242641798173 5.013921842058356 0.09628318540446643 -0.7144185514694406 -0.39361635360884467
Ni 2.6879890781198332 7.649514562359843 5.58465902076177 -1.7706848086158666 0.6108930826802641 -1.6274725627600295
Ni 5.894821719955793 1.973807240928396 7.08726660836728 -1.7768161183245852 1.7223750657668853 0.6263706094905729
Ni 2.403101473852354 0.629662712294572 11.04905417909676 -0.8617797864966449 0.17488540858940205 -0.048781026058445025
Ni 8.93812869176991 1.6207114149957071 10.088361699603679 -0.46440679405884533 1.036623028994202 0.6844420597120083
Ni 4.657611424763897 0.033408788795540156 7.586509682703029 0.4843793805260303 -1.8556116884672496 2.171144667509106
Ni 4.552516878256255 6.116222996551446 11.284162836196735 -0.5456911920616345 -1.4033564421692735 1.0818520760353303
Ni 7.477202466064035 8.759965150368574 10.697000873288886 0.04679819130046133 -0.663095218605116 0.29387580578339706
Ni 4.907825513334863 3.9789826717579366 0.20567459201298285 0.1523067519579377 0.49993404043117773 -0.24370535557659317
Ni 6.85230145981024 2.1049370147093613 11.610685509285483 0.17910021800169798 -0.13010167661580818 -0.8948675701895491
Ni 1.975742291604116 4.691507216743853 2.9636541753151366 1.2006252150121968 -1.7640809301461038 2.063543485988659
P 1.3948845201082167 2.4355436631716016 12.558328895848614 2.581577064234025 0.10444258128680724 -0.6706768876071159
P 4.468883802879325 1.5835565902987492 1.151687536356046 0.5192401969589575 0.37580323668682375 -0.06593645479180901
P 2.5940048704201524 9.170047755770431 8.290222803152664 -0.9171703474518076 -1.3216812364859691 0.48034557677628886
P 7.195962756371835 0.2798601759568763 12.726915325197487 -0.6772887364966788 -0.21363373300219335 -0.019452709407972953
P 1.2264240079325008 5.135078235036041 6.8311816315978735 -0.3936227813667479 1.4853167831931646 2.12406982550849
P 7.1249954672359825 4.97613557977248 4.775940236514956 -0.02681326353810221 0.6325841945004524 -0.1614447097034639
P 7.244403833574547 7.485674099405105 2.037421337496514 -1.6794242732369722 -1.1175047922419334 1.2506550258760782
P 4.796925814800061 7.884924124469201 5.882888290214476 1.456553595017543 0.6849441961594076 -0.4594219392497442
Ni 3.535004274376123 2.2705088387950076 3.685782682338968 1.2886615870268385 0.6010200465409262 -0.8121770358678528
Ni 1.0234936696050845 3.139244747420862 6.237921944407587 0.2216380913639086 -0.9873892316690542 -1.8614565772838008
Ni 2.6009580907908014 2.649686185079386 1.0268823229415127 1.1254057922565652 -0.7527287599035487 -0.37127141025474125
Ni 8.618104641022251 6.506584750569173 8.452331904976495 -1.376065210553488 -0.07791830974403355 1.0921514010788091
Ni 3.5246809179003917 0.38418162805579786 13.164176596908321 -0.22705309173189286 -0.4999633510072164 0.28144040823352173
Ni 5.578371494858031 8.660036911406632 1.23483731199483 -1.7022584975226682 0.40165825007671474 -0.534423589567615
Ni 8.77815833016661 1.5979537376707327 4.597434126333709 0.038061325648095744 0.7955039460875462 0.47690029854016586
Ni 8.01393367526098 3.995712990279592 6.575936411270035 -0.34449671326405834 -0.618493006514709 0.010662107699536476
Ni 1.4470475608115958 6.956562730907286 8.226668887586422 2.9671859741573607 -0.009021229662003817 -0.5979473211528734
Ni 9.247153507097684 3.9156167060898635 11.93720818237423 -2.481607174006591 -1.1735676966737725 -0.267132733361598
Ni 7.753155506206777 0.1718510172352788 1.2811609437930578 0.1603962138342915 1.8891391308007335 -0.2934322904880753
Ni 2.162164518186036 7.337425145244206 11.882734191198795 -0.21759580297373493 0.0831240223146891 0.6549139683459043
Ni 3.7715248703662763 6.624067324847692 7.192502811694723 0.7743831049485309 -1.1096025066757214 2.2811966245628907
Ni 2.9222968649640677 5.166909355720851 0.914640125134082 -0.5584847442818769 0.29819500198404125 0.38545464373365873
Ni 0.10652129918289799 5.525819592296373 5.2214537123754035 -0.18965742469225402 1.7497002359443994 -0.8389211367309164
Ni 0.6253472715292463 5.050574849785821 10.057086095859267 -0.22747320998844694 1.5215032604160506 -0.6292042222846261
Ni 3.6278404137323146 9.016363994209303 2.81784579224572 0.4427097687013859 3.1327531906696304 -0.30207273977189264
Ni 2.228854326880825 1.9840565284787408 8.028391929496406 -0.7971103713427176 0.011829388534760272 0.37418035637142005
Ni 9.091395815625738 7.637848706611484 1.208228050549762 3.2637712084521215 -0.44505358634321407 -0.11418886204029366
Ni 5.059750137918062 6.090113700352736 4.6764091921654005 1.3335589617601613 -0.22321957691841554 0.2648966449422277
Ni 4.722847630797977 0.9166242464728704 10.622593082568834 -0.6879477588724217 -2.553924849734395 1.1102686795048105
Ni 7.472582416843057 7.116875661290497 5.336067967518335 0.09787084160656047 -0.8759794750357945 0.1585164803130754
Ni 1.9068489323790816 3.055574637581239 10.300460845032367 0.40442578551952285 -0.5371993525405393 0.4560139420094598
Ni 8.173811450707545 8.706802179172477 3.7741070982775597 1.4889692923440874 -0.08270647516129627 -1.2898856892419268
P 4.361363499065278 6.311098339243091 -0.11682799015041692 0.9289879089120259 -0.9547866151426847 -0.27095313554895273
P 1.4117537178649717 8.931675436645618 0.10500473793561126 1.0087617838075593 -0.2817623103493147 0.5069300121330366
P 7.116283109887405 5.111098420442191 8.223240422202599 -0.7911765223567858 -0.5686989658107172 1.189520363348287
P -0.030136794016595508 6.804434416779273 11.228102844156464 -0.9852176779390323 0.945793667615455 0.2320474596226907
P 5.370219297290872 0.9530078284842423 4.658846524094716 0.23617947951319324 1.7770130648267395 -0.28655741774511295
P 3.7469525043693346 3.1991479908271208 6.912175075646345 0.6774895396535752 -0.2585136242340193 -3.1134328930744637
P 6.925981523338372 4.279146991886362 12.641707359294529 0.11842064073345412 -0.2638679465673972 -0.715387343140613
P 2.6907388869748035 5.609434150441957 10.196470851374547 0.7697029258640421 -0.013652043565795843 0.22304782722724165
