# total energy = -381165.6190301448 ev
CRYSTAL
PRIMVEC
9.24982729106158 0.00000000000000 0.00000000000000

0.00000000000000 9.24982729106158 0.00000000000000

0.00000000000000 0.00000000000000 13.53805722734779

PRIMCOORD
 96 1
Ni 8.021487058889022 4.560784497840454 5.85075521014909 -0.45642788961842684 -1.16190980071987 0.545700448033015
Ni 6.85097693857125 6.132903611108953 9.553292650715328 1.6588940144941042 0.2724682866418985 0.0005499589661990529
Ni 7.249154245668538 8.876171082765001 10.811776951581605 -0.9336832575051661 -1.23597839770051 -1.630889044640746
Ni 6.91850992621539 0.30472352897579147 5.659922952268322 -0.5977670868212673 -0.6423158199659195 3.072326095731825
Ni 6.723125828419586 4.8327479141824625 3.902818396827842 -1.4059260026686626 -1.2177526187211027 1.4783591209284088
Ni 4.645263168728542 8.058356869702546 5.587913973291351 0.5325155739116249 -0.5200043288184915 1.860109833447919
Ni 1.5971768948775906 6.894367877489024 2.5402272919710427 -0.6109542749355027 -2.4017181136894314 1.4654593821476052
Ni 2.7034192165168953 2.0714710291661707 10.579761688511411 -0.09992386748084725 0.2339670452429067 0.07850992058144543
Ni 3.0874997871164873 0.6262142195325352 5.840115134038002 -0.18168366245815806 1.418805172624176 0.9505499513535177
Ni 4.900845141279595 1.0247975940394343 4.6854000184731595 -1.3182799241139038 2.12769996606191 0.7718490256727675
Ni 8.726971371670635 6.557285678375512 6.707294749340974 0.9557530928210121 1.5789373341638033 0.8554900968331912
Ni 5.668849035418108 8.62267032131105 3.5008329359142163 -0.7851771102402413 -2.5735927604769677 -1.6738632342094268
Ni 3.643997134826992 7.4651654578933835 2.078227102878714 1.8664967108108692 0.7115790251381164 -1.934469993527049
Ni 0.34382069815456845 0.2993142300887496 0.1775532060985563 -0.44095087702875024 0.39639134525082054 -0.774423471268163
Ni 5.355196648344401 8.779908132153775 0.7165572808008978 -0.261384260913595 -0.5935605049390875 0.3215403615782011
Ni 6.627242120719386 6.431395531568671 11.973545060308844 -1.6105295071477876 0.5588254154507473 0.8233466793314271
Ni 0.964118728275079 0.8188020945965462 4.893398105482814 0.24218506227732486 -1.8552324507509594 -0.6667037618919808
Ni 0.919127569269313 3.8079225706617335 1.5805679053400183 -0.3407105067487487 1.6388244974377388 -0.4153524597343557
Ni 6.828564607512252 2.456458082821389 2.1161069948113647 0.25750343780195006 0.4880992525797788 0.3142993637450716
Ni 4.3239611746446025 6.412877377718026 3.9342271097225745 1.597891763779119 -1.3844863447376479 -0.39599745224651156
Ni 3.1503801117302204 0.03264541477776512 11.49203698586636 3.206830015180387 0.42483057442812 0.4406868247340862
Ni 8.529321066235765 2.0940036079774464 5.52247144657141 -1.8519414387045139 0.9525824084025143 0.06685742394418163
Ni 2.6173310757137163 6.422783942540224 5.428964019452744 -1.522957476364074 -0.6255792239375291 0.7339157409621038
Ni 2.7734681571317523 8.340744841184254 4.173633909626961 -0.7399642611490289 1.0489350135923354 -1.0565321092133029
P 2.2746897305141713 5.499771445889657 0.49784326909795046 1.4981453024164004 0.5182971163193978 0.7858543388129241
Ni 7.450513731769795 9.092987029947393 1.7132955243378667 0.30485518761303626 1.079905750942237 -0.34479650389266425
P 3.079091694284201 1.3560154027726714 8.075437600422129 -0.03982715929926689 0.2482083856532693 -0.13181454554185684
Ni 0.33527663286393816 2.162230332653953 9.331782416280587 -0.33236187767373726 -0.7600738874147103 -1.6460094452219525
P 1.094791035691702 1.7853091282283868 12.316829268491716 2.64700701170306 0.870430005972475 1.20475055003448
P 5.143088863155006 7.991295623240416 11.154777190072561 -0.26753202568254575 0.06994583306151825 -0.24290034317679457
P 2.4303643205772967 0.0975634763012369 2.181698443747587 1.8133782337193352 1.2209546705981682 -0.18843666491127548
Ni 6.7870606333225165 2.5423057281200143 10.147978834583563 0.924275591038021 -0.14799912572151933 0.22392663028776916
Ni 1.3768645130520705 6.289207189414758 8.61704087653907 0.005450995812242225 1.0236006485926048 0.4766102781035727
Ni 5.097089472995533 4.840018278281668 5.775754837088553 1.2593265855081472 1.2303921618619842 -1.0364800756584345
Ni 8.62366005281056 7.193683032560483 11.968589927932326 2.524797850461452 0.045900876297172565 0.67125307182556
Ni 4.701132124401821 3.2660122002851297 9.266001345888851 -1.5760407293422987 -0.73000097928873 -0.7371180499494854
Ni 0.9946339078721229 3.6551709259616474 10.836253844048928 -1.1993766873170764 1.737932296775194 1.8716252902866861
Ni 4.650544820001628 2.800718147763123 11.61088708926874 1.6811381706042854 0.002818186175085469 1.7958299404229265
Ni 4.51843878938478 3.302743263692181 4.064693145994908 1.6227067659402699 0.5439415563603794 -1.336789295772001
Ni 0.9923492005788614 4.7938986403699175 6.914563024992578 0.20850129687163443 -0.8989576810985227 -1.623450843195146
Ni 6.1617538218283165 2.772432176496751 5.82339514657525 1.2737371045065224 -0.5235475660850596 -0.29995543631857374
Ni 3.474669799966887 7.8013874230867595 9.600201298878556 0.12120077458175255 -0.15396819882076063 0.11543687551478182
Ni 8.3931358618686 2.35541297160038 0.2439521649404539 -0.08310808147508912 0.7873674330233408 -0.5442814561983014
Ni 8.462740810782742 4.279145762353703 8.667673505092043 1.0392735792431715 1.4917913351739147 1.0170502490685969
Ni 2.6622112367943034 3.953255854029043 5.124493010756734 -2.0204520541158235 1.5071747596085205 1.2504436811962207
Ni 2.5382820533322863 2.2649404127526425 3.6694498840531775 -0.9018177762551373 -1.76548912334754 0.40766820371622053
Ni 3.303677496229102 0.4116293306462355 0.21205506117493517 -0.4647122411144061 0.7195802981760382 0.48556465908338303
Ni 1.195799147604318 8.600822229705043 11.46414875716521 -2.4446048857506284 -0.8385241584028139 1.3431532903168157
Ni 4.84802862854873 2.5919495501561873 0.5858914482632435 0.9372169816900376 0.8941471470837569 -1.8780970140539588
Ni 9.220495896496423 5.880466579771299 4.058546635888137 1.200142104728191 1.4137632393248942 2.455508162926694
Ni 5.174778770793524 0.9208609868675205 7.377861889809498 0.25591758137206894 0.5424179206270013 0.3201267690601261
Ni 5.0555762489787 0.9761157540214767 10.139124900085143 -0.5244767627675483 -1.9443805677725416 -1.6030668802221553
Ni 8.778511408261943 0.22747637291309572 7.160061761023854 -0.12131261756926848 -0.1123536086037678 0.22132235989570273
Ni 1.6144555718970748 7.681000923403363 0.393529268980429 1.7950421544143087 -0.3716953851660373 -1.3565207127626573
Ni 1.8635256661709767 0.3575113672426511 9.597873117397933 0.09488939038073335 -0.8629624939508364 -2.6544367285082284
Ni 8.013633955682629 8.545314017288595 3.924669263381979 2.112320398282046 0.7290159896676413 -1.4505840076976695
P 6.943604707132875 7.395717756039911 0.3908680937242697 0.010472617396549706 -0.9619682204927884 -0.07270025587820382
Ni 2.7346003836650117 4.750405953354065 2.9122118636742864 0.5052829634479169 0.19762733027160803 -1.0513965877589506
P 7.091037701251481 0.5310122240894751 8.682849696412102 -0.5351566110788978 -1.79464491897589 0.8344402181414274
Ni 3.766104102350659 7.392091823817407 12.80735407438955 0.3203417132844096 -0.2600740267426037 -0.202951827808315
P 0.3573605950609501 3.188406150931023 4.089386484416329 1.0660613888599768 1.1911617556064518 -0.7527572991486391
P 3.2824491430386757 4.067250723187567 10.564233078778912 -1.6462323598660356 2.5659948935250516 0.49065852866652265
P 6.670660809118454 2.879295428962543 12.50033751327611 0.2828162055351258 0.26656991887959247 0.5476632281863407
Ni 8.360363724459589 4.841470501136088 2.474810664766977 0.20644724255608315 -2.0073435417583236 -1.4501122102675734
Ni 3.9787761269930453 2.7904878389924863 6.612799440688218 -0.5016019150519039 -0.014503078712181474 0.5753740638380478
Ni 7.4215247736439585 4.84652090673172 0.47300100846024784 -1.0862432631244907 0.053734513408978425 -1.6169809192000864
Ni 6.832079541809577 6.717326186828999 2.730166016554122 -0.18837958642109492 0.15573454669256406 -2.3796104831571148
Ni 7.7994264597419365 4.3677406063005 11.252779108178254 0.3586470366225114 0.4979365503851747 0.2595937446720755
Ni 1.8669481021973198 6.206430486712743 11.659312709076078 0.2737841772398446 0.03611165812089265 -0.8676940950985509
Ni 2.0038917923865394 3.999366242113694 8.787593813489691 0.5927302957283083 -1.0496307541077794 -0.18868451925602342
Ni 1.1862903253473427 2.2158053312068717 6.90329858555236 1.087069615680528 0.27049162253150194 0.8901336550489897
Ni 0.36865093401704335 1.7899432916045974 2.313653702182734 -0.6962292821549235 0.6141984929044132 0.6755925797411785
Ni 6.110361782470579 4.038391262641105 7.87606220223344 1.307796765194393 1.782984709029142 -1.4594851668420414
Ni 8.92198547638251 6.969698469376968 1.1682975616758757 -1.7465650327495275 -0.8679712600193374 -0.06588014763257685
Ni 1.785679121312316 8.75429536091879 7.233654310400042 -1.4859883553388924 -0.7320288083520361 0.6541950879020088
Ni 4.788792735811698 5.940081715419357 8.852426776603858 -1.0246681706251708 -0.15200670421901563 -0.3965828924363363
Ni 4.932359302203246 5.4646313527435 13.521432401528124 -0.6582579451174727 -0.3812776295378337 -0.20588982739071637
Ni 4.649148096109796 1.2830342669676769 2.347214849843223 -0.6268359791627656 -0.671072837493954 0.6389260775580803
Ni 9.221161884047497 8.417092914053002 9.398146225779511 -1.2554588750226248 -0.912118643960513 -0.3677142890311022
Ni 0.48171249562135604 8.859946886034715 2.400257058355284 -0.7825795247163941 -1.2360609301119874 0.8915665308407742
Ni 5.9712443829132775 0.7361049404075763 12.312416175983152 -0.5315390689309684 0.8195825843033046 1.2275148403141891
Ni 5.39850433881829 4.625329791331867 1.9862764216606799 -0.2591743977464698 -0.39496592565820365 1.1999880956488302
Ni 3.543349766171207 5.031045707514208 7.263235257460165 -2.0712046020783426 -0.1795699585492649 0.44727604791582964
Ni 2.6626274790137234 2.445127044626063 1.4490862380523004 0.7899686180916138 -0.7535682250857086 -0.8676226184306671
Ni 0.5023174104653618 4.979783165735845 13.0842744730735 -1.8600846366369386 -0.2972858599062106 -0.2052542506892465
Ni 5.607374684523307 8.038229245936808 8.125406091389449 0.5999846632978764 -0.8091364492693162 0.05614466551236782
Ni 8.723567435298488 1.305696343358328 11.300974407290845 -1.773466999346694 0.06939484565405468 -0.28124243329010273
Ni 7.681250668735015 2.328135231487715 7.92921263372255 0.15715096742411644 -0.2002827656165841 -2.3375693469256644
P 6.611221420185261 6.22849132434201 6.902771345407761 -1.3651771028860746 -0.8286850608252051 1.9476954910783877
Ni 2.643693082943657 3.6245817477478175 12.738811005626285 -0.16262330339259734 0.06449869390401795 0.5939816516369061
P 0.3413556192328915 7.864424994761163 5.149470318870071 1.3644086001511662 0.014118955899885363 0.6993793977481311
Ni 6.9807890120677385 7.049135984496522 5.0193021270303015 -1.4293492666886092 -1.5539667802613946 1.1137898052841915
P 3.1745314102836852 7.190334595150926 7.411584909444206 1.4756553488440005 -0.31101529367716113 0.5440616268780114
P 9.012615282290916 6.086848721986892 10.126778230874432 0.49460080114372235 -0.04473899477858746 0.09805133304848275
P 6.827399129297875 1.1023388946038537 3.8125465592281365 0.993764796178095 2.6860142462041936 -2.22301127447141
Ni 4.907449517827727 5.302787128005859 11.077217389853946 -0.7036772537925365 -0.07968517183646921 -0.19559127367818574
