# total energy = -340892.32066193246 ev
CRYSTAL
PRIMVEC
9.02708920055371 0.00000000000000 0.00000000000000

0.00000000000000 9.02708920055371 0.00000000000000

0.00000000000000 0.00000000000000 13.21205751717227

PRIMCOORD
 96 1
Ni 6.132164749189717 2.212268701903446 11.307565486447281 0.21078623625106924 0.08621937341056118 0.30518634570020986
Ni 4.7036640228608615 0.17622953963834673 6.034804886168379 0.12046903862205062 1.0364052565564408 -0.6085610921129777
Ni 2.7131908977549335 1.4280764531457266 4.6687318965469276 0.7497203120945282 -0.6421535833564425 1.4056694065731663
Ni 3.3190710574413718 4.35475800581565 4.766408610392261 -0.068863655740933 0.19438645473680716 0.8236518692766719
Ni 5.0158929772879075 4.41247721289922 2.4103943486268578 0.7169176637422106 0.45689248795967125 0.3684491103145977
Ni 7.247714353971306 5.888189614712448 2.5666406213398214 -0.4121295819216838 -0.938319727835913 0.17928302343646543
Ni 4.963914998810085 4.623936772788592 11.292424350062973 -0.4729032615656308 -0.5535759941263498 -0.15861161113004296
Ni 5.677425140676289 7.81485024765795 12.264832307236889 -0.9183437989346185 -0.17689806814405662 0.5854741283865272
Ni 1.8472132226323177 6.562594407018746 0.6201267115505753 0.3841405529079255 0.0065627408191822455 -2.18499340046674
Ni 2.893272296270753 1.565279178898493 0.2750526937870299 -0.2576818723613433 -0.12556085132266118 1.5323504875431997
Ni 0.4484838358345247 0.2175727045620322 4.669761887402141 -0.06732279361637439 -1.2082485358854096 0.39616971615831775
Ni 8.473304173696393 2.0772053962443304 1.1738068263697232 -0.006611591779246678 0.974800082150134 1.3181099741949427
Ni 7.064383203414498 0.7192134566981387 4.777598589920068 -0.689791754059696 -0.18536265397164206 0.5792685137964475
Ni 0.9357480460248548 7.440406595823965 2.508282296354856 -0.9351678124704927 0.40796259502818777 1.427867282826444
Ni 7.763955519860457 3.941218031510762 4.080424771022138 -0.02513073362935672 -0.278671587239133 -0.8385246726234461
Ni 7.7121941915187 3.669791519376136 12.528214780361164 0.7734112279535648 0.5472652214169736 -1.0377316886773482
Ni 7.936246540566905 -0.2596967126844553 7.0148759391967275 0.4505107528030434 2.167373887612764 0.7147368540408078
Ni 6.724955629822172 0.5570454135993724 0.41763285645873327 -0.6707406509655157 -0.8346443637324334 0.2888554697506703
Ni 1.9451300570451249 6.378983416702852 9.326998688812969 -0.6370525146844513 -0.663848808941689 -0.5174982745671861
Ni 9.124852376647732 4.71643735379975 1.5384777516493342 -0.20883554028260162 -0.862983834107075 -1.4078587009150012
Ni 6.315342439233478 1.8935221892164147 6.900063102297476 0.4080901217449875 0.21319510280287796 0.7588104473212545
Ni 3.4699498230333012 4.2139263902837785 0.3704500676591702 0.7012146511846569 0.4803769442348566 -0.23025565782959057
Ni 5.881013078955263 5.637200432080043 4.916827897153952 -0.14187192977785887 0.11311645491172131 -0.688930177390349
Ni 5.2009663560222466 3.0847187998410317 9.05286224455972 0.5456359133436667 -0.3657062574621379 0.32728909113652016
P 0.33960269911897983 5.564324742560859 12.482421260559125 -0.814432664671249 -0.5988757465044138 1.1156731383498333
P 3.995299321726225 6.168020346708632 12.500455578968815 -0.06965426996302843 0.3819972813126776 0.9205775733611435
P 2.4433080178397772 8.664434729151575 1.624383141435085 2.0944643439372315 -1.5186045987120167 -1.5210618020032578
P 6.5788702484907 7.717565309475335 5.960989476684008 -3.6525184068941225 0.524456193942258 -1.4167786291124502
P 4.684120375169912 0.9426357149339516 12.491378840976552 0.9500128479031251 -0.7857108712565242 0.09352696281556797
P 4.025792828377508 6.249029443419293 8.220158419501232 -0.21410193088786353 -0.30126412782766826 0.03994183050026024
P 4.859236874734219 0.9939637430035765 3.9543027970202456 0.050709610539725565 0.35750546681890044 -0.27788560100272786
P 0.17765491699188063 5.6061833542666015 3.5296802655466846 0.49271618252649985 -0.48451436344199783 1.0952372390929848
Ni 1.4120082347208351 1.1846700252756301 2.482584882090734 0.13971657399775292 1.6595666150810968 0.6659833387861885
Ni 1.7939533975161046 6.531198191467189 4.868392148400807 -0.441780057798265 -0.3311300621491652 -1.59968947910949
Ni 6.040548822900828 5.578063972023041 9.142519292535011 -0.6982751089403588 1.508475737808131 -0.17873717823532445
Ni 8.585890027738666 2.269428229468846 10.219658633609908 -0.5418702756536474 0.6300848251173665 0.5280575381402712
Ni 2.3067913508512197 5.50240793909101 7.032910257606416 0.5076697185125385 -0.8640948077830668 0.2866998568602482
Ni 0.619055196085949 8.913203247889305 8.805650898674964 0.39225983958095023 0.6633741832981156 -0.5122647940823887
Ni 1.3773261587722774 0.9059676794047893 11.36308298652308 -0.2764946341924722 0.5183513665961009 -0.3708713466028451
Ni 4.0904809481712 6.746051936821592 1.652115261560427 0.7978439070746324 0.5599219909490357 -0.9422414314878224
Ni 5.584581530283025 8.109223620037563 8.029839399347395 -0.03655851585032413 -0.6576228826366352 0.7503134655938368
Ni 5.240234193184201 2.9804739760372985 5.020383954066776 0.12748275093572237 -0.3893457512579488 -0.9239182076986023
Ni 0.5504059896378513 7.240953064308248 6.823446587095553 0.9861083080741018 1.395471382994242 -0.05015656624973298
Ni 5.061245072437714 4.6683139423261 7.076456934955673 -0.5043190568727508 -0.1331083246526159 -0.43065540864001317
Ni 8.024982825463917 7.197595955828049 8.985440722215994 -0.054049473546235946 -0.17375000943337818 -0.04599369312129498
Ni 4.4027279567762525 0.4068328471758456 10.363537794389106 0.8432735001623411 -0.4683446956606708 -0.5900375793874935
Ni 8.010692943572568 7.180959030795985 4.567131107112099 1.596402323717786 0.03403497809752203 -0.45074240919787534
Ni 7.217888851906227 6.0648316923182195 7.001227883333472 -0.3865694740643923 -1.218648648172811 0.7768212820763783
Ni 2.2113389117361626 5.364446937862013 2.619528530389121 0.7055929827580106 -1.368595127428688 0.501702188075194
Ni 2.254650884771347 5.089066560744183 11.664027176987792 -0.05910940456764659 -0.24990094286434383 -0.8818495606633264
Ni 1.2969850666478204 3.143412932536899 4.0162539034283045 -0.7026968921571382 1.2282874568141555 -0.6815076596740327
Ni 3.614915845328431 2.6358287450013833 2.9733335486361243 0.09770320568044463 0.08875499534822134 -1.3645960335716238
Ni 1.311121488026124 3.579457439725637 8.292587268114781 -1.2380054554328679 -0.057895843875519645 -0.1856274775972545
Ni 3.6566571048771377 2.680684350256038 7.0322630153249195 -0.14617827046269666 0.4994424455067399 -0.42032214503480514
Ni 3.877947164690502 7.049524614915974 5.946548842406313 0.9733643781448719 -1.2492997973997646 0.22341780897215072
Ni 0.7650259333870846 7.272322198592796 11.208461589830613 0.03394833192098669 -0.23055390579629972 1.1640960097379112
P 0.1825846102962813 5.639583583576768 8.131796758797833 0.6103482659203875 -1.3937330601468965 0.6888407030003362
P 8.574922114600326 1.675779775381131 7.912159558980872 0.024103063695790745 -0.9867937641769005 0.9760933470402611
P 1.5258849624905007 2.978677585325751 10.46981551863626 1.2983811283074478 1.3743502847449105 0.46021152503057516
P 4.032644388930594 6.087787579652208 3.728601198811239 0.26784158650316453 0.2899715856329844 0.541489495275461
P 6.924030023599772 4.2265552877986226 10.434089911198983 0.08142220913223397 -1.6272141668923201 0.5722874544929241
P 6.3566865068660645 7.815789064914236 10.191490505085733 -0.8447863372624418 0.7061511692543258 -0.25208226678637874
P 2.1876247489259435 8.493488744706537 5.682122837793318 1.0747337198229943 0.1899235338694471 0.9818045384924251
P 6.879354960125172 3.695834671149064 1.2727310839152373 0.5983862084625049 1.1210655130099982 2.129515164893778
Ni 5.255598298666878 2.580880854241656 0.5700642813591356 -0.8281536138017672 0.21578420368629286 -0.057039409412495315
Ni 1.5498067483477829 1.2617794195371035 6.79538407551271 -0.222060780723624 -0.3510710240474664 1.185085981726017
Ni 6.787982765239357 1.1354362818546428 9.242402226932617 -1.0053740982822492 -1.194151691472711 -1.0018599144814035
Ni 2.529688232507073 1.5541578052471077 9.133178060834966 0.3267319330814695 -0.6706660889738384 -0.3180053518417491
Ni 6.494205180733927 1.9475041814528475 2.7615047808065407 -0.10352392612727977 0.5901720480828287 -0.6016191135775059
Ni 3.999099726196382 7.0622167020538384 10.380449142926855 1.1642245648959757 -1.0312198557007597 -0.043139511501951514
Ni 8.207257806607405 7.207462564108052 0.39715851589160067 0.3860477972329674 0.22078962732068427 0.3293757984622198
Ni 7.813288561260475 3.6507172803133296 8.260138493985503 -1.037761256363703 1.0669666742830657 -0.3016099412028612
Ni 2.982017608256768 8.355103470294411 12.358875617758615 0.6023459644412014 -0.6184683239243607 0.524511986880858
Ni 9.02271086458164 4.831650090741823 10.2905934989935 0.8436015729257214 -0.400952996479574 -0.1577880867874831
Ni 8.678553096351873 2.387836555917891 5.866880268412561 -0.23763986610880364 1.1081624317950851 -0.23283473141067645
Ni 3.44015140223523 2.399806475935535 11.283017220613209 0.6788751071471921 1.517787245017044 0.39786433025192125
Ni 1.040796280749833 2.9006564550750005 12.755422097015831 0.19968421280063675 1.0351310178297075 -0.4961637747554681
Ni 2.886122841780576 8.27527692224311 7.989608371788849 0.8585304263214117 0.3235090552687977 -0.6038796274769084
Ni 5.921463464776577 7.942899505161931 3.585646411945921 -0.9708549814594571 -0.14052544305229347 0.13648161200022302
Ni 3.3791824431106705 8.264408307083801 3.7105009826518285 -0.23791214593358384 -0.3100115350029951 -0.10980744514314637
Ni 3.2121632423818274 4.230843155074928 9.528522131837015 0.3221304297537162 0.7100703018030738 -0.34253727554484237
Ni 7.521867046984761 6.379452825330995 11.42989608306802 -0.7823882346411944 -0.9845139670037882 -0.38565236156676164
Ni 0.762685209208672 0.2056876391810142 0.3061049772475826 -0.5013270641239624 -1.087055988833773 0.18435812396652765
Ni 4.606649897348329 0.3376790264524942 1.7661346173363361 0.07152654728507682 -0.3523329214790255 -0.16676457925448054
Ni 6.093555889524964 5.405574355358533 0.13841055026133411 -0.598874203842517 1.1568359857413884 0.8376993485086733
Ni 8.271295975992897 8.860701698249322 10.642629207795967 -1.3897653337484002 0.7994462185647458 1.8440648641699144
Ni 0.08183417264551146 5.113710513721686 6.004866545490766 0.07895343587676724 -2.317814018675608 -1.5387959860582272
Ni 8.215048184416776 8.909655601911224 2.436989958246754 -1.3740463803512464 0.2103031259670636 0.1274963777824772
P 8.607347418298197 1.8234990598220986 3.5761336655548255 -1.1390339245629608 0.33964092783365374 -0.3016189400639257
P 1.9859054180705376 3.3182586194311243 1.5571331337824132 -0.8416868724015117 -0.42320923677461314 0.6886031330682334
P 4.524927660606451 1.0994904134457004 8.169675326962265 0.7064864411065575 -0.25231855116690094 0.26495115232924693
P 8.24275232056621 1.3400262270129228 12.373487766727363 0.33213947725028603 0.1616064320923088 -1.7125825051564958
P 6.353003454552944 7.448549030104443 1.511287256864157 -0.5972479810930037 1.4093864504134372 -1.5255514623434951
P 1.7724508715115588 3.4367481896811944 6.1645611662027795 0.39835541095572685 -0.14576972217036832 -1.1161264238371682
P 6.926512473075527 3.9074567186404847 6.09281927906234 -0.07399300654769836 0.6036932224977152 0.2679907104865191
P 2.227118263312966 8.407830697159461 10.182268430960525 1.3604755836453473 0.32002855291936494 -0.5285838429573864
