# total energy = -381174.8960975842 ev
CRYSTAL
PRIMVEC
9.20645982818768 0.00000000000000 0.00000000000000
0.00000000000000 9.20645982818768 0.00000000000000
0.00000000000000 0.00000000000000 13.47458456177717
PRIMCOORD
 96 1
Ni 6.78501369279555 4.670289838227285 12.165812079025907 0.5292962956433788 0.4845755556972364 -0.2609865112545441
Ni 5.207026454341041 3.022066516679607 10.195153671969356 -0.3178623985059816 0.8658786391563668 1.0203949971711137
Ni 7.787403847612869 2.9994002122392622 1.052814856706112 -0.23576064680821976 -0.777270710908971 0.1692582922106117
Ni 6.518394612132524 3.2652275373450705 8.179019035256623 0.48457195615281057 0.1703039598663067 -0.6834339301624681
Ni 2.4717779914934757 8.276699575513344 4.1388128726930455 2.3070817198597684 -0.14370615477312024 -0.2349988289415308
Ni 3.429185382908876 0.8599570126578687 2.8179666643648713 0.9076662646161143 0.0631015564461752 0.3811537023654597
Ni 4.918514411874955 7.356025959368852 10.180277873953635 -0.2586300952072256 0.02803428042939688 2.0905076732823287
Ni 9.025341280702406 4.948389374469966 10.316586878942607 -0.5556061371825012 1.254801186833968 0.19900338468352827
Ni 2.4708481390367436 6.097171449232822 13.111242786669399 0.27540165823860957 2.2840104398626018 1.5032440570955465
Ni 5.747574544881403 0.4377064088257763 4.126483581504374 -0.11602951479345823 -0.43343657092957616 -0.38456452781922157
Ni 4.616726654135522 8.633845777038234 6.154866492558065 -0.6039140802592695 0.5951108801453429 -0.09961996308718328
Ni 1.3371738650807943 9.070904051082287 1.9131751123105634 -0.12679266684723325 -0.9030799307970124 -1.133145584102984
Ni 8.11888243874796 2.1868104361149316 12.140695014942176 0.20687250301895985 -0.20821333331757041 -0.3632634523486002
Ni 2.4701760674591053 2.87352028510164 3.988450206563462 0.546036491216195 -0.8886526996280889 2.284836535308323
Ni 0.16748484037741107 4.137465967599779 12.760189420351098 -0.5071043329273718 0.712609780395476 0.7871468323721024
Ni 4.771984395029902 4.22303080653908 -0.04840112198790482 -1.105722969115657 1.0405341911231498 0.8590978687891075
Ni 6.861335245927334 2.8201780560490994 3.9818206347407603 0.1726125533948253 0.4207684885436044 0.38088065120973114
Ni 8.110449321417596 0.5281644812378812 4.917293635283244 -0.5635418470898101 1.8675565195339514 -1.76867960526038
Ni 3.3439795959083134 6.073538466495874 8.766753915715157 -0.2905310576808803 0.29242416093853507 2.3769005404251193
Ni 1.3787318253747478 8.608969922205654 12.93732631335859 0.7437756644753191 -0.1463955286798253 0.5178487159280694
Ni 6.181797229255423 6.49983438883775 1.1503306013294141 0.6875199273063837 0.22548034792813423 -0.5435227236554058
Ni 2.772451767576823 5.139285321899103 3.8701840218190826 0.08095529679814446 0.8519214056453264 0.08385370139186203
Ni 3.2051369731362453 2.874505376318178 11.49877919692805 0.22618714418717173 0.039853641661828136 1.561951341128768
Ni 6.382286307970847 1.6316424871459485 6.146593567631138 -0.8164512377631746 0.1267463869903301 0.026980385243585793
P 7.855089741295001 5.032702134853667 0.9789173644838086 -0.3167550243744158 -0.240089870311193 -2.7499796933125604
Ni 3.9498567263790902 1.7540147530358978 0.46248927841268234 -0.48385796080492144 0.8415112660555959 0.07283035369816489
P 7.324926537598144 7.83260756605401 4.039936413286525 -1.7066833660632412 -0.07186696134363106 0.19548097335256656
Ni 5.757766096065588 1.8353814462299525 2.072094262334077 -0.21441174881879846 0.30071185486862406 -0.8324044186583213
P 3.006277437835094 7.872443918334014 1.0536802639430707 -1.0416731898235994 0.5555927674460626 -0.6748377038530249
P 3.908400037144781 6.805046949685147 5.0338216403857325 0.07909870320537991 -0.5843839806461419 0.3199735313117134
P 7.115479573334199 7.316741994686907 11.825969419010212 -0.16943929787316628 -0.27797430406179224 -0.17500419355545344
Ni 3.784425847220461 9.09662690023189 12.584601974556163 -0.533477680714578 -0.2661937664870964 -0.9879013954187824
Ni 6.789598509859437 5.592077436027863 4.395180560182097 1.9441396554063293 0.7415956261048647 0.06362066217443882
Ni 1.5900108751722537 1.8929218210277394 13.05351736202626 -0.8737343877553597 0.048745030614187015 -0.5319512167677226
Ni 4.23949195696123 2.6797058898627584 6.12251407158576 -0.5330035692916368 -1.1168823281665863 -0.2730259589175814
Ni 8.748190009836396 8.181044456449504 7.754690533409833 -0.1211210703837527 -1.7784788507389886 2.3993066760344615
Ni 8.820819772521153 7.636325839543799 0.7968651424995914 0.18441905911145012 -0.011236492145767744 -0.561372350242317
Ni 6.12959660123887 9.342991768966094 12.365329876214746 0.4865874439209426 -0.791930884024307 0.2740847391993989
Ni 8.922173690304968 2.9960858866509095 8.269285613301399 1.29925761737513 1.2702200924921996 1.0097357176850545
Ni 1.4418052826130898 6.642534518336262 2.3107965944372095 0.7217389963902539 0.19432731936409758 -0.6646450795907393
Ni 5.2370303073755995 1.265731735731862 8.335243454447605 0.04054244019873663 -0.1217939280810612 -0.8905931111839114
Ni 4.160316401239475 3.810194728669902 8.1493751548068 0.4540653029235212 -0.012816435038377927 1.508061533088848
Ni 5.906441218083101 2.452775858120255 12.769379308690802 0.03986109786099586 -0.5122529670078468 -0.3387207300122296
Ni 1.4712015092897832 0.7519247288135246 8.2763994449184 -1.714826821105982 0.6517965057628452 0.3947550951989782
Ni 1.7433168465534934 2.1612809226246497 1.9161128936862395 -0.7137793752235448 0.13249280255580406 -1.028797619412512
Ni 2.6059989713617853 7.398403294599927 11.07640522653239 0.023993020480487712 0.00960435585898346 -0.3564106910928249
Ni 4.722122207845132 6.458801196761953 7.14803821900978 2.558525838841516 0.7955026605359654 -0.7400604204072609
Ni 6.769123342891393 1.3291182126091041 10.169485140933563 0.5645715739059052 -0.36050671553906943 0.34137565113657337
Ni 6.078270586919244 8.013763078837378 8.463696587146185 1.25752861306746 0.7583239946031393 -1.2751666378641975
Ni 0.22698987373229362 3.1327926107104838 3.516422114978302 -1.1558031736014998 0.9341077466370944 0.18397888625023798
Ni 1.8100084425591203 5.057688467205858 11.278267909074987 0.6451676875924178 -0.4732364765353334 -1.2780735270983472
Ni 1.644559150480556 0.5102735675827549 10.808772514626927 -0.12644582503077575 0.20510769780905322 -0.16964164369195944
Ni 1.6623184117581447 6.575649586671314 5.4363483243831405 -0.27288146291991716 0.3354667418513061 1.6668351237180519
Ni 4.876394857522975 8.797601080482751 1.342787043723068 -0.4298745646099306 -0.12961702366990582 -0.517832003757521
Ni 2.5438461601202076 0.847316543122291 6.051948397225748 1.3745436317026392 0.30257384777802726 0.12454886511837905
Ni 1.2330119770068484 4.454536448885503 1.485802034152473 -0.0985033329842368 -0.16837871781913583 0.6134585294145951
P 1.985023246544069 8.053995308895992 7.49364780554921 -0.04635339045355888 -1.073955446896073 -1.0918369551621843
Ni 0.5681812801332509 2.101917668753269 5.829388672029886 -0.37120944666855427 0.1800355853317738 0.7359281434064423
P 6.529359505953991 5.302285695626273 6.824796647607742 0.9201232594325444 -0.10628066293681052 0.21566310472739633
Ni 0.7092454216955117 2.928538089868292 10.721794484082594 0.8592868448714621 -1.863396731729307 -0.25075660599641975
P 8.236743539253762 0.787363155166984 0.34853355822515486 0.1537637961194384 -0.7121477531573929 0.07951805013098563
P 8.635714688411666 0.5026294438716185 9.570175899003704 1.7303179747630457 -0.6048574180091454 -0.11129277143942125
P 4.693342813986271 2.480036186084454 3.920726566395462 -0.22609175625988803 0.09937750805907401 0.013759001457305338
Ni 5.064132989183209 4.561027571331264 5.097569931139703 -1.55434961752211 -0.16311412698608682 0.2413741363402553
Ni 3.757137899876359 6.0185114552692545 1.8091246224022262 0.8425001123314264 -0.005753871764641703 -0.33750459821694134
Ni 5.923012846024863 4.68822402224426 2.481924431023818 0.04453484918758136 -1.4937759697041113 -0.45632196016818183
Ni 0.6037034852724159 8.870276875467347 5.937723848407165 1.376446505152307 -1.059957075734452 0.7814590379587059
Ni 5.14868511752607 6.768000154775341 12.646679292826004 0.09531002285791973 1.0356562942055583 -0.07537111784214762
Ni 0.20997909765007428 7.751167221180214 3.953267719797103 -0.5307232578978924 0.27164990450566123 -1.0474648568047122
Ni 3.1166168605473303 5.062890117087577 6.596213135655049 -1.1274806725077229 -0.7843217042184815 -1.3435222436204604
Ni 6.943742269097733 8.452561373815318 6.280841246233354 -0.9125575312701445 -0.3038087486263929 0.1389974364435413
Ni 3.743245351785181 8.666252516124347 8.567653171162853 -1.0631892095185045 -0.27146607062962924 0.008062722403476438
Ni 5.90179195579944 5.337371514562972 9.318766810853226 -0.39149082262540963 -0.1673451343482989 -0.5511313892405991
Ni 1.1069203012899702 0.8075253024961285 3.9039910634662753 -0.4526905340631816 2.094515508890141 0.4688113508844442
Ni 8.122767564854305 1.230323690696296 2.595690498136012 1.4593674103172545 0.7402915625814604 0.15682006644725896
Ni 8.328752900170416 6.591199297556669 5.871105904081279 0.38795092779295126 -0.8335169349962096 0.5075396206925775
Ni 8.597084382387424 8.999903831811801 11.596093320078062 -0.4959503731930814 0.22339749725717656 0.3515883300035171
Ni 8.808805342263376 5.353473613046385 8.001531376124364 -1.0593873192739112 0.8130221574769676 -0.7041305392798712
Ni 5.259512482616591 7.202425381268648 3.302823037268949 -0.00528593098928767 0.246604274390943 0.46685602693028627
Ni 7.7282247229408405 6.73718613326363 9.776000121270382 0.09482922656675927 1.6097998280706145 0.38976766928671586
Ni 4.119798770921866 5.262974111564426 11.315983092978446 0.3919826746601636 -0.5966741108674047 -1.2961051877890775
Ni 8.071634886194 1.1259960863429324 7.617613709659559 -1.2531520812663193 -0.5552577527041469 -0.8075269386903512
Ni 3.7000210222370833 3.6890285090357144 2.1645436920371837 0.36338583685907744 -0.763576244141014 -0.6658892364104855
Ni 1.694964518803417 4.381879066820843 8.938864081580313 0.6344996663556105 -0.7567936740015417 -0.9377905948053205
Ni 1.1636781269905072 6.880972625038323 9.096341499972892 -0.5184768364303716 -0.2452973826540614 0.783652703175915
Ni 8.304190064976737 6.1086519048124766 2.5980887809575837 -0.3789063010921797 0.9004100972743331 1.1192086623069177
Ni 3.0854253741769457 1.9778330013093375 9.451855396145517 -0.5918514926677807 0.5503963108467876 -1.0897579611459682
Ni 0.9259028854061163 4.357399089766871 6.246170638641196 -0.376993400340183 0.03315643214731064 -0.2805878304252393
P 2.3683526202169416 2.7156571160364154 7.426342138663741 -0.6349429245406162 0.26553582118812336 -0.9505898034525178
Ni 7.713512799912543 3.594570229767667 6.107544367678368 0.3805116979060866 0.5642782110352024 -0.31072450190961975
P 2.54270455908422 4.029547843859033 13.246756353517165 -0.0071684927239812025 -1.7794335013427742 0.4486371899294144
Ni 7.066215806047326 8.661244201901948 1.8630772397506217 -0.5243032133041615 -0.4655406505529724 0.5787656060181
P 7.430570665726881 3.69428539767724 10.204437466200732 -1.3051966085673845 -1.4273908574106577 -0.05898779138811776
P 4.380249523406569 0.6510854521419023 10.431350005669296 0.7461073979322892 -0.8320241525007671 1.0914500041364106
P 0.4465105464928361 5.343466191061554 4.078136777630278 0.7827247920450068 -0.9003183088914753 0.621979936622045
Ni 0.10821549239770027 6.736375964786477 12.102157694163608 -0.27369058908477384 -0.8451195522321445 -0.7250181813621578
