# total energy = -340859.9904495441 ev
CRYSTAL
PRIMVEC
9.40155342365434 0.00000000000000 0.00000000000000

0.00000000000000 9.40155342365434 0.00000000000000

0.00000000000000 0.00000000000000 13.76012375910429

PRIMCOORD
 96 1
Ni 2.1044248912769095 2.5745307617659208 3.0952433134474253 -0.8723650182116588 -1.7112488739467366 0.5735928035679089
Ni 5.741453398009625 2.506632743713571 4.540400261039714 -2.7194861527093943 -0.07674665803343557 1.1976064827905308
Ni 1.098994574941763 6.478751413755875 3.677695865758919 -0.9130990055959114 0.49787638657120065 0.52535993670345
Ni 4.23953645257914 2.8392032907343157 2.459897622176846 1.2018847984509107 0.10093585368512939 0.27905776693395806
Ni 0.40877201696229865 3.236954806898918 12.904353966302452 2.3160774956004757 0.5622946049462703 0.22533585193046998
Ni 7.810462637942973 6.502894602672856 13.615725318467566 1.4349385878509289 -0.7004842007765356 -0.6231533881048559
Ni 2.1291321733928847 6.594240094696758 12.217201015480851 1.7696864492583393 -1.7254367354113447 0.5434666736064898
Ni 0.2818811321590651 5.25447173931735 11.796719363862751 -0.8246008634535026 1.0429836811049071 -0.08491119612209894
Ni 8.70732381657824 5.580968882895583 5.53569758321025 -2.736181353976888 -0.8305210855926793 0.7230674853936903
Ni 3.319491043465184 5.110806603086672 9.248619188935736 -0.23380917950880375 -0.3979170378667276 4.0861742929233555
Ni 3.564542530661874 9.190488444623982 11.920753116613074 3.2049731644773063 -0.19088332667955513 0.08310576748224396
Ni 8.531599383538019 0.7928517942939284 0.9244396951341258 -0.3917543606994414 0.038820315301307334 -0.8441805853576428
Ni 0.5438243901996563 7.200847117789213 9.67968322896698 -0.9993795712617111 -1.741099895869898 1.5645592110652602
Ni 3.2052151629021393 0.49143799496433405 9.576839637236896 0.695816362987221 1.525728611351308 1.0708061026338138
Ni 5.270031310056292 7.959721698397017 5.991309078951087 0.8131471130906059 0.08974564139626479 0.029457900249800877
Ni 8.488474458474862 2.8308923176024576 10.633782004348925 2.534897143678983 -0.677969050393155 -0.5150202453403387
Ni 5.253108514086446 3.794034447119622 9.550530330435777 -0.12899635936677137 -1.8234980957621563 0.5562229448308936
Ni 4.3491209580372105 7.649037967497273 0.8873665499408511 0.1582308307518565 0.9301155947585658 0.11133545175189857
Ni 5.355999113583111 7.014348504648191 3.7883681309357184 1.4477555371099389 2.624383360766274 -0.1344247294711943
Ni 8.137025592394421 4.58798622315159 2.640678210590723 -0.4710669796878403 1.5513671378550185 0.5678152776541834
Ni 0.20957660606723383 8.038093046844038 0.30475417122297555 -1.450499418403663 -0.7714746730524843 -0.195887721872682
Ni 2.0584418940055107 3.3824626475796453 8.07965543374598 0.514082821127734 -0.4710309842435823 -0.030866864782185546
Ni 3.1747635317097327 8.098789475055886 7.222551543775872 -0.700327106373381 -0.40691744159312504 0.23343945487421086
Ni 2.6508901778031935 1.0132430071412255 7.28086655853263 -0.15485394385982362 -0.1117224027776721 0.13243392429341064
P 2.4669957949308645 2.8628293942188843 0.8392324772706186 0.4016574787457663 -1.2334939407157595 0.3566965977643599
P 6.626543831892532 3.324821724195686 11.144723521668507 -1.5192422322960157 0.07299876095522911 0.9882191837695175
P 7.116750223372393 4.692728928651621 0.727625697694151 -0.47334806241253313 -1.0758498357053086 -0.8078107884793573
P 8.181447931815267 8.43685993076683 6.231643806848848 -2.0092271319342814 1.884007466001123 0.6095396539761632
P 4.967056852876145 6.931060143816598 7.931775581163478 -0.47852600706904674 -0.7656619230254491 -0.20897232297078203
P 0.3579246560049007 1.2635405610885675 2.6816417185463988 0.1151129165164598 0.19355727396729247 -0.417372575488178
P 0.879749411443757 4.373358162487357 9.92981437542062 0.2726048122197628 -0.5874227674724657 -1.0268836902192509
P 8.655436643824027 7.613095829167983 11.643307637308775 0.8602468947918862 -0.5303121385024029 0.443103661705695
Ni 3.3294660915340772 7.2067700963786585 3.1214012552401496 -0.6886118748189818 -1.0800746724199335 -0.709208982244043
Ni 6.712840689785431 5.387635340493406 11.849874806159368 0.16039415695176246 -0.3647904305160879 -0.3638131542044831
Ni 4.977436167737651 4.657266269541477 7.416376787416506 2.7502056932804377 0.6234899455086681 -0.2636889977873717
Ni 3.917758888765831 2.876978731960339 6.446521948831302 2.4752526925434726 0.9390059552696602 -0.3251224225025046
Ni 6.772672175092153 7.51286586925991 1.7103973303810052 -1.0475113937719314 -1.8402737725585983 -1.3812015033387892
Ni 4.82313787470592 2.0979942288083677 11.560210128009507 -2.027047447945154 1.0682290859352572 -1.1228076925120856
Ni 6.418825912915986 1.1392802309033134 12.636650376544791 0.8794340092432983 -0.053084795640121474 0.9117239796252555
Ni 3.026764279400111 5.570542560267494 7.263831884078317 -3.2190116448482433 1.1627749769336426 -1.8515783989381402
Ni 1.0589157531531772 1.6997162256580374 9.416286490783644 -0.446778796564437 -0.5952260655669684 -0.3747048614163224
Ni 4.2166342686999485 0.1719656920242506 2.5352614137178926 1.4756196105100585 0.37497405591730903 -0.26426286801297066
Ni 0.5125529435580438 5.048427296831155 7.6190216282234235 -0.5970512917011652 1.1960784761817789 1.3997458419998796
Ni 2.3886056433772103 4.812335489945169 2.529729539746416 -1.1437490706504432 0.12745883967632243 -1.3134552490317508
Ni 2.5247683400612564 3.0673507850677924 10.847133334072765 0.17401971815499706 0.8744221578510037 0.19651892769877768
Ni 0.24380860184823772 3.226434468737663 1.6018432351664316 0.7496735180169927 -0.9375532819835337 -0.49523586362455996
Ni 0.6046279961193137 0.8235685492898626 6.0553628018522865 -0.08551977624037531 0.04790299432886589 0.31819612769631656
Ni 5.286578043893474 8.761006686015918 9.059995824745165 0.44384336808519687 -0.542675288053446 -0.2616843086525171
Ni 7.193363481349214 2.3759605541664084 2.7852693998230835 0.9503797443242407 -0.9321285114235366 -1.851084232910541
Ni 7.68867491627998 7.291431083994473 4.532708850271419 -1.1407424226136353 0.06692247285416217 -1.2109762192292175
Ni 8.45303060247135 0.5093827397796926 10.186564215409131 0.6826893386869597 -1.7094051358697784 0.9077408266077914
Ni 7.869494991217786 1.0424818379557932 5.045548541205619 -1.4768449982767275 0.694634683974294 0.518699493964139
Ni 7.97942735414857 5.047675172565829 9.89487726314087 2.0243822424081652 -0.08208503952721347 -0.9645020426582356
Ni 8.867169026066753 3.222147360425302 6.372326770367507 2.0858730027237953 -0.6151400308820761 -0.28970341957326234
Ni 2.2488233486662805 4.6932272109774 13.662192495734768 0.6806409407983633 0.7027994791732735 -0.6021022238615115
Ni 5.3231500862949765 5.927209288438636 13.618338950289576 0.19034416634663348 -1.0504488791337006 0.4483021751874989
P 2.1085521731828885 2.7028901691972047 5.629899267131731 -3.3414257230118065 -0.9152461338459013 -1.0552254745867375
P 5.6720981391932055 8.921735641516191 11.25905581155145 -0.13759875632380172 1.2030896173922894 -1.5679168146835838
P 2.359526638969024 6.690916267451164 1.0930480924690253 0.20401035097981637 -0.1224531589316149 -0.23285812844944412
P 8.556353673420578 1.84355999140173 8.218220227302412 -0.31354885873229227 -0.3110924267719998 0.3481823896457616
P 6.010187398010782 0.286402339149009 1.1773809658740906 -0.0439298686137308 0.05904229877513703 -1.2132079367732136
P 1.497780261971189 8.771508221070539 8.90336406618026 0.951288115071123 1.8528999459630415 -1.154329931490083
P 7.614365038865722 5.025572120718547 7.6252275935677 -0.3771319828005763 -0.6820347358220964 -0.2773757512458449
P 8.770248412926117 7.240653294531618 2.516272156329062 0.0914184011129974 0.08854519333026041 -0.8130789788568319
Ni 0.33088390835574977 3.882597079361817 4.076477792167019 1.4272561316050063 -0.6372646306952573 0.9848942331613424
Ni 0.4362189117147259 5.6648965493527035 1.2353669262647686 -0.6899727597222504 0.6889412331339426 -0.3434453891814085
Ni 5.980497292637018 6.003286657876412 9.646685657136443 -1.5162777503510532 1.4800516781394835 -0.8250364083290244
Ni 6.1274529725285 5.171625251491636 4.8130161624052885 0.16469304143743252 -0.8782111925797909 1.1819803462174998
Ni 6.834807040961439 2.6994586022366525 7.045540978241944 -1.2375107751846366 0.8533640516291238 1.0223276954174523
Ni 2.112312794509521 1.1946647814912934 12.65828147041558 -1.4688612087403026 2.600296495020399 0.6043863919099978
Ni 2.2249810094554308 8.784388349114256 0.5618753725674923 1.5607226109279895 1.0225706646661938 -0.17604831854925165
Ni 4.982898470214585 3.441466796194509 0.3018754155974384 1.3057416824375772 2.4707532620112223 -0.9339460242482496
Ni 6.579178806283595 8.330895023335643 13.089124573943888 -0.2698110515247095 -1.0124831985232046 0.7080172759287872
Ni 4.687182012194839 7.019152698392964 11.581208497342091 0.010470560514020677 -0.7386080042314506 -0.06296451664767866
Ni 5.987510851411189 5.360427245195221 2.4741804619753958 -0.7681296678396513 -0.8376592392993573 -1.7314428323961086
Ni 7.297015606664522 9.181077489754085 2.9097845121032173 -1.4220997842150476 2.708463319236329 1.4183398029519831
Ni 4.092345733854744 1.511027050594252 0.09710770405163588 -0.08638520956446413 -2.816359149179059 1.0033724944711881
Ni 7.742470604357457 2.7965484433369863 13.475275513471159 -1.5872630804206793 1.2471711810925359 0.6542660503492603
Ni 7.899655174257379 7.075768852465416 8.273549308725825 0.0691279651459132 0.4346871555072256 -0.8953614791068321
Ni 9.294620049158436 9.017951138158082 3.8831893772207615 1.200259861252978 -1.32852962686637 1.392092182109364
Ni 2.0588743654580735 9.005259041180699 3.0776990748033533 -0.8380320492577438 1.5880680928204778 0.05305317107123767
Ni 3.508781917941231 1.1360931043289926 4.640573811627887 -0.31257826728890686 -0.11127271683476318 0.49184817809924974
Ni 3.2960529710469473 7.543148272492618 9.486820704385964 -0.5049641466559175 -1.0521596911772202 1.2023254855327552
Ni 5.40085392445652 0.9620515493324407 6.7692650521702245 -0.30861696864831367 -1.18457638907945 0.09235608243591836
Ni 6.374836044947703 1.3010433572684101 9.521799183500304 -0.08201202019743295 1.9038273289405276 0.03508295974606216
Ni 1.52002433711822 8.561176670271983 11.805553063359012 -3.847197196060368 1.1825999820793696 -1.36530360116161
Ni 0.5762390657245652 7.618727359604615 6.248871213146152 2.95664830785083 -0.9842658555487241 0.28655433242131934
Ni 3.781323547035604 6.001011481973799 5.250822056319854 -0.32730786018959757 0.1971262222654734 -0.7885362565204613
P 4.180250257364778 4.848512667107372 3.4727109783315036 1.3096790698187704 -0.21419988991830852 1.1626744468000363
P 2.5783195877525027 8.45377332518336 5.250959318998276 -0.6973968201004634 0.4116886377295233 -1.6351485912480483
P 7.496695197555391 3.518174069704495 4.5712373559181 2.40582185144516 0.8671654762885904 0.6656074435040085
P 1.3037322015169523 5.355792279410147 5.550489987198558 2.7413130187764985 -0.1085018389578454 0.7650584851134954
P 5.646384890872356 0.3621412526673874 4.603738525733522 0.16417753525359466 -1.1840238590100898 -0.6571654833842424
P 4.431581982176945 2.042666087540287 8.400239000288083 0.17371915619544276 0.035045421639907384 0.8656991761557091
P 3.885690190402972 4.891148711398068 11.984805899358944 -0.5597073038350684 0.09179815304991933 0.18688217593996204
P 9.314908601215619 1.2705259152027875 12.378442355636878 -0.5128227234683878 -1.2291845147071283 -0.46331458943593107
