# total energy = -340892.7499057303 ev
CRYSTAL
PRIMVEC
9.05989101327013 0.00000000000000 0.00000000000000
0.00000000000000 9.05989101327013 0.00000000000000
0.00000000000000 0.00000000000000 13.26006628574221
PRIMCOORD
 96 1
Ni 6.246631842554739 1.9578424689492675 11.346824158015133 0.8312903596585361 0.5637745319259065 -0.47283204200806306
Ni 4.785008669611117 0.3414310563851092 5.97214794554054 0.0714499284108705 -0.3883707889391892 0.37338408572236986
Ni 2.867736393054052 1.4452157101427545 4.897154719742514 -0.7490937342541227 0.5150212737816033 0.5200575506539301
Ni 3.3849383968712976 4.174761584090452 4.875063081259007 -0.12939719434961586 -0.01359059420024111 -0.05466602408431231
Ni 5.155349838529393 4.215286477027102 2.5275546956530612 -0.781017579545913 1.2045034670206805 0.07810291495101386
Ni 7.064114877333828 5.88922819814206 2.5902745098318767 1.3308577607789145 0.6331462376515096 -0.41316907892979166
Ni 5.172916967392384 4.518738469877573 11.464016567495003 -2.1521282743076036 0.525481806993295 1.3850748702512663
Ni 5.5032496571673 7.967159523759178 12.600006416182651 -0.32854018993480194 -0.17024431027296485 -0.6511388175741882
Ni 1.8433798046609517 6.360650572178646 0.46145286985874323 0.6925726592389427 0.07496231243950316 -0.533923767113061
Ni 2.9080347887129427 1.761867964341023 0.4842511798488586 -0.9200980626215637 -1.1671700206775446 0.21061525789084373
Ni 0.8751773273589873 8.779795516794223 4.895590076547754 -0.2665038415283475 1.1134617325208116 -0.9633972396298313
Ni 8.4482306818283 2.0053162983675654 1.2347390378341534 0.9148578972685469 1.1522162275811898 1.5835740616048661
Ni 7.015807537933377 1.0431558624471018 4.814995097208194 -0.6156802196562622 -1.09451964420067 -0.3302584581774893
Ni 0.5432038913039854 7.2354011786663355 2.0896675085614813 -0.24320656156330378 -0.5819756283149655 2.110430123237869
Ni 7.71079178500926 3.568627689133891 3.594764568998175 0.55154507973925 -0.13128592673189649 0.4875829750649925
Ni 7.524357345740226 4.0080505277686775 12.469090083648808 0.16981853558945592 -0.7743746203080986 0.6172259668768274
Ni 8.056163894027376 8.98981285262353 7.014721256989245 -0.7173195271663194 0.16043066661665273 -0.6819791999938125
Ni 6.640501548686624 0.8321872380512079 0.2555940240490937 0.2201226831606467 -0.16767037889820155 0.0003414424998187668
Ni 1.6311427955096074 6.555075835407019 9.347338805566197 1.3542038917040224 -0.027099684430269454 -0.18574651967362205
Ni 9.04708042433213 4.6682447929807696 1.4704085493533385 0.0436115660423636 -0.3291078895128139 0.4765125761834439
Ni 6.350213577619509 2.265262694106077 6.848068183970576 1.2404937690723603 -0.8277815751743293 0.4337281340280659
Ni 3.2381500411012096 4.349662781975994 0.43913382810836604 0.33524151321437745 0.0014976675914490335 0.8698005999185925
Ni 5.975242804343838 5.515525809621841 4.66339322129117 -0.22955271822529502 -0.13893624418830267 0.11847334834826048
Ni 5.417062913034425 3.0539352751542155 9.071781311455421 0.15766801626985105 -0.3487706580490639 0.24128774727403604
P 0.06859696554210726 5.563008698931249 12.642160277540945 0.9481693669364833 -0.7718027458158643 -1.1381116698590077
P 4.069739326339134 6.1025342744444275 12.661918088074422 -0.6504253364469315 0.8259720327694162 0.087602626911333
P 2.3567404146474042 8.324545048389636 1.5090353951023678 -0.07818056226648472 0.9191418693558815 0.3508452811899055
P 6.486392800899362 7.9328587760153475 5.827507689952718 -0.6395981639244405 0.0004910807038056059 0.5171398627865028
P 4.565804604195905 1.1257911292647151 12.492944776942391 0.8195285911369177 -0.4919145125608108 0.8007399976755049
P 3.909007798150198 6.277607610261066 8.091159535419372 1.0936110163434714 -0.5049718599654013 0.2938498376414681
P 4.7998487712498905 0.9708126319308596 3.772728010079019 0.08760134135975235 -0.5904852084478733 1.3174414873730085
P 0.15499842909429828 5.551928452103276 3.745053666693307 -0.19934791250714054 0.17557934933263308 -0.40060358355995523
Ni 1.59793829459013 1.0399577208851438 2.6896714811927716 -0.09135309509270075 -0.3731393167014154 -0.5732842711885546
Ni 1.9393784108663494 6.358865773629905 4.8960802166568245 -0.31835296498915494 0.7699716061443964 -0.6751022703683212
Ni 5.9531276101434445 5.768450789749822 9.054954375696147 -0.080682502752732 0.09674752663539467 0.3578127136466741
Ni 8.590779008558739 2.5480128357693705 10.181702229462115 -0.35637109610414114 -0.06798948066609581 0.9930371739834509
Ni 2.399258483628334 5.2663969238691015 6.932508181097374 0.34492891570547046 -0.42854299028270065 1.519476459794009
Ni 0.5103337003664803 -0.0678350286997258 8.96864441704417 0.2439231280143541 0.08172765618779473 1.8544726897668
Ni 1.4401965304676139 1.3137385703491786 11.39229303353071 -0.07057909577014297 -0.8003314493831765 -0.22453161086161977
Ni 4.054255972431524 6.9698920097860615 1.7263151396457397 0.5865151680565318 -0.6592262225680131 -0.4950101207669991
Ni 5.6692359222002455 7.947037505603064 7.874914430440803 -0.08252109862336757 0.056113555164116265 0.3781164582010327
Ni 5.408347297786256 3.001913380398516 4.7500474558053405 0.37225639987582987 -0.3836965233919714 -0.09052545698508281
Ni 0.7594308765003334 7.519646202362838 6.862920063467793 0.5961375216376443 -1.3261405578089032 0.8332071170652747
Ni 5.2186784773908235 4.572001569715392 6.954626093265101 -0.152685218343279 0.7947554979572957 -0.10186787858109553
Ni 8.053373447565384 7.2189121768454765 9.06995211944024 0.5668660263670366 -0.13081978572875533 0.12501243501835888
Ni 4.41558254969499 0.4396620197601001 10.458956641177862 0.03400643885243175 -1.329347494781975 -0.056774071566250604
Ni 8.012323080944334 7.446297323933346 4.518340740657829 1.3131585437269384 -1.2256592751626894 -0.09197041696172548
Ni 7.378493098863396 6.166750782634674 6.9934649404661124 0.18793427135356022 0.1649342109139611 -1.2644641638450287
Ni 2.163221140530068 5.276734259626024 2.715356272490648 -0.07922391592933452 -0.45042307818524363 -0.9159459881264032
Ni 2.25032293366509 5.300842629870698 11.615075755934514 0.2819823967799208 0.1237111997084321 -1.233459230823082
Ni 1.155860907860007 3.3613192607465834 3.9045458017783448 0.023638979575178642 -0.6049075545207904 -0.3628829290807299
Ni 3.6414057944234304 2.4690649446336748 2.7941872910310206 -0.5283509010109739 0.9898996567957339 -0.39332093385561295
Ni 1.0669018370473609 3.443302215404251 8.41589864842275 -0.3545535832794281 0.07093930732303912 -1.3097963121229248
Ni 3.9824744551641253 2.578191333057987 6.851900517910259 -0.7589474871197509 -0.3479813293785491 0.602025347876989
Ni 4.264291428043051 6.738366492460756 5.782662134945537 -0.23608460580654178 0.6746746959125993 0.8187071236768867
Ni 0.8112933171724905 7.401958216839234 11.605620853571741 -0.4575625174435023 -0.95078623573404 -0.001560145398268281
P 0.29809940918246897 5.6074202851542445 8.004598617783639 -0.9707179416609604 -0.2468097055335298 -0.2959763970661677
P 8.344250311554672 1.7231459897353352 8.191260460319542 1.6902586448483148 1.4686272383526255 -1.5783228405082559
P 1.9456931549702718 3.495007013971088 10.346763479612694 -1.40124608069449 0.15501643757961692 0.29135612468533695
P 4.005640596733321 5.841129236237147 3.607135850309374 0.5943662886698343 1.3181958490405299 1.075353355684864
P 6.786891269247855 4.187798767398263 10.39801347164579 2.7839547647064244 -1.0902762955432836 -2.047327795460745
P 6.31673727996672 7.756272438383277 10.221999719131896 -1.531897202055865 1.0374879480976584 -0.46182077849922404
P 2.6682557105860973 8.449000772572681 6.09866298297297 -0.24278952863054315 -0.19619034071476535 -0.4009064595123547
P 6.936687508866584 3.778925881587618 1.4436501609588839 0.28286222828171287 0.7003708151271228 -0.451845412454067
Ni 5.224503987374788 3.0821296562896627 0.15601132492043676 0.626539016747637 -0.6688843144830674 0.8666173170946042
Ni 1.521545292747556 0.9862959858384686 7.261345082849969 1.1319325376314893 0.8599558459140286 -0.9416351653623912
Ni 6.931025076922608 0.662363203143913 9.215029967768691 -1.8489180784971577 -0.41158065139674915 0.9534324151076352
Ni 2.980205881298088 1.877580893602569 9.259849249091653 -0.5070590815117332 0.1248928787213591 -0.36304593702115534
Ni 6.14710893870741 1.9646826867375908 2.515235961710302 1.381733207472543 -0.25628859155824246 -0.7182978319191887
Ni 4.23099632821247 6.93183140723143 10.60794745647688 -0.55114527319767 0.05341389684476608 -0.6081335176572559
Ni 7.9853880246732265 7.040631639575769 0.2519066483671763 -0.3604928315819985 1.2890138281599348 0.675973617229681
Ni 7.522771864795914 3.97960246968214 8.040705001825765 1.2963993219907286 -0.1388313431793222 0.7250251233406934
Ni 3.025632175325444 8.322234776156492 12.584399847755943 0.2299836351151265 0.4810045505165264 -0.16556644518132133
Ni -0.11340809296306965 5.045679856638459 10.344031922442918 0.6704305759242648 -0.7217006869531507 -0.40148238662048275
Ni 9.052452939760576 2.161083006228022 5.865086306300278 -1.1425781902707937 -0.07932881693831499 -0.14405351081020998
Ni 3.3186381137256675 2.86192900285231 11.770244510981689 1.0770641677283836 0.25217019851449474 -0.947800927853471
Ni 0.876339711388447 3.5316452136213927 12.628847673543378 0.4577180691847601 -1.3087149061332881 0.004746256435733761
Ni 3.2510332062601446 8.328495160913754 8.354611203028483 -0.35510971289321425 0.8972944344634869 -0.0011922205358882692
Ni 5.733878245272679 7.695371850339423 3.782699326235084 -0.7818588445002858 1.1157011633742915 -1.3098197091616925
Ni 3.3413240810660145 8.345237839685703 3.9317426889025406 -0.37894101098485705 -0.7378479861369744 -1.0023774775477705
Ni 3.7617845676068127 4.619919333798098 9.535658608175297 -1.40816029131582 0.13362023129202796 -0.46482716942571556
Ni 7.174301273018052 6.259741504991432 11.373742000493133 -0.27003807993385104 -0.7792846560152062 0.6395770808785178
Ni 0.5676547254326307 -0.19977059898348612 0.19069802402556943 0.31414406911412995 0.8558857896097131 0.6818002512137871
Ni 4.577763660461582 0.3326936973982759 1.6157128949595494 -0.502747855730889 -0.6809273616905305 -0.2064554700861993
Ni 5.915837098333195 5.677715980279545 0.4278986571424059 -0.040193798610066264 -0.3956436684515186 0.04596361121430794
Ni 7.944546035547715 8.659199306224194 11.342488094129715 -0.16838514557703904 1.3273093813060237 0.39375930694461214
Ni 0.3722500879752282 4.628408451768507 5.9365452914441486 -1.4470392277692046 0.40813614449157454 -0.1348633596705097
Ni 7.9329856144908915 8.749752917872263 2.4869917511737483 -0.21835710661979169 1.1135776892733853 -0.12239762310333115
P 8.725182493180961 1.3999706139376058 3.5924832884165854 0.32980748668299975 0.8945963188060335 0.5783542295122943
P 1.848861038782721 3.1932401608671444 1.6806342626781827 -1.4289049800623392 0.4565415323781557 0.24514028825090683
P 4.830906077976212 1.0965820403249076 8.334442073438595 0.3339976135049474 -0.5451767143190611 -0.9690698645345761
P 8.562602747205512 1.4916748317566917 12.455883480377233 -0.4739445583459515 0.45978395057485333 -1.5519212105862756
P 6.327056495941423 7.924369658044938 1.3782912004996202 -1.195786913083289 -1.048292237802014 0.6694263030294665
P 1.9763699462699582 3.07130308641278 6.24240177939531 -0.1987627294276319 0.02064107328911929 -0.1763059430860125
P 7.1862875089570615 4.220115398988925 5.7466209821194045 -0.08323586530220503 -1.4289021518488616 1.1670689763233062
P 2.1809694672152675 8.424765563852462 10.383825682166963 1.1604851524582014 1.2213513918159546 -0.28750461214973067
