# total energy = -340854.5914207758 ev
CRYSTAL
PRIMVEC
9.41900061737708 0.00000000000000 0.00000000000000
0.00000000000000 9.41900061737708 0.00000000000000
0.00000000000000 0.00000000000000 13.78565949070077
PRIMCOORD
 96 1
Ni 2.740156880063394 3.518006224642537 11.850373652654252 1.2325225779414257 2.068698547827037 1.1619622512243601
Ni 6.489992971847188 1.9377992953549872 2.896215595121693 0.2560782753196493 -0.41617341297375426 -2.1700977143018307
Ni 7.40481342632631 8.541366579069452 0.12676185491300354 -0.4316869352283211 0.4664042841048483 -1.2130035340718917
Ni 5.011096815361466 1.324302096054672 0.2871109248440467 2.118442194909068 -3.8959219149595805 1.7333577900306338
Ni 9.455452351484745 0.07695323668565687 -0.0461653487108213 0.6877667532098671 -0.3626289040883948 0.6846485192958596
Ni 1.589456388091138 7.948496991561253 7.492919701880937 -1.0799787702720174 0.6318475734447441 -0.8726727792600648
Ni 8.690516457027515 5.880527104897113 10.684051747824817 0.25894402690321855 0.8589803693746367 0.2647369794359118
Ni 4.2903925487470564 7.731125290676114 12.503359070985283 -0.8210036330205474 -0.14669171976400544 0.5474865933991604
Ni 0.8153614572381761 6.447550954159848 5.619200694793212 -0.6747564569931283 -1.3683138487428432 0.8890036552096044
Ni 2.3203331755893304 1.7369202649027222 3.721176897993899 -1.2488745369368879 1.6082425108858238 1.1020794588257987
Ni 4.395668720893395 7.629230539823551 3.596320506946441 0.639529258359718 -0.40982175972411355 0.754138495766882
Ni 7.941536349956516 5.593803300986699 5.502353280141569 0.3249540152454404 -1.2117737754298485 0.124070897040696
Ni 4.247187591993432 2.962709031398608 1.9552338658696935 0.029252726217530268 0.6295711187057415 0.018130133941807486
Ni 6.162447218390184 9.31353626615515 11.982398845224532 -0.9830921469555971 1.1215200840489137 0.5913979500701299
Ni 6.181407667037459 7.7408645375222545 1.771567117512823 -1.1029595474379068 -0.00871989637150111 0.6997205831376336
Ni 6.697079123838725 7.650140721640216 9.349489534178751 1.3300301226712965 0.173063781999631 -0.7409199401940789
Ni 7.89229381367835 4.570645499095286 1.4071572786530868 1.3785329553676904 -1.4213924737353778 0.35899696376276236
Ni 0.5263007992247376 8.606913405764125 4.657746767262598 0.33324659427153575 0.950030588514938 1.6219323496680904
Ni 5.494724831378814 0.4467563954139615 4.558669239554795 -1.1967294795022165 1.0417837472595348 0.37643161429944205
Ni 6.717612545622657 3.022604457602291 10.97548034264398 -0.8419223854510856 -0.6676545558410243 -1.4032610542419897
Ni 6.461764226394689 3.248095337192821 4.6458637558302085 -0.3284957098501117 1.0980145447278058 1.5833344347902343
Ni 8.807613475200842 3.6762266003886404 11.941993215514113 1.8948492938116335 0.539122023484549 -0.9048812456718094
Ni 4.439401141692845 1.4110416745905612 11.403828242858621 -1.0694498457162356 -0.02571565959854926 -0.1311799972816515
Ni 7.891954729648891 0.23791359976980886 5.803514528506301 -0.2635758692482751 1.4430540178692115 1.6271727721314233
P 7.124701760990355 1.4191796912975878 0.11352344926285778 -0.1318780517899406 -0.803707822054577 0.07811011403986547
P 8.513524012650505 3.911136480797488 9.5266355082691 0.03917769864072608 -0.1170805817657919 -0.16019283957423378
P 4.8426474047266685 6.500410386752248 10.175485043340808 0.14493128542947298 1.8725118066566975 -1.3473745274870148
P 2.5817575433017423 7.570145147690243 5.188205113448541 0.4259626311500341 -2.4935304078067375 0.25836861401572275
P 3.2478316051699077 2.018011506323782 13.611836066089182 -3.2453847355251333 1.4789713005911107 -0.780625743424133
P 2.7626871300208102 3.2489807232697423 7.2910008137383295 0.8712779557950672 -0.055644585947497716 0.5524614209059323
P 6.161364033296079 4.311340406566996 2.688066037937769 -0.39383618292913464 0.5974125316953259 0.2533048263395702
P 0.7166748180643325 5.075786512981672 1.1857241046150888 0.7465311157332691 -0.352969783732076 0.6737089895652204
Ni 1.8674770352454262 1.92501771124453 10.764711361332482 -0.25752734906135005 -2.0335888486080975 -0.7336452609095364
Ni 1.8055471048649863 0.979161649069051 8.278743172552868 0.9404336888551222 0.707827014294852 -0.21077363784557895
Ni 2.325975157079503 9.372216641253269 13.19996199830578 0.8895104196426938 0.061491531646577974 0.4618223211611208
Ni 6.442577721727776 7.0261319174266585 11.769727225747733 1.3780889258517364 -0.835429064417258 0.10050287991276884
Ni 3.213188520160135 0.04468750748242723 5.274834489674856 0.2433885956671228 1.2517575149116378 0.8626002255154112
Ni 1.2536972659205614 4.397053314013688 9.982802427400642 -0.2833427674625572 -0.6045118617442685 0.07501116339956759
Ni 5.030094940012012 5.029887721994009 11.547062046402699 0.16608735068179784 -0.6912505979934095 0.45305023139544554
Ni 0.13176240244744847 4.802983992280732 7.372846279449021 0.5492945931421765 -1.2569431728776352 0.3229899495405341
Ni 6.624157219503307 5.230945713461822 9.36734230832979 0.9273981958274028 -0.45171145797936396 1.6888368248001238
Ni 8.577450771204427 2.0841894060732833 1.4028283058769881 1.0717278431171346 0.33125167532869404 0.7339617637086907
Ni 5.6476799856674775 5.856678194825132 4.558214301815269 1.484493773071237 0.041558797278392935 0.01229270132442399
Ni 7.038715702519931 7.426392357201077 6.519941626849112 -2.7443122106141384 0.5980925884814862 -1.1525869806570472
Ni 1.9835850583328303 3.7792045363353095 2.7056013917612307 -0.7135803718388615 1.1569727684295688 -1.5040727236444291
Ni 4.3650004542289516 2.05777852777872 6.169372067791812 -0.08274607014998006 -0.48438426562203674 0.6398097657146142
Ni 8.62285977414954 4.040318077020717 3.6513943466312275 0.5993876531438258 0.8161115950355687 -1.398520968453843
Ni 6.984773084833425 3.6458785797520203 13.233241211997061 1.92760617652768 -0.15164057912884854 1.1773626449398302
Ni 4.555659868793342 1.7773748734173975 8.683917505054202 -0.1846741125450497 -0.9389208517550217 -0.5600014380367193
Ni 2.823590389312053 5.496768754556388 6.565613419917053 -0.7966401165745183 -0.9308797266181 0.08582419485467155
Ni 8.81687235300525 8.761790036219725 2.657393061772917 -2.5213967951997027 -2.510084198400361 -1.6192329484590566
Ni 5.861020354202377 5.382921291665381 0.7560688470868652 -1.3598466918120966 0.5870887811718147 -0.7233179108415994
Ni 8.235964896536315 1.3656326716454508 12.093414956469553 -0.581483004949263 3.3740771904982405 5.253540488772107
Ni 1.4866950891632902 2.132282824251614 5.912669445189622 0.3939575389983473 -0.006040806877441209 0.4011823388815607
Ni 8.547328806587448 6.710105601970458 1.1786476093002867 1.1415016693771631 1.5260849662494622 -1.4698107171377657
Ni 0.8090036316858116 9.228331984752646 10.191227961308543 3.31649553542903 -1.811222620828913 1.4755813010729555
P 0.5951508695063956 7.642341788962649 12.145842056924392 0.08950575747131682 0.9277334676796345 0.016362243408107303
P 7.020066080899662 8.633503245074237 4.270521282720651 1.3938595584224318 -3.4682471862144464 -2.295565234579737
P 2.8923490952857738 9.032652242752093 11.161683627921224 -0.1475160154375137 0.3937963308301347 -0.7666679956924602
P 6.959473648635423 0.951959574705749 9.664423245540027 -2.042645045273095 -0.6384925895650875 0.6225034132256827
P 1.0157450482473975 0.5330692932127808 2.540697293034449 1.6850696444482078 0.11778146448755845 -1.4445714829550025
P 3.436268135541175 5.380218038430523 13.064697611354081 -0.2641350841858548 0.4759723874092576 0.6986299211766162
P 4.591103568872672 3.2373953522632113 10.175291953824033 -0.2677400279282937 -0.3597762651309481 2.5093768879206912
P 4.221756289783974 8.505527280955752 0.9591801807330714 -0.4169110624707271 -0.5658211300422901 0.2987151361535694
Ni 3.5670792189059735 5.1056447455757406 4.170726969050573 -0.5480092986718498 -0.4826603409523946 -0.03025211401632209
Ni 0.4311717166599728 6.332262384143638 3.405760933790725 -1.152046277662229 -2.0581140874429718 -1.125279551091346
Ni 8.18452773306748 9.113834610805174 11.064357092465546 -0.07233618767056575 -5.783074611457905 -1.8571679772107759
Ni 4.907308845344422 4.325930438834569 6.267567977023021 -1.611943870996811 -1.4850087650344423 -1.9965346240682775
Ni 3.648440547974603 0.27686211005363504 2.880706268374251 1.1201237179220194 -0.594929360262156 -2.4250377622519785
Ni 2.3083051115443385 6.563658977247251 10.882730499685922 -0.2622895463366838 0.3998597634153952 1.2862691755352622
Ni 3.7356793335538625 5.842530855596018 1.9849969665554963 -0.12306688125621384 0.19979734133973331 -1.138934165760303
Ni 4.729723003915856 8.721071695682138 9.907905358593624 -0.7882881450653972 0.7700880771176029 0.05233609039955503
Ni 4.443112228015262 7.270460798653825 6.65054737599607 0.3579826635656351 -2.426920838207304 -1.6900516710438314
Ni 7.561338381925116 6.3674423522000545 3.1549856884035035 -1.2343179792789516 0.2759413327921635 1.4868141936742973
Ni 3.1087318010849896 6.679719905330565 8.73059618930962 2.4522390052571184 0.3789430678673861 0.014333128793220476
Ni 1.4002569186535871 2.9720338422087424 0.27637232201108247 -0.7183927056258401 0.4229295007506652 -0.00834811485437917
Ni 8.72189114875333 6.915298534797513 7.651151380428023 1.5266408387529322 0.2652607131498657 1.890677678932447
Ni 8.88344585078912 2.2857277665828306 7.558704829296314 0.6796248408290231 0.6045668833519201 1.3991498602870935
Ni 5.51058642875686 9.21464617656363 6.889011045413669 0.1844493981287533 1.9149460645615086 0.7884524385574034
Ni 8.703006052112604 0.20057856432616056 8.707491380302287 -1.5780914412237401 -2.7682455815012843 -2.35161322661324
Ni 1.7591773638364074 7.2127599996408085 0.9483973085962611 -0.19610498008981067 -0.4486909259854853 -1.844393194043611
Ni 8.97353859361633 1.7972489651440482 10.177277479196535 1.1249609914096625 3.6565984905007674 -1.674341716507742
Ni 0.999610299845619 5.402296176348661 12.712749110576981 0.23521197339360136 0.31455955938499375 0.4105673796408865
Ni 8.745495164804037 2.685338295300784 5.314385816011055 -0.5057779008064645 1.933057429450239 2.842764635755781
Ni 2.091639835720573 7.600926442364505 3.109162249422387 1.5421060242680666 2.0566925245050967 -0.39691405052351
Ni 4.3402944150825045 4.652327074191738 8.694532718976447 -1.251952404531263 -0.1274974062237417 -0.8713874847897379
Ni 8.920811027035386 1.3730831012927402 3.762189111357018 -0.23202020592918104 -0.40363722817995645 -1.4876683141444764
Ni 4.963879364259237 3.2618188213851096 12.94983478017486 -2.2902145117907846 0.5317277879030068 -0.18909949530625497
P 6.0033320375663415 5.383053157676837 7.425714189142157 2.7957319598470107 3.667981278416412 -0.45023461632352135
P 0.3292967457091287 0.2588313167871292 6.872827318207635 0.910109069729652 -0.04407822126613699 -1.4750951054651562
P 1.632538897834124 4.268465114842012 4.719231178904332 -1.600842875987643 0.15033394450228305 1.2706042153044956
P 7.010939069106712 2.5763039418279363 6.678779889048897 -1.2683372736471898 -0.3861298154238124 -0.7463118006336115
P 7.933464266255218 5.698947607121582 13.06007947525286 -0.6457662404083653 -0.21080706218667564 -0.7910055439965602
P 1.1236679596236834 6.218320731244447 8.831397394167178 -1.9098236557332786 -0.17988003359051602 -0.054295528118771
P 4.3872575531626365 2.478233305307611 4.06166906807568 0.20591296731916797 -0.34371226968955 -0.43261047548385495
P 3.57196768033068 8.673147819518537 7.873003700002436 0.42281302977745894 2.7499609242594834 1.3530723492027408
