# total energy = -340862.97059050825 ev
CRYSTAL
PRIMVEC
9.34232160164440 0.00000000000000 0.00000000000000

0.00000000000000 9.34232160164440 0.00000000000000

0.00000000000000 0.00000000000000 13.67343200034510

PRIMCOORD
 96 1
Ni 5.6106152296698735 4.319534431788754 1.1054395282826792 -0.3098223018103245 -0.5303663887791059 -1.2299594451999398
Ni 2.8362914239347923 4.611752904526393 11.493162081041556 1.1979836636242918 0.8112488676266286 0.08418743058219695
Ni 1.260344560299777 7.383255329182579 3.2062697750567946 1.237839876389281 0.1978906112353237 -1.5135958326435157
Ni 4.73544524056803 6.101582249004928 11.149425376649717 -5.509593567280775 1.3870168244689856 -3.7676431504851244
Ni 9.020655983337376 5.318060433359916 3.564267533147089 1.8463855418832913 -0.7578254577001658 -1.4916630371261665
Ni 8.507669112336902 1.0863718501965025 2.0626509816909313 0.30231622324126645 -0.5109892698040748 -1.1561767548908346
Ni 3.3493623758283446 2.3320676504575117 12.091183696142071 1.3927933219414463 -0.3874112532393973 0.6628021128447295
Ni 6.606254453911967 8.823803927994978 1.972816152828184 0.1295766573502736 0.11525098475622086 -0.936106522234678
Ni 3.3780059334041495 0.3535311942034744 10.000132991465266 0.011874382840082775 -0.00559780580275165 1.2636738067332496
Ni 1.3290573345887675 3.1996797015036393 2.252656983872352 0.02139183541221477 -1.0893445277576335 0.2684329402302603
Ni 3.751054171355704 1.677021439438223 8.192956198004017 0.3445363082527421 1.2926239141086964 -0.3348399069005846
Ni 8.979418976442528 1.024862005748003 11.805914042101392 -0.875000656062293 -1.2724978327827827 1.9754418079537208
Ni 2.42126813569358 7.355060203036532 9.991955657497197 1.3953659677646293 -0.892407795795147 0.7388923682410888
Ni 3.722952468424191 4.551868624010767 2.661533958829441 -1.3256093678957817 1.0304757784458833 -0.9965644704104192
Ni 7.546914116401415 9.169563244981457 10.261965563676062 -0.6002410022830565 -0.4158083163248516 -0.3053809782095192
Ni 1.567305216290717 3.7038100517663874 7.6345740528298345 -1.0932796011459818 -1.3680845063408567 1.156329478418615
Ni 1.0778236260667369 6.009401563225258 8.485649260671485 -0.5921700523494641 0.2772973325994256 0.539540084858574
Ni 3.0384218908983005 3.7638531517467197 5.594538962913043 0.8361913965045792 -1.5932864037966237 -0.9645370096612293
Ni 5.543957766100608 3.2101711284956904 9.216043162675895 0.31440837851911013 0.599567887475432 0.0839694010341199
Ni 6.5547408934184945 6.27804001661478 1.349216195820689 0.3196678271458366 1.8921421792931155 -0.2706312334331597
Ni 4.448635971951849 9.823731277784136 6.457989009751727 -0.48224665045374365 -2.46071181861482 -1.773366469213088
Ni 6.769539548272672 4.688602840801204 3.1397758021129616 2.2997898141840456 2.2583567438502397 -1.2779984508860376
Ni 1.192388514048503 6.564148611121964 5.361010822009297 0.4988696037224053 -1.019031798275 -1.634238163618637
Ni 3.386554157533915 5.12976594446874 8.9864257175325 0.7540744752981658 -0.5548250360421025 1.7395634046207138
P 2.194885002237316 3.894113139770023 13.425532521601985 -1.1664310856289912 -0.6950455462594676 1.3547649064138152
P 6.613429356788099 6.940298499796012 10.907474198723682 4.0174384210095395 -1.3513815917638792 0.9888915272461936
P 4.293618832077311 6.722977418149445 1.5010419986867805 0.2655682170879555 -1.0600874306647292 0.7211175607561711
P 9.422571994579615 7.332096776904332 11.649914090009968 0.04533163405726386 0.46767723728000105 0.25943073673165
P 1.2108489412402157 9.269684903996428 1.9676890868146153 -1.503518908023488 -0.6500211590299773 -0.8111491088239708
P 4.309257878190128 3.783705584834973 7.5103239801974375 -0.5252321528763342 -0.10149841105681875 -0.752259276466298
P 4.994881507326054 3.8548099934160076 11.294172502550646 -0.5541850884652585 -0.6781001766543805 -0.45027395420188904
P 1.5752088202402055 1.2945094298544795 8.75250052796699 -0.7981179866716255 -1.096581411825705 -0.2968528861338501
Ni 5.040612170839937 0.9515808362683507 3.2071442163448225 0.5528961944505059 1.7839126201600504 0.8394225018473671
Ni 5.63838060902907 2.3266958156218664 6.320119700904715 0.6180667176105678 2.0750802829836648 -1.12913054940632
Ni 9.091919211383114 9.497684259064112 7.978803097562263 -0.22112232806975465 -0.7984717704666183 -1.2457462757205513
Ni 2.0732386345939515 7.1953438754709875 12.5158258385516 0.4821144957512536 -0.41952793126828397 -0.3021843256490925
Ni 7.759545352678428 6.285784801099561 5.112126707332771 -1.21359205958551 1.0200959778734562 1.3271864825749142
Ni 5.972723609199619 5.33198983464678 12.460871501066876 3.760981165083916 -1.3772859703344669 4.570291678037251
Ni 8.350194941920149 5.198095683578145 7.2926833911571665 -0.29918641936303314 0.2358272383800971 0.29006491667773915
Ni 0.6861243775658223 8.969450719451862 10.128279746375835 0.08891903172991138 -0.30411265302005686 0.20946623188806507
Ni 0.9862128218957181 0.7401734441017199 3.765048034660596 0.6582319769755438 2.7381716449340394 1.2499492580583054
Ni 7.084385123570193 1.4469200620435472 4.090953984326674 0.5842546541571292 -0.20520437128791752 0.4113965604104012
Ni 7.38300308650334 7.700090818949653 13.059521854401199 0.7622302716360808 0.23193741640738766 -1.525732725116366
Ni 2.3705580148450904 2.8666726533009106 9.83357621613162 1.2140787694139414 -0.39527985735419663 0.2931507546919145
Ni 2.1131116625566175 8.517973692899888 7.930672391667029 0.3570215852039464 0.01990290957151411 0.4348501634476511
Ni 4.975496190310466 0.8523793959165291 0.5756663740949247 -1.8794285883811892 -1.8956733323748256 1.2849661404531223
Ni 8.788517979865881 8.425634187655511 4.1506794453775955 -1.243422512683381 0.6137554918297237 1.2608268242027576
Ni 3.6044170938247735 5.589978041579544 13.555990566840098 -0.08125894408149231 -0.3714066502810249 0.42515916141213234
Ni 6.42328508824917 2.3282092716973004 13.578018826594825 0.2742109803646181 1.7803215603746825 -0.7449123491829235
Ni 1.0188175237677204 2.8270425256960294 11.801183090517444 0.8454116295512666 -0.44759512181814526 -0.7806661097437652
Ni 5.319583231756803 3.385022016815575 3.7332299562549616 -1.5213533651017477 -3.3226566699344193 1.4895583320783379
Ni 1.9481823196201336 0.32766137186715305 12.183943605851846 -0.13418535976687856 -0.018901464890193252 -1.1814936363890685
Ni 5.097469539204695 7.7101431568334 13.417943753885474 -0.8958523027003216 0.03162379755286812 -0.1852387267992681
Ni 1.6973316462776882 1.5690989420097499 6.561674764401131 0.6401854038864782 1.2537758308932472 0.8016355129065806
Ni 8.637536722859167 2.90828335305389 13.193863502667448 -0.7366652786827829 1.1358066758749148 1.3501682881820682
Ni 6.192221451744804 5.874713314833094 8.792741643394915 -0.155694437483248 -0.6686729698032098 0.17722459824553993
P 6.2330473964957065 4.746842872741051 6.192601684227953 -0.24355263204881283 0.8876774801990132 0.5761358817047368
P 4.519768407497243 2.6526026995200906 1.6406891513063555 0.708700932259373 -0.19910854280282486 0.6960295074392916
P 8.681725903333255 2.9685600110705543 2.995753640356808 -0.9440622867466452 1.0539597205004365 1.495438702118515
P 6.9419520906932455 9.459380741105598 6.042426669562659 -0.47306446973384336 0.35323923534337875 0.02729097450546913
P 5.702141952947813 1.2094475930222213 10.086439225515104 -0.4788412243166204 -1.0269970758686635 -2.2917651441073565
P 7.629416157155471 7.142868055867825 2.9998829464391648 0.05502520719594395 -1.3251838503225888 -0.2595461792635917
P 8.028650922140613 4.265872137361023 9.379044250464418 -0.6874880456271838 -0.3269571617183982 -0.8340069872587509
P 1.9866820263291658 4.929307753045371 4.012632632422969 -0.3520372446154776 -0.3444548042825294 -0.5254054452294048
Ni 2.764327521780055 8.504791677329287 0.9281633733135194 0.8891705198047718 -1.2314265166637695 -2.2840235524887245
Ni 6.84966863937759 1.284316957148934 7.996099471500894 -0.8407131956343328 -1.4097425482012753 1.2435058164258068
Ni 1.5688186723661508 8.885808915480503 5.710080123486678 -0.01757554698991812 -1.3883949357634346 -1.1414163087522085
Ni 1.4046647421102902 5.3687051579582326 1.7353091172174808 1.2053555306083306 0.6386823369783904 -0.8226676509865316
Ni 8.393169620605308 2.761123105521574 7.281444578448853 0.6234313243565909 1.5641419210221834 1.2832378449081059
Ni 8.915517497701984 1.330178413163163 5.70759132905152 -0.9985339354319642 -1.6578205789242675 -0.9932747439155538
Ni 8.722682640584505 1.844034120058792 9.696841999341181 2.1621586619604116 0.8065440059517915 -2.4690681609993153
Ni 7.7258289145534835 3.752670392967125 5.003847333224782 -0.5481113714673528 -1.3989585702118938 0.7185626555448013
Ni 4.142301251498279 8.380809729322598 2.7499048459204567 -0.44446068995422167 -1.358993342672866 1.4387026828790515
Ni 4.955877315258544 5.548881169506496 4.555699910038764 -0.06206411632059634 0.09491124475760428 -0.8285158822371924
Ni 6.430020902016995 8.101343525368708 7.894519476107064 0.6230603141704174 0.594541380795118 -0.6115422862284887
Ni 0.41411334613166173 8.616694003696864 13.64084780683253 -1.686484265407547 -0.2046958070826152 -0.4710183858380921
Ni 8.562545908553563 6.714662752056013 9.667157707155479 -1.4232534382035167 0.03782966925326388 0.6736945913875172
Ni 5.346162136291429 8.133191499202994 10.055838451594832 -3.0873953313601215 2.776746162773127 -1.8264965162688478
Ni 6.099377461141951 8.240674907523161 4.217146325589213 0.06838517344261771 0.1330838991725837 1.4705643074743382
Ni 3.036161049106603 1.2380911505980263 2.1826764565621493 -1.5481355182915981 0.17739480527481705 0.4425449609887475
Ni 0.5936484744282285 3.4576118545076833 5.367204781132833 1.2363864317722062 0.7968671449836597 -0.6170274777127761
Ni 0.4412359737748701 5.045311358530945 12.197562842066459 -0.39410460609917286 1.368899288932668 0.8794512356344789
Ni 1.185914285281369 1.4007783363857194 0.34292672512183836 0.29936896768748444 2.277161021040936 0.6797271707348423
Ni 5.690763005417699 0.5386763865327453 12.083785511783207 0.609717317204608 -0.5426297795274913 -0.3211924913204791
Ni 4.963724865279313 6.931965149059672 6.290899722095242 -0.36817580204855305 1.0483313185700656 0.709116679640553
Ni 7.1542750303622995 2.535963816175692 10.9910739622485 -1.313117406076358 1.5962673408018186 1.7588821595539836
Ni 8.991937687189944 6.5459871382167565 0.7027462358955263 0.31667043508040943 -0.895339367619645 1.003700053013936
Ni 2.5025556746587068 5.521984626042457 6.9124396972222835 2.6713008512534184 2.131160928027317 -1.8681481303713632
P 3.8887132779700178 7.0859733182172535 8.209747152352026 0.28906681443052795 0.6856126829813418 0.2612083974573631
P 9.392676565929067 7.284021190705672 6.871473617649582 -1.170535851825984 1.063364301643788 2.0509183410254805
P 2.971642977150142 1.3573552262708004 4.774748386922045 0.8086926768636782 0.31347378251998276 -0.09439213902934065
P 3.2401039264320506 7.7160475039918826 4.792332504361439 0.5511720126705475 -0.5040226086782545 0.271949438023951
P 3.794271750398651 8.793460067914674 12.04452907703646 -0.050459956422764705 -0.8625835133448628 -0.11730143952734637
P 7.451239402398214 0.4275251828100132 -0.02033729957167963 0.6769825181101695 0.4358688345201526 0.7267822152411161
P 1.2571961979700161 4.597702053060637 10.177026111254841 -1.6426850088344094 0.8410764925110225 -1.5868506754736091
P 7.763328992867012 5.009483555757555 -0.14039173563940266 0.6274101064986808 -1.5335938730319976 0.3622018438533053
