# total energy = -340870.9139467984 ev
CRYSTAL
PRIMVEC
9.30612542714555 0.00000000000000 0.00000000000000

0.00000000000000 9.30612542714555 0.00000000000000

0.00000000000000 0.00000000000000 13.62045524019911

PRIMCOORD
 96 1
Ni 7.18282106448499 2.5223042566637273 13.207400855583714 -0.27153703307688076 -1.4249467667455396 -0.2285684999351547
Ni 9.493643625909014 8.815003751600543 11.60266658475461 0.6710299000711605 1.7661362700132357 0.5365527200954759
Ni 3.917348261354721 0.7571854322474011 2.107111480728884 0.5240278481555879 -1.3843161377083708 -2.0187109030550006
Ni 6.247350746822268 2.438828313592215 6.5370150611179785 -0.7415254349885616 0.024561491389448024 -0.45072955368206885
Ni 8.801584319057719 6.611238854512601 11.342856320110338 -0.4988572624272312 -0.9733751767781494 -0.6236529534490936
Ni 9.045218676874018 3.929948754879674 1.1038320817740126 -0.4951361048219021 -1.3801002998548102 0.12016024913238013
Ni 2.128887813704061 1.4043129053932484 11.978686157259661 -0.08210226591839408 -1.1784160259050092 0.4144826555348926
Ni 2.7142896196030044 6.959967284247139 2.932007349341282 -0.16391682539304028 0.8171060977383541 -0.5575828012928977
Ni 8.156604699608739 3.6076683329722536 5.715905854850709 1.0812308975115636 1.2229627021671325 0.5667696099984885
Ni 5.834130869430475 7.396526923648225 10.626665299994968 1.121041087529966 -1.1053028508591027 -0.6235727350304616
Ni 6.90132008321741 7.600563718725474 7.283048032922023 -0.6805440102091828 -1.5766698782858652 0.7466599280016496
Ni 6.029364070065622 4.441962457427229 4.955666152311661 -0.894293442853634 -0.3063178882014918 -0.23164868152237525
Ni 4.953203751582929 4.667421952721938 10.016087633584169 -0.837886781929131 0.4770291108085462 -2.5449537565840363
Ni 4.085770515279831 3.150691054875638 5.272763993093493 -0.17970854100965825 -1.3004117855842314 0.06828335775743077
Ni 8.177980869200185 1.1407262151415727 5.368311841778425 0.10735049896222157 -0.01528443696289626 0.5032461355235461
Ni 6.4485212553369715 6.723154316204687 0.19181971391066197 0.009118674471816555 -0.2276794124619821 0.0968655402704977
Ni 3.5298598201494085 6.301558926130134 11.23306172435203 0.040070899878956796 -0.9279509830070792 1.143257218615689
Ni 0.5072275623556174 6.713885415502433 8.035264924923506 -1.0282306911654486 -0.35590624065258064 -0.7794147538351673
Ni 7.082100871412194 7.452131021736552 2.589834154199785 -1.4805381308575984 0.07809211631773648 -0.1518789203918997
Ni 2.8386752890672007 6.756191060675577 7.338414824817672 -0.8617371061841677 0.6875996315043835 0.2599354442822104
Ni 4.049941933248022 2.906712370426825 0.4799857420486788 0.9756092083149908 0.6366617070039358 -0.7686539157742375
Ni 5.362161423631718 2.927958254265427 11.3645265632582 -0.9960700472725039 -1.4746909280482021 1.2707379126688823
Ni 8.52236333846489 6.247052950815769 1.120799939856765 1.193235607416345 -0.9085682076050934 0.10373475658650522
Ni 3.6446043439032274 7.749061558590817 9.420179212330961 2.050828609525152 0.7997575791575775 -0.9137754628376457
P 0.2139385122933121 9.045395493252878 7.923467651021499 0.7790110906388454 -0.10183779667410849 -0.9381919440087971
P 2.153074433106833 7.492221809111366 5.408846531325425 0.9109426213745409 1.1272868113293617 -1.0304117579771672
P 3.2710750905025154 1.8018705740682794 6.97265153289892 1.4267964183597688 -0.48052272578410143 -0.8096565834388443
P 9.251237676619521 1.7618914601959026 11.475437894040876 -0.6520176206347158 0.9674690957063594 0.6958238191863887
P 6.9311182961176305 3.110237328617905 8.52952347119613 0.6512506605617042 0.4547808409333071 -0.2164688884581433
P 7.5932677165662685 8.049891361905168 12.217575321834918 -1.9480199642973421 0.06999211291842139 0.40126564262398634
P 5.013191034641901 7.608064455639146 1.7601028229318731 -0.8451928286722412 0.6136557330270657 -0.11285497372021855
P 8.18397401383096 1.8163043742582368 1.5342487479285538 -1.489438518671022 -0.08173896904170438 1.5466897869840073
Ni 2.4332632507207808 5.245825552468174 9.093478380952083 0.04607288309866259 -0.16248626359410082 0.4867885041881553
Ni 6.278442511125715 4.95490677249509 7.2167707398382985 1.156855269015098 -0.1272102140006261 0.8813086005581918
Ni 7.984627505856058 8.396097831709675 9.210015264420013 0.6035734090903992 -1.4822432864741635 2.6603338107189534
Ni 1.4345950368040288 7.696816971700798 9.936625422312737 -1.462889821648216 -0.5328652439415597 -0.8159971809448914
Ni 2.382256378482769 0.5332856435367259 8.5672933109453 -0.6440834533893036 0.24864778718353303 1.3015713531099713
Ni 7.188609474361298 0.5744140638716815 7.718181043329479 -0.19187731516170825 1.1039671627668148 -0.6556433903127611
Ni 2.902412940583008 1.1666158554565056 4.089241699980575 -0.9308902681410613 -1.0578325731922815 2.6382133246708306
Ni 1.8980121535411667 3.6662317788751553 12.655241459522648 1.9267605406979333 -0.709011007300624 1.3660451073133248
Ni -0.1981497402737883 7.960775906960596 5.619323165043196 0.502915748767321 0.5014407068836912 0.771378256683936
Ni 6.7578382448365195 7.522168920014836 5.011087850346007 -0.6073346759050444 1.1310797027128907 -2.0956676202167133
Ni 4.335844711736653 3.6775387209968824 7.7337483295691705 0.5363771137495601 -0.5511193050557412 0.73258442374519
Ni 7.695765379552852 5.912060361880959 9.390186501413996 -0.5740998251113145 -0.7619518211637135 -0.34868889696853494
Ni 5.9915998139915745 2.465229790793316 1.9124068680052713 0.2806945312064327 -1.2911828107867958 -0.14637624540611566
Ni 9.196294313420612 4.299774170449565 12.038493832102214 -1.6273290952036297 -0.8016679088064129 0.26698386648855954
Ni 2.904134573745575 4.848519149173626 3.943693901804604 0.1322796581037335 0.5904772380280734 -0.024734783742518692
Ni 3.9274361010748455 8.877392014961904 7.069125341041557 1.3196904313081852 0.575462509786796 -0.8935884463668093
Ni 5.145980135164466 1.3190408801575435 3.99486549245871 2.5169914670431552 0.5274790399289818 0.3213968940218013
Ni 7.67015492299401 5.437271160145674 3.731432353272885 1.3318970006767064 1.7223758370978337 -0.5224335070852745
Ni 7.839982401824784 3.2214734431701673 3.4734070034425617 0.513980748332231 -2.01832575180144 -1.616870618874467
Ni 7.17735836899079 0.6420668022604191 11.143738742815431 -0.6814685789059812 0.080860423091493 0.19612014959846225
Ni 5.35415815595708 8.324980422907835 12.61003509512371 -0.39712385254147087 0.7785107539636593 1.460572486368949
Ni 4.052873362686989 8.431228454351253 4.369237880802819 0.17997542151779972 -0.01138690168070297 -0.03014129947007067
Ni 3.0448431868159513 8.067898714173102 0.08965055714374798 -0.010290069072098408 -0.29892031018584003 0.7318146354587008
Ni 0.02722879173165435 7.417251664475456 3.1768487115964192 0.8467843415290771 -0.07272365291697153 0.3096487523469377
P 2.330849342861026 1.8351213594188387 0.8094812028260373 -1.699934477375182 -0.9944057721962035 -0.4537747682662959
P 1.091608486319784 7.640431159095415 1.2811835628314658 0.3017732062536029 -0.7708249552836274 -0.4406935096023055
P 5.7717053815682995 9.043711084591122 9.348031615469143 0.38476096010074384 -0.45832844907524933 -1.0327077531001956
P 0.8194843568068143 1.0464551668345017 4.213882357275336 -2.0666437221805376 0.22841860462085178 0.5473073875088187
P 4.80708827976957 3.6766639452277934 3.2155854577541865 -0.3995360615273893 0.042087673198669455 0.0777694428709951
P 0.4283237185963714 4.614349120688845 3.220638683739452 0.39616971615831775 -0.061312325756236345 -0.03235347663004105
P 4.787470967841505 6.030415662213568 8.25584801061181 -1.1702376038592748 0.5671154233736814 0.2316967611514913
P 5.926754733576603 9.593033043077773 5.765252514352493 0.30140630983248734 -0.8709090024914228 0.335648518844809
Ni 7.961855417484153 0.3741974331902919 3.1928254673450454 0.5172756170334187 0.11247187934918695 -0.6601212235784567
Ni 1.3540039925454668 5.9522442105078035 13.254091546952543 0.46910779907894046 1.201911280813472 -0.08611652928410976
Ni 5.968446174486343 5.234351100092793 11.844865007452075 0.7508603392362423 0.3923624265970856 1.6543218217423896
Ni 1.2469277159589756 0.38571469374160794 2.2090880007040945 -0.04639144278034591 -0.23166359392071073 -0.710440540658299
Ni 7.593947063706093 3.1170866367673624 10.628122639201768 -0.6268894581085204 -0.10942820742685669 -0.20195398267141995
Ni 2.774397882289615 4.589390092894219 6.4252996811177585 -0.0497089371893531 1.2578453729769306 0.1483894191814025
Ni 1.949391270787301 4.631872554446222 1.532859343435736 0.0024579746221893156 0.7080116195018322 0.4473858340208166
Ni 4.066041529849329 5.630596605114191 0.9811001107584013 -1.0061865668812155 1.5719264500636088 0.009698715345002652
Ni 5.319064757816314 1.758327214243128 9.022611306918208 -1.303022483734201 0.6308569273967006 0.5157995467085245
Ni 0.194080171722487 1.4504712864004616 -0.0030375192662811376 1.6568564152387855 0.12624733586672449 -0.4604020437748264
Ni 9.326598678513959 1.4058763344273637 9.430898007339856 0.11368801114447519 -1.1389130827143805 0.6021469610565178
Ni 1.3841279198277956 3.302176160931166 4.9091662365094955 -1.1272644427318586 -1.4656974663003401 -0.42185786495304123
Ni 2.6897958980685313 2.823627284613841 2.7221160708987835 0.22999391952777162 0.588924805939289 -0.7408916580593047
Ni 0.9059391905558289 5.741218515403051 5.47015156171315 -1.3462285868080297 0.05831004859480281 -0.8830595218110276
Ni 6.45425382846206 0.10089328700157348 1.2779012924723443 -1.840093538226992 0.6727409692249963 -0.4352563977471343
Ni 4.394417463764758 0.45558601237875684 11.072993579021713 -1.3713068699328963 0.09747669149193534 -1.4915810189353214
Ni 1.5052471393457152 0.6928037968675416 6.240510744798013 -0.4079368839965749 -0.6476459739295815 -0.08929929788746557
Ni 5.058856191013351 5.8841978230229754 3.2713607885462497 -0.4138941300212743 1.9148324218017798 1.3737149651537568
Ni 4.564384534473578 6.626510205970835 5.785001973258442 0.5516512662998113 -1.1695287507177083 0.30572473470218314
Ni 0.20473196262991772 3.9127510355044057 9.65859190329582 0.8318164073653352 1.1222554195530414 -1.015101352872342
Ni 9.114781962766946 2.258866464415301 7.394790400685332 -1.523783828920111 0.05746004188968169 -0.7763546268526048
Ni 8.403189099114412 8.49839075994179 0.5294608260782653 1.3348087750068625 0.536152913553896 0.3037897224629994
Ni 6.0381397461321145 4.792626561204004 1.5841547055550422 2.6716561777103087 -0.936652110325503 -0.6652472319511125
Ni 1.8752400651692613 2.973418675882411 8.09640709812018 2.1312966822742325 -1.1383114445746398 2.488898051241049
P 7.757418459023172 5.849737241396018 5.903881208439984 0.571147684461526 0.9483146342650958 0.04217689047836608
P 3.8489110166113645 4.722709642553361 12.745367559664274 0.5391757595406198 -0.672604443647132 -1.0503426925731396
P 1.3043558145871035 5.567017157726836 11.011729495584882 1.0393309148436682 -0.7807121324903522 -1.272584736069634
P 3.068164336574838 2.1905595054247877 10.179369183947102 0.7675354858990782 0.26912173876716877 -0.8580470589270901
P 5.227864730826255 1.2169806050555052 12.90246612044229 0.9576755066547056 0.7724982292209921 1.0793033414715476
P 0.7469244985984993 4.2263116180965525 6.996909809465755 -1.7217340897487767 1.1027366327938235 0.12023378268279294
P 2.6022159537824656 8.235948723090091 11.57827243875981 0.596152948256612 1.966088905983911 0.7151831975496069
P 7.496204830698279 4.568460617312521 13.339628796756536 -1.1580577739636315 2.5803411349443945 0.33064052410725636
