# total energy = -381167.11553829606 ev
CRYSTAL
PRIMVEC
9.26222884324150 0.00000000000000 0.00000000000000
0.00000000000000 9.26222884324150 0.00000000000000
0.00000000000000 0.00000000000000 13.55620815251985
PRIMCOORD
 96 1
Ni 0.3354594061292463 5.407530047015664 10.747402290619977 -3.169464172937419 1.7763767167943212 -0.3178482574385945
Ni 9.300018789172611 5.014200234748709 4.585658206890569 0.1596588214476347 -0.32388726454382283 -0.639293488199828
Ni 5.197953593802167 1.7504408522322563 9.69847709757888 -1.5955970542076714 -0.006349596367111645 -0.5136130805801671
Ni 7.0827245517026665 2.4044005233834915 7.184898977315168 0.6389283915509254 -0.9082560756813133 0.12173710670119679
Ni 5.524493473505259 6.980775198252322 7.107289835178728 1.6783996886271997 1.412077624092355 0.44073644702509907
Ni 1.651696229979678 3.544571638163548 5.8937924329034095 0.7818562733971245 0.19874010371981254 -0.4386654234286832
Ni 5.550853776941226 8.78621516566475 8.713455726577878 -0.20062446522671898 0.4904600395024714 -0.17197080604576837
Ni 1.76495476491116 3.8636461613770443 10.654461380993183 1.7851732320400289 -3.7815291644385973 -0.5361318305079734
Ni 7.0554935987505445 4.389472157990978 0.1957859206113154 -0.5531556187594796 -1.7906792494599226 0.1649702063582191
Ni 1.1542960138453584 5.701726223416439 7.01635419810776 0.8447287445516289 0.7461166539036699 0.22525100552614757
Ni 5.933356043629598 6.443195433170278 0.7385219685193612 -1.0774308070391831 0.09643770870445972 1.050191768817572
Ni 7.844200175870311 2.070876923093359 0.3691804028682917 0.3990897180185901 0.5942778427210862 0.5785452624771777
Ni 6.077680094275848 2.3347392998620915 4.945643995134517 0.06768969003748987 0.26429217858900933 0.10615056511684944
Ni 1.7382702834638588 0.9511104985696038 10.191232305922219 1.2849784817482968 1.0936732370399744 0.19143045743227677
Ni 8.20539931609954 6.450966443213418 6.405565775837425 0.8905889974188532 0.792804287768196 0.06985584445087324
Ni 3.2758558534536886 2.7147037158331577 12.607002215274665 -2.7792311339785103 2.269885056204813 1.626283684658251
Ni 0.3096724346618976 3.0881567848908418 8.898525248357355 -0.3777590748616139 0.25498838468958024 -0.194778033748271
Ni 1.1057526722051965 2.271339343073901 13.221234334248267 -1.256258745216101 -0.011588219058231656 -0.355577139447936
Ni 2.0628836195567324 8.282331389303735 1.5647387202192322 -1.036027561502048 1.1299653866027894 -1.479811022883587
Ni 6.2500964851614835 2.9255305699475183 11.51984902491408 1.3933911034264452 -0.17067651271437703 -1.5551165775951217
Ni 7.545178378215096 5.22851894915659 2.3897967670843037 0.7778126994553701 0.6503880554510928 -1.1000493157696476
Ni 6.741281745707071 5.4313617619632195 11.638750109688567 -0.387038700391327 0.37627760522008097 -0.42395408536043766
Ni 3.870314966181646 2.4082906595195093 6.122675076026229 -2.418890254593344 0.8580288040946449 -2.5025416101664124
Ni 2.592812783571275 3.8464091534029285 8.125618181287157 -0.3019084462798865 -0.4943634883219357 0.783801055828321
P 3.044698406914189 7.8076421584206415 10.771234005567532 0.21075024080681123 0.20390416441925527 1.4354885468171277
Ni 5.869937562383617 2.0919577560590157 2.0768927407608433 -0.19107513097538706 0.5560239414462101 -0.12480263300039797
P 5.70227269492126 5.550733367965587 8.777224320076101 -1.2578985948123689 -0.6104367118691357 -0.3003033065762957
Ni 1.9613881153222554 3.780212003488363 3.256689523200686 0.641072948697754 0.32724332550024926 -0.672924545990712
P 8.858923662492698 5.488046602802332 8.630410582302801 0.3392043545168674 -1.5139226198553153 -1.0162274960569853
P 1.9415854699441473 8.158291619938145 7.065875631119264 -0.023177980778360082 -1.4191198756511172 -3.922872989627128
P 4.527525679675124 4.382553273006203 5.566355043220366 -0.28754137892493703 0.35231826619100615 -0.8650458588424265
Ni 0.7827046527956253 5.60941885024608 2.1689389190763553 0.7587644245746674 1.0031588357984853 -0.09531465084361004
Ni 3.997865120298545 7.118967653369897 5.311512224949856 0.1610847552608839 0.3610114230896299 0.5368571387097721
Ni 3.762039510395824 7.208524144558359 13.112703240944935 -0.009806444567460531 0.8479194835747849 -1.3206278555207902
Ni 2.472061105463511 8.4962888767847 8.836695239366914 1.3356546679469254 1.1249671620572497 3.475979778972014
Ni 7.398918521729731 4.212081950188578 9.789507209384581 -0.08209686660175539 0.0021589553245317658 -1.492823633093171
Ni 0.9349201224606546 7.829463969697921 11.214210290936077 0.1473460655185527 -0.1244755886782824 -1.6979994651359982
Ni 9.04254735034162 7.6650316201200175 1.4934603115327165 -0.10358383283093774 -0.6656758348480988 2.5218863332416115
Ni 4.737639342164548 6.6354052072051255 10.629612673312925 0.9921835677339041 -0.2784018785175141 -0.30577924208920243
Ni 0.03240946512747379 0.6842406760785736 8.513881554348394 -0.011490002917470536 0.29164100291560746 -0.8182489530935455
Ni 0.433277805492297 2.249369336134297 4.141449118856063 -0.5709785058735134 -0.2559695176559269 0.05604182138591638
Ni 8.781046841941183 8.798570979011053 13.326159641842667 -0.03762398100036101 1.1396787572358116 -3.249807290072861
Ni 8.614428606343994 4.081956896438791 6.679062723103028 0.4202606956692504 0.33334223930913554 0.8702700833558432
Ni 4.099036446521687 2.713518150534562 3.577483116097146 -0.5015047273524073 -0.4389901537579536 0.8636762321884094
Ni 7.2077739040178415 6.8235210760682605 9.422256128795176 -0.11992139364869671 0.29318366481237895 0.09728257320325827
Ni 3.7345955261791097 5.659916522183146 7.215590298982567 -1.1168149652637605 -0.18962862833684763 0.10750579359316323
Ni 7.3528667196624 1.7511633060860885 9.42363897956924 1.7785166459554596 0.17267863074607034 0.49110667194753493
Ni 5.85168170923102 6.843231099157416 3.4552059488903297 -0.11538879588566579 0.5093787307838453 -0.4997370939290232
Ni 8.29807717842571 7.087105585970135 3.639909612628443 0.09656369275936273 0.4934047239530922 1.218648648172811
Ni 7.664800064397635 8.47197552593459 7.442276867634315 -2.0473195679306286 1.0592271395469628 0.3824245986580833
Ni 3.440603118814032 2.090466537206876 1.3299199145974285 -0.8654127552635418 0.837192584075584 0.512155265087718
Ni 3.8029692998840656 0.5043931989502558 11.952685022088072 1.9517645189414388 -0.9676932959020237 -1.1727693691421932
Ni 7.839680208169415 0.6976634981936132 5.219425292827205 0.23998625485379316 -0.529282668796624 1.1401454124595847
Ni 5.810872328718417 7.940795961019185 12.408445035777882 1.1109687908956285 0.8304539798001697 0.4775926966215
Ni 4.702739263687134 4.258356045749396 10.198905136339068 -0.9190853050863331 -0.5219455117052624 0.6390278932432673
Ni 9.133613584840013 3.466963422249998 1.8544353058226797 -0.2199311359751309 -0.7658203029801843 0.1749622845739245
P 8.174889534118488 7.215619011892143 11.443649594015504 -1.0259295538360977 0.38859987423085973 -0.2310521855889569
Ni 3.803663967051212 5.569489381478528 3.6764166878191884 -1.3064880736852984 -0.2373038229256236 1.4287975079501973
P 3.391865270367069 2.3070544976941 10.720005543770629 0.09211439873875749 -0.11735800379689465 -3.568195736285642
Ni 2.2062907095423503 1.5151709760632526 7.453975988951943 -1.3661782904570796 -0.6879511013065313 0.9108287215044959
P 2.0610589604643623 3.8963140426906966 0.7966044796987718 1.1932170954735837 -0.07112262697843881 1.8065794656299468
P 1.4707308018236998 6.733418113374977 4.1176303710289615 -0.10115388323320644 0.12671347686986564 -0.5513684449520697
P 5.164266867310034 1.4568281962518848 7.209015042689808 2.4792795543146786 -2.0781702347628985 2.604426972249005
Ni 0.6220262845889787 4.753959389478031 13.17564471740281 -0.6069338409221998 -0.29583678616450987 -0.2581323296352006
Ni 8.045181280668988 6.332419175582731 13.352011448912283 1.4886682161639007 1.4139473303112424 0.7795289108155284
Ni 4.028189657701691 8.860461192489314 6.914574343446199 -0.7089878673721726 0.7576945885492564 -0.17421049400956448
Ni 4.293561777780355 4.458577647778661 1.883445532945586 1.0242858475850876 -2.2226556909042046 -2.028448699168055
Ni 5.208104996671394 2.5625993929148714 13.281885261500339 2.3087984454405595 -1.3482157924413876 3.4465715010132256
Ni 9.019623333825802 0.5724289013005341 11.097450633482179 -1.2403721558928316 1.3145168575270458 0.6369558412055869
Ni 5.39447030427332 9.048530750207972 2.728213602899813 0.4014970419085021 -0.33774602480378607 -1.1733818059152112
Ni 7.73641561821594 1.051225930698684 3.009125890618977 0.23505899275550488 0.2175315253947028 -1.0436215717992219
Ni 2.3506888580197636 5.956687598216808 9.406734485612468 0.06190265104206758 0.34588099520609467 -1.2082963584042095
Ni 8.561772835074327 3.278319606339833 11.793481200721555 0.40321788125435076 -0.2894419383817596 -0.458191666387069
Ni 4.203468077315967 0.05053286840686791 0.7887473309269059 0.4791566986745102 -0.9690336119800022 -0.5199125404356336
Ni 4.641062081473465 4.90219210071809 12.81279967909889 -0.20888130591887252 0.11767476370636507 0.10196480917027602
Ni 3.222783281883735 8.207251761878595 3.417668913846429 0.024907047654324846 -0.05349642925624335 0.8177113354225207
Ni 6.862635468693027 9.013241658116955 1.0490826509323161 -0.16322802685613177 -0.2247722661175161 -0.41409981827417713
Ni 2.220906506739102 0.5667002127288034 5.224101792196431 0.6811723878218011 0.28900150841023126 -0.2284152621867421
Ni 6.503816721289885 5.135239041952227 6.196502450104726 -1.3255011244526913 -2.016793888537946 -0.3156921303275402
Ni 1.4442037782676183 6.944346852007186 13.218780769813906 -1.07524536935209 0.019903166681830238 2.24158955169423
Ni 5.023397628041722 3.6960924406614315 7.802004239692084 0.5780904343279463 -0.2758415739895056 0.16504631101179318
Ni 0.1074992810043972 7.543464865869469 8.793546219835365 1.4656941238662304 0.21323726889472308 0.03969834703088647
Ni 0.19557011067805535 8.447236112555297 6.093271204175274 0.4776315202792354 0.034767999608804646 -1.3173959788470537
Ni 6.970938711165534 8.904345632995149 10.563024657338978 -0.21972081973653773 0.6277811166848543 0.4201095148033668
Ni 3.3250568133454155 6.401922941212911 1.554015837827167 -0.3607088042475465 0.27409065273666994 0.1843424402372438
Ni 4.934526541791512 0.261399550105478 4.696331653737379 -0.2816000737398376 0.27412202019523757 2.6104479816321042
Ni 2.464864353611879 5.67858917563603 11.650625213355205 1.9180277888106259 0.6676926081678114 1.5550926663357216
Ni 0.5300440156528439 0.9755813073109333 1.5250195040476036 0.26243609921687705 -0.1282013742693018 0.7329796023010796
P 2.4961984739646104 1.0735571645652036 2.9925872547035652 -0.7476194637014415 -0.38680550133459835 0.5616651988923876
Ni 0.5488213322922447 9.037555008967065 3.679967826377639 0.21057592001247605 -0.7782649565014402 -0.3359580796654279
P 6.68304085041355 7.7335999006317735 5.26005313365346 0.1013073780919352 0.6619783313918535 0.2594613328592693
Ni 6.0333140178674585 4.53134171797998 3.8281514478045526 -2.330055812157439 -0.21369775347090936 0.551842813485327
P 6.849381219143882 0.8563245529468678 12.643075818153113 -0.9113478272327594 -1.3883489130168478 -1.7585880253523325
P 7.644024884985522 3.2594802327668333 3.752101138791189 2.0332805733390593 -0.9078141030478882 -0.9106166054936898
P 0.19891562775503044 2.062411245883073 6.399831529928357 -0.45311836562921964 -1.1785697778740543 0.8469676611844767
Ni 1.8431372390162175 0.007037441514633644 12.751186406264598 -0.7396295035174294 0.48732380786633495 1.2175986096417417
