# total energy = -340856.68170322815 ev
CRYSTAL
PRIMVEC
9.38558581638732 0.00000000000000 0.00000000000000
0.00000000000000 9.38558581638732 0.00000000000000
0.00000000000000 0.00000000000000 13.73675355183926
PRIMCOORD
 96 1
Ni 4.706646086571267 3.11626793742073 7.970765159044834 2.388958500030918 2.9803019427140285 -1.9982518638697004
Ni 2.8594501497960985 7.559526326220918 2.637058691338852 1.265240894110053 -0.6644000534594687 -0.48807765531322395
Ni 6.928805566576037 9.104393769228421 8.256022210576251 3.346760504961159 -0.174363474647661 1.5471692977235871
Ni 3.678004640527911 0.7468223346357145 2.725729014351084 1.5555981452172305 -0.3255636238049813 -1.348574718442703
Ni 1.8247080729024707 2.019796861908266 9.87895144882666 0.9672194415893989 -0.3359902184549439 -0.4676299289818334
Ni 0.1443540657377436 4.02450170165155 12.34861352242699 -2.2893254243176124 -1.1376918087127696 -1.136468992049262
Ni 0.04386259725486795 9.224688824009872 0.5348197812371861 -0.30532184283680963 0.9637016582441275 -0.1930559088508417
Ni 4.226376269280034 3.0550551460276862 10.535321137683269 -0.8653965573136257 -1.265788796193723 -0.17419840982470644
Ni 8.85603239452086 3.34003907700873 2.7572683372884015 -2.685037741223537 2.113688482274166 -1.2827629621542165
Ni 6.725175894379861 2.275751175627936 9.762243564985166 -0.5970739174089846 -1.0462050162556822 -0.06837180370617903
Ni 3.191258768949466 0.2630301069473934 6.6322004031045205 -0.39011836775791525 0.3274631548205393 1.4500759577129996
Ni 8.980100454843559 6.978276989978787 11.693920099216317 -0.7104634234764344 -1.7220886448747181 0.7000836229040073
Ni 6.550153488078501 7.270591063566082 9.652817018703121 0.01975250003657889 -1.1859812398467768 0.7674498681638072
Ni 7.637098193878615 8.960306254130904 11.764320440669872 -0.9219554275452767 1.263844785093475 0.28177902251986314
Ni 2.3904336500271377 1.7380321868989816 4.359468570468174 0.19966107287218518 0.4055714690881918 0.9105353586337931
Ni 4.806724589273508 7.593924498630532 12.535034722832439 1.3464676994020295 -0.3907495735840109 -0.7352933380359208
Ni 3.557371704653212 4.913279146262962 6.715143641586235 0.29710845378808187 -2.375323939966619 1.3695148110294801
Ni 2.496227974556789 6.859155133437771 8.610142244586955 -1.6275800348721712 -1.0417567506763414 -1.4793883335238716
Ni 2.27772214867187 4.106156299185969 11.362520691609214 0.7021857568486746 -0.5146515491470105 -1.454176095924302
Ni 3.9411576986509025 5.467150728366255 12.520281520319294 -0.5455189281498283 -0.7041590785249615 1.3328308253448853
Ni 3.33099137217848 5.108302236167293 1.4899842907612653 -0.7473880644169258 0.2771227546947743 -2.2040303624935333
Ni 3.8017066629995933 2.8607265894816942 12.976588998189248 2.098133308148386 1.3578695134810679 1.501547386119414
Ni 0.7202367239488187 8.99076248045265 11.695280070616633 0.9742976885924188 0.5712381872928033 -0.17363688089428161
Ni 5.624565775475134 9.19236486608935 10.577821886420638 -0.01968770823691448 0.804405105231918 -1.9331029379761933
P 6.758945232532601 6.710571922682901 11.82531173223512 0.07039191946000134 0.7010616705465603 -0.7138122853440093
P 1.3393043401110851 3.6735089448705565 3.5402082836749145 0.24101906699368164 1.2705625634332827 0.10944389115614053
P 4.444318960009543 3.0426755581945946 5.587809005322946 -1.0673086310035167 0.18611187343284077 0.645397801325353
P 5.424784193507592 0.2124568157572256 7.149032708919327 -1.3578510015383065 1.8731512400129093 -3.909621009713228
P 6.957825798251489 4.556129445116155 3.6889228926327142 0.8720775688782271 -1.0120651371491796 0.513572714260535
P 7.92981584766062 5.838510206601234 8.902611180341987 1.230075916173146 0.26897415744571096 1.868559249766853
P 1.3855752787139224 5.675980015164049 12.464771410933368 1.1706440952690742 2.383574352900869 0.8107364467665843
P 9.033448125232711 6.955535715286156 5.02011057803716 -0.6574161659424678 0.432510716681197 0.4455693496373681
Ni 4.535912893036945 8.311443156895905 8.466854381410121 -1.265116709827363 -1.0723215108370758 0.9223565196384375
Ni 3.734618494818441 6.22950433058817 4.93529960795667 1.337495063589774 1.1256109662888356 -2.6486658874627222
Ni 6.560571488453581 0.5058117508234359 3.4789842295787627 0.050042152159055754 -0.1684388816331099 -1.8514976662988758
Ni 7.813059158772325 2.264976522987762 4.448825918370006 -0.02716499045056612 -0.5008789208429503 1.2468343665784074
Ni 1.5883508625910614 6.830735579261424 10.554744607751946 0.44786251654691905 2.227503248804493 2.274939587909585
Ni 3.808933564160686 6.23200089644382 10.150266212468722 1.5793682510536347 0.31258649481902295 1.4067436134739513
Ni 6.035551197479118 4.847260934877089 5.841925621318795 -0.12402847383853477 -0.8119245535374146 -1.2195076537389966
Ni 5.2547361477456835 0.7744093873406473 12.494497438670265 0.12255446039616959 1.1783147244404544 1.7006379312001096
Ni 9.394408374264458 1.1807724082773081 8.42907833662664 -0.7230803409094966 -3.4062740869457593 1.0872609057557274
Ni 7.616722086838704 4.2878143147352406 10.550486367418456 1.815785814719563 0.2643204607237835 -0.07485972542336784
Ni 2.1160835878974154 1.131648251553728 0.44540330414403617 1.6677406662514571 -1.862868884250295 -2.1315561065832065
Ni 7.0205590545641385 4.889618084149828 12.998636678082134 -0.7176954224484995 -0.1574106488434063 0.22118223477341262
Ni 9.173922189749682 7.629814979201982 8.83263694448936 0.7289740806861122 -0.008031869165541005 0.4421351271448386
Ni 2.270898827705488 7.571164452766053 0.031806812136136856 -2.7248222202103265 -2.6337532320169483 0.08871282925637625
Ni 1.8096160507374885 3.638923060742472 0.07532308127042778 0.632455125121756 -0.2927113531616507 0.22937531210716625
Ni 6.546633893357189 3.2335877614644346 1.5149987543645678 0.4898442602953434 0.8071050206615842 0.2674034705244814
Ni 1.807072556952221 3.7198925105044753 5.534222002492744 -0.7655446807212944 1.0703561595805888 0.814168869486901
Ni 0.3722210750227579 5.106594059529217 7.535735743022038 0.5236753499121756 3.475312320591344 -0.49707291683329874
Ni 5.15341874770154 5.274295708810251 2.6715516581662935 2.74358818796392 1.3646878219544818 0.6557243800623417
Ni 7.5857121109474726 6.895918473500107 7.1342100530703485 0.4045258014324969 0.10275259517889401 -2.2916977812045305
Ni 4.856139699160717 0.4041705480649319 4.9937633612327215 -0.25239054205541694 0.7300989383191749 -0.10683190745459022
Ni 6.818703258107503 1.0792203685850774 0.5758347917228652 0.8719716394279822 -0.602609245404917 0.49451055542276123
Ni 5.385514902003682 2.7396619166545144 3.7072200923905703 0.314164123718788 -0.11376848667342343 -0.673546495845427
Ni 1.0040042829941773 5.221436088889119 1.5460575353026023 -0.3951482168723388 -0.061830403043235435 0.7189814882497747
P 8.831817582838239 1.217892400604736 6.1671981184350395 1.3046425358361273 -0.20013158475070048 -0.2430268414523299
P 5.51352490841425 6.046363392462985 0.5804722097276648 -0.6816752956001486 0.18311242448488466 -0.16103693274208394
P 4.292704205001383 1.5594808002903866 9.042012472387903 -1.2652190397331822 -3.359895756791536 1.930978435434023
P 9.314649665086586 2.9371628012426485 10.023338364115135 -0.9914063232482475 0.045918102688353175 -0.31972413430506874
P 4.539760983265578 2.304058102773201 1.3530551620475997 0.2652954230425431 -0.1316664499997668 -0.1081017753059493
P 8.421883346457689 1.1571395029219442 2.2543933363004274 -0.8754495706742536 0.3770831318405119 -1.2777583098507737
P 2.962316171517619 4.553567180159041 8.888778703807938 -0.0600681689364901 -0.5747891378688552 0.9002730574758365
P 0.8265876137237331 1.7097815732692576 12.207990227093838 -0.04877742651401922 0.4230842811609746 0.7976204782099167
Ni 1.250450998173345 2.2681300798580564 1.960042590567734 -0.1327087752213521 -0.675481765194927 1.7055896187784303
Ni 3.41391302381257 4.112228773278471 3.5585749367686046 -0.5519561991347398 -0.3806947604511701 1.3091121415717069
Ni 5.504843241435015 7.660017794703792 5.951366245979725 -0.6641804812494948 -0.6979025560922884 0.12435628949159876
Ni 7.424111092516712 7.687151523608621 2.8998015993569863 -0.6832236139238749 -0.3078806047029214 0.6896323456636962
Ni 5.475691611556636 5.976562789949943 7.815127741909864 -0.33398655776135383 0.11087522428602842 0.9969743042543282
Ni 7.382260764883841 9.076396566418632 5.62127237337458 0.3581294735561445 -0.0071376394860457725 0.5564443168130804
Ni 8.052851493531735 5.949372747529574 1.4912072326070969 -1.0019190498541133 -0.8213077945245275 -0.2037342145002943
Ni 7.429817528758198 4.240708058985213 7.824496433778697 -0.9180514645051802 -0.8615327034828453 -1.0257040680888527
Ni 7.826940440353177 2.146840152968713 12.167233320221055 0.7422108910913604 -0.47641178893952146 0.020335369123242394
Ni 7.3380921975278675 2.0339878678245924 7.346099979437795 -1.678026364448181 -0.5656414099313162 -0.29759979160220357
Ni 2.5061673100497717 8.659104030674058 4.6921181381202866 0.6336753706821022 -1.198372414422278 1.2881381104232008
Ni 2.4640541860110434 2.67973495053299 7.402585251201173 1.8730478816658258 -0.9258262233545926 1.0131218605484682
Ni 1.4639824635188112 5.934618606457837 4.346926611998605 -0.6711800524957796 -0.16430609041165897 -0.6310554165607519
Ni 8.689654112855038 4.538343759791129 5.483094023174497 -0.4232817418837614 0.4361118037688941 -0.8725722491264586
Ni 0.43896479220051765 5.072580696142467 9.944640226146618 -0.2916366320402332 -0.616797363979841 -0.44414752958917697
Ni 5.476761568351914 4.81030049751036 10.68253780712768 0.8379171209464343 2.103382472362468 0.1462075810387353
Ni 2.896692154740532 1.237442576083379 11.856150890462544 -0.17731638662839785 -2.4652012218447417 -1.1714822748996534
Ni 9.035099988355247 9.192374251675275 3.763939065243444 0.35663771950196643 -0.28046518880444604 1.3162834625091655
Ni 0.5683629267691698 7.503841644936814 1.9671578032563366 -0.6402900477851424 0.43879500702801205 0.7755218465386644
Ni 0.8017176881436524 8.465817274165573 6.487113323106152 -0.7292299054506602 -0.2625345724679543 -0.4228374552574911
Ni 5.488878359779148 8.61237319836097 1.2499526235608074 -0.791072906899386 -0.9671489933627796 0.20474902891805383
Ni 0.35001384016917314 3.02301275568487 7.594818006410449 -1.6499913126878356 0.6762548959155257 -1.9397543818544398
Ni 1.907366928130703 8.993634469745238 8.60133668787353 0.2074602572016298 1.6251315733316787 0.9576477387405635
Ni 7.608368915366793 7.867542485058221 13.713112529391111 -0.9032236554637282 -1.2563541331433847 1.3887021825912083
P 6.0027579602624215 3.143157641091547 11.955893389188725 -1.349798306437159 -0.8803593492710451 -0.04154722731416716
P 3.632644103759653 8.930938755776284 13.528972026365073 1.4839497276423088 3.9166090109952862 0.9362551319974004
P 3.625023007989774 8.518001131900213 10.599251994759756 -1.3660929298321247 -0.6151174051742567 -0.10793079694572381
P 4.990015696773469 7.90210959801446 3.635555512513122 0.21415643827488276 0.3488454771510573 -0.11808793998438372
P 2.8737631683294302 6.839680042646517 6.705362922495359 -0.3260325930215998 3.0092245392856496 -2.7803405649926054
P 8.611800677619637 9.34324754539548 9.989559640376472 -0.0367012120757755 -0.2607013759139575 -0.234181475246558
P 1.6418487023549908 0.06072943371798327 3.0253413195524894 -0.4302054655867881 0.21722016480187106 -2.0853456694654153
P 8.537448065933699 4.022652741224621 0.492312462589671 0.7023729331588162 -0.2081922502716479 1.8584836106984055
