# total energy = -381166.2866849858 ev
CRYSTAL
PRIMVEC
9.30139400643174 0.00000000000000 0.00000000000000
0.00000000000000 9.30139400643174 0.00000000000000
0.00000000000000 0.00000000000000 13.61353032772286
PRIMCOORD
 96 1
Ni 6.584289266918406 7.238121444779635 1.8856232038364875 -1.6927911814621814 0.7418403951258191 -3.13580688989429
Ni 5.601317967001277 2.5232542139252367 10.339434961872263 2.046215022012541 0.42361701373599303 0.44626997524881856
Ni 4.935403278555336 7.707683709481721 11.180574888117397 0.48890477920020964 -1.2002094676310169 0.4557833140558925
Ni 2.045116064112216 7.282386778014927 3.997150289753003 1.3325654874986406 0.7785737459911107 -0.10009458873075665
Ni 0.542743771074985 8.764173226228383 12.644491498505333 -0.38407550399794504 -0.7990294427423013 0.45215394483342125
Ni 6.053626146149367 0.2298588347363935 9.727452545268765 -0.24253087565251782 -0.39084547573192685 0.6375695635301858
Ni 6.333272551637714 6.744589488178548 9.554764727706297 0.9396636434583171 2.1030112050659784 -1.7752050650837234
Ni 1.060935582997233 9.257054085261395 1.9213861329720985 0.38165969546760076 -1.2674325024447333 0.20592170906991633
Ni 8.170790806866032 5.221607166693584 0.9231065990901358 0.8746049632857711 1.8764409665077748 -2.088424822611371
Ni 6.515365938640719 1.8240498369629883 2.9002676100223312 1.226068851896282 0.3760683174227523 -0.6518271018904644
Ni 6.312474635034622 6.084339348574863 7.116486187529954 0.2399325187977223 1.3642597332781279 1.9537532672366935
Ni 6.418101263364098 1.7799426274228005 5.2273637993347535 -1.8760804978445627 1.8245447918591158 -0.12544309479787427
Ni 9.174318187146682 1.0267622620671086 4.409572231880799 -0.5326328162157795 -0.5202187588221427 0.3240772690674419
Ni 3.6248368879580286 1.9530880735616853 9.649896593377782 0.00707413323796201 -0.06300282608478182 -1.0979484673765607
Ni 5.5174100932640275 5.398742910785388 0.41854411954647025 -1.0679398368296125 1.1780380737403 -1.509381537451852
Ni 9.186307683793096 1.029599187185151 8.851980244259018 -0.291806067738562 0.314204232928104 1.3480111326297495
Ni 3.4260381976369763 6.90382004914828 6.2713996798829 0.3313524625726164 0.48489822914397784 -0.7232559472554124
Ni 1.688761063710768 0.9952956467414118 10.84998381848469 -0.061496673852900544 0.40850201247142554 -0.770346472985312
Ni 0.3698773667509895 6.98188664756051 2.017211882623274 -1.087589235629424 0.8794008420125177 1.2310642482283443
Ni 8.512226371564724 0.8703621152397378 0.6370543236713111 -0.511231467721868 -0.6222933540974057 0.08994413056031607
Ni 3.628148184161383 9.06884038111848 9.931029361600107 -0.420705753626469 -1.0595600974063495 -0.876618137061058
Ni 1.182458293381575 8.07168445561114 10.37246142094319 -0.4157545802687807 -1.2351237630096985 -0.5303098245095577
Ni 6.544237465087944 4.492424397418382 2.0497351362880187 -0.8777607353059336 -0.8249376779676308 3.2853607616974387
Ni 7.752107166412117 6.185780349680996 3.200949117656426 1.9451886654961335 -2.400442846521434 1.9178645237598844
P 5.000754871602438 8.403353556788703 4.382630744653225 -1.3584174155647377 1.0011718872754436 -0.3152948948891215
Ni -0.1522889307546667 5.48335769045369 11.792842857511463 1.1078330734801243 -0.08332328280968876 -0.7990762368198367
P 8.768386757633213 2.515199206868762 1.97132066574656 -0.05560473384849779 0.5958395307812513 1.1657615703657922
Ni 8.571373934927452 6.097919383566147 7.908058986056899 -0.6691385965857185 2.6543210288659704 1.1681167008615303
P 3.46153231649091 4.481802205664925 2.207923941148831 -0.6752099995907791 0.17386339508279092 -0.6090118064971511
P 2.243189245714556 0.804765895534916 8.454383793756296 -0.9909543233124932 -0.8164175563117616 0.03074910825739866
P 5.136145960186784 5.385339602276866 11.831682687725921 -0.5215457051636825 -0.17260046920996727 -0.467169444405647
Ni 3.8318115034553406 3.2351642948587833 7.721607896044703 -0.02958722673881356 -1.8985663376519046 0.6161921262956743
Ni 7.089187526779321 6.545846606220473 11.693355149109557 0.04590858960665642 -0.2374876568016555 1.3821342995657036
Ni 0.3247990916949867 3.540473245923127 13.75688053188941 -1.2675564296171071 -1.1163539664669417 -1.743216942212901
Ni 5.659442377042742 4.756323543153137 5.4757565914161015 -0.7163939300282565 -1.0259254400710394 -2.1281982458545667
Ni 0.8502962183310396 5.436311240463334 4.384210121325499 -1.3727580005571263 -1.3539156710396425 -0.7130772069501977
Ni 4.308768376251996 1.848289269283049 1.5997802097788296 -0.23802501736236428 0.298308387633454 -0.8917794181825286
Ni 4.430570128451228 6.432778862827281 3.180801368482027 1.2581449064952204 0.22914596970517953 0.466499672032132
Ni 2.875209655045262 5.898376581738724 10.959708640935505 -0.01940128734474723 0.3996535609418601 -0.4906065923826648
Ni 2.0400375030812286 7.775342048198575 8.093433904803003 -0.1777413899809584 0.3389963522711194 0.29033848205409996
Ni 0.20509852436187234 4.185459798252362 8.118088179287867 -0.08526369436551122 -1.2963592127814128 -0.6118431052983593
Ni 6.015946199745465 0.27165743832806266 1.1899831209897598 0.36072268820461745 -0.4640080159585299 -0.25512028228175415
Ni 3.22682094459359 6.018132027295432 13.211753743715269 1.5834539910872343 0.13677548909155798 -0.685241158574536
Ni 6.444563728809444 7.0717288105610745 4.906901947582531 -0.7607261762867286 -0.909418985641163 -0.4144163210733315
Ni 4.990979106687479 3.598076777910133 3.421134502809986 -0.10283024249436483 -0.4349126412544703 0.4647065846874513
Ni 1.8427177343790904 3.440548372011226 9.691907268748768 0.541121570413081 0.834037326276054 -0.21845223743675926
Ni 3.7316261905162094 3.472666084904998 11.360164339901461 -1.1322647241599273 1.19305331620221 2.2322158237888137
Ni 7.27570837724524 9.093265841315134 5.327940700954112 0.4346591304827675 -0.12050837650041825 0.49798617267618744
Ni 1.8564837972469683 9.164281983204491 5.829626259386268 3.399390986672681 0.37442101162731645 -2.4913161737642384
Ni 4.180334730252226 6.918618566731249 8.750790380786285 -0.12040707503586359 0.15130350750440394 -0.4542077420386565
Ni 0.9851385246794367 6.350535938585539 13.561648926102027 -0.2165691614814335 0.3324495522915371 -0.6605534260198688
Ni 5.985167887563162 8.542521011267887 7.496276979824581 -0.12289693133725287 -0.7207190397661716 -0.2843352132828135
Ni 7.143396050018507 3.618493337366209 6.9453647246884005 -0.2624823790737802 1.3967847024890265 0.4534394964140643
Ni 9.08835470537308 7.679537691753207 4.452332599594453 0.25387612546200794 0.4774780254205067 0.9133412035137044
Ni 0.9937609167595199 4.71850407584179 1.8301617828484493 1.4965432480366032 0.0026400087260083564 2.329537477760123
Ni 8.080697506232067 5.732904785509298 5.627138636272378 0.967204014970431 -1.2708317579342694 0.1935765572410021
P 1.2702913553149349 3.2698770966310273 11.79744425703899 0.3049703730346619 0.09921398589801622 -0.5174224270239283
Ni 8.872841410340152 1.6311203261484433 11.94824124422338 -0.8954632947920191 0.4794549466412194 -0.295467061529917
P 9.27244789204946 3.6809894025076093 5.883835712764835 -0.09708125582572957 0.1436968988017396 -0.390209899030457
Ni 1.7606050296509639 1.567173243569618 13.097318695429118 0.5484191325157587 -0.5128399498595684 1.043777637761112
P 3.069487867965105 -0.0037903179855812838 0.36540990729460987 0.10919886502486999 0.4625234609932034 0.30134228936377133
P 1.3950323479643352 5.922597411271124 9.43017441763694 -0.8607613725344595 0.0022072920639639405 -1.0575142706209142
P 6.5913025178659606 1.9103388675206265 12.280656317186084 -0.3371086483301033 -1.6900257029019023 -0.632485464139059
Ni 2.747361996856759 3.8411873084356247 0.10866260327547189 0.09308267618929776 -0.5336273189185649 0.5709661645783393
Ni 4.318637155105252 0.19183287648202935 6.126782538758926 -0.29344540311419787 0.29153430213441406 -0.20834214558595085
Ni 3.103865819559482 4.754035400271042 4.367833157209639 -0.3780735207782392 0.3038342025476896 0.34459878605956135
Ni 7.777332546478119 3.6688696863475787 4.114920817866465 -0.026171259078729123 -0.15087824704152727 0.1276681274736511
Ni 8.155145862444565 1.6871054156090906 6.696713353858587 0.8837938288738908 -1.0379162938843285 0.36389182996121844
Ni 7.00565170879526 2.947565197646088 0.4988160784357096 3.927993855793461 -1.5945462443456537 2.874406173920463
Ni 0.9325763481480999 6.713262393760295 6.244934424019404 0.5477113078154567 0.23750668296504907 0.8026971214018757
Ni 0.8902857008228424 3.111725497345534 3.8039603399112276 0.3974035885654188 -0.09492975670036555 0.24445071838304996
Ni 7.933884306024914 8.742221936790415 2.877464312909568 -0.27816353725446286 1.4943917489112393 -0.6769650346086727
Ni 6.646980661330229 8.71725699575164 12.533391930046493 -0.1865996117025367 1.4414162251554725 1.0390534928125654
Ni 4.173702836451687 1.2588785450859574 12.169815327475707 0.22201578641830153 -1.379740088301914 -0.025266744986588742
Ni 1.8577952937769486 2.044065006609466 1.8640737346119607 0.04342773216633166 1.5481841121413467 -0.027822164418590794
Ni 8.127725353434764 8.734566889668615 10.777736172052286 0.8683294146897045 -0.2703900639566311 -0.5820579036161266
Ni 4.457162813410189 7.666404123665745 0.8844258227101646 1.032186590489403 0.41812976536917673 -1.6831364319812367
Ni 5.6548939954600455 1.6161543834765408 7.749039566727099 0.30640350593676263 0.7786105127663171 -0.08398199943961021
Ni 3.9723555642213113 2.8829949216806763 5.611183955436384 0.3179500731237815 -0.5265038204999062 -1.2629083893221347
Ni 3.556946014395433 8.856601176713587 2.6374306834629233 -0.910948792022128 -0.6876410262652803 -0.3422099741124106
Ni 8.873222767487167 3.64351408676796 10.255644285697265 0.43022423463986553 -0.944206011413361 0.8134145078193797
Ni 2.670272044796642 6.5739182127983495 1.6974439148507436 -1.2530399811684874 -0.6492760533338365 0.923825647984796
Ni 6.864456550461212 4.7351349680092 10.131638103160409 -1.0356249267469908 -0.9582234087383755 -1.4659841443028236
Ni 4.3295662928550875 1.2545999039243199 3.825674443806539 0.1846370886595272 0.5012874691352787 1.8434316014612897
Ni 4.1931985579186275 4.58164336703236 9.435061369955035 1.1588424746484558 0.9940758996606105 0.35742704817248117
Ni 9.534114703265098 8.937086137521526 6.967132776667923 -4.205632630892706 -0.8043169163934857 1.9403200245499228
Ni 2.2056953271872475 4.674406167695432 7.082439365555913 -0.4270293818516517 0.9589268625633034 -0.981339940151181
Ni 5.099758907525204 3.1129811855125364 13.379975962100122 -3.176146727163917 1.0467719445027455 -1.3202969545439327
P 7.753744211726134 8.439368553697097 8.657551348759135 0.8981061317315049 -0.3715177219375924 -0.18604245364748606
Ni 1.2008564503766175 2.151663530430826 7.0545444854608 1.048964067058058 0.01105702914510999 -0.3473781485769114
P 8.114470867227515 7.407890484958358 -0.0161881458211182 0.46064398458230343 -0.037266083440310016 0.23769951570214548
Ni 2.871377480787447 8.186314833167712 12.006139630394786 -0.6236169580048357 0.6371008514238834 1.7640827299183168
P 7.342455179366789 2.7278104670268406 9.041997488665501 0.062016550912112556 -0.38209138368838064 -1.3018379765077968
P 4.387095413691457 5.20801783030847 7.189019386752926 -0.40386965590573676 -0.08724961444728845 0.41483335400609206
P 1.9632637984113197 0.9689820035973395 3.870626219906459 0.7716531076118774 -0.25702392706237026 -0.38826125994451843
Ni 7.362434573312871 3.993441824033122 12.15365601597546 -0.13311680929304817 0.08108770861095067 0.8342540702725503
