# total energy = -340861.29389020574 ev
CRYSTAL
PRIMVEC
9.33116657641862 0.00000000000000 0.00000000000000
0.00000000000000 9.33116657641862 0.00000000000000
0.00000000000000 0.00000000000000 13.65710549336353
PRIMCOORD
 96 1
Ni 7.097490447784616 4.293484276429029 12.697994000895527 0.32173113743276843 1.3061448314132666 0.47710752945496543
Ni 6.2541023040909485 7.806929697838672 0.6457969627548853 0.5002572280985513 1.6289650881451558 2.182989482662834
Ni 0.14815186201361666 1.6522882963812742 6.034883345675476 1.4859559594390601 -0.2328982376587602 1.305433407168539
Ni 6.6533735830840035 7.8143852997904695 7.517034618893409 -0.3991797066292351 0.4458022915837806 -0.10993317208773326
Ni 3.963282291112072 0.4194014042629081 10.727615573181565 -1.769739928204094 -0.22287607753606778 0.8113900211901832
Ni 5.844622729058761 3.7029147551158292 11.019808918410593 -1.8866806419579123 -0.18689168902165876 -1.0543186465017522
Ni 1.433994989672458 4.4036107022552 0.6066321911502753 -1.0263622704981419 1.1753687544382532 0.029476669302878265
Ni 8.477812568337253 5.821322806563596 11.58917336408492 2.598302347408506 -0.05568623781871055 -0.2156638760583447
Ni 1.550093361993185 1.4177400978075883 11.496264806495866 0.10384994200813083 -0.4905579985329165 0.06445010005426965
Ni 2.822901783311018 3.42437943814318 7.903940236176175 0.17319670803306947 -0.4313735177529603 0.6690223827228284
Ni 6.088212827871861 2.240842285752561 4.28185764309744 -1.0186193933279295 -0.2835530837011504 -0.7723897286675859
Ni 4.81134534917101 8.506888482832622 9.048542163655569 0.030648835234108506 -2.4427097256104444 -0.5083094089790665
Ni 4.5301599809414 6.526245772081143 11.448409919625037 0.0567442467695797 -1.1316512589456447 -0.15120297737079766
Ni 8.309217053862819 7.691867084988095 9.601750627828842 -0.4694991209800882 -0.19776488429073683 -0.3950242896999648
Ni 6.146168702368247 2.6385832534563867 8.902889188003268 0.3726477217769776 0.7782281897262339 -0.9206552206766144
Ni 6.755661829136071 0.4538912615022484 9.208193755137765 1.176088149102781 -0.71470548658224 0.7599530455661299
Ni 5.525459513590335 8.982610008122391 3.455780679304867 -1.1753134757202854 1.2211058514640518 -0.9331762359617606
Ni 3.340893492382567 6.070073040394647 8.773037609528906 -0.6525750358000826 -0.17265754770014782 -0.11845509351581536
Ni 8.238421494403138 8.16347356589646 5.633801820401258 -1.3943547528912954 2.366608414470492 -1.7419241915434065
Ni 1.355669178929797 8.01810332458601 8.661745721019656 0.3261552346423931 -0.798984705547295 0.39760567727389584
Ni 4.314833985147066 8.65652306718684 12.969511347620433 -0.7733520925808551 -0.4304355793197232 0.490197272759388
Ni 4.436587044304827 7.106868270014349 2.0984281579569166 -1.3042512139349796 1.3981016215282374 -0.27298225016383953
Ni 7.234266684842743 1.0464809803405593 6.633174407182808 -0.9861077938534692 0.4936134975297885 0.1396623237210498
Ni 4.068957750566519 1.2489672911715977 8.366889260900713 0.09287493105386586 0.21841701332344965 -1.0452804475588837
P 2.3517618607225406 7.640508345134913 12.609741695338945 1.7297387052208082 -2.0715272755250838 0.24971968009147316
P 5.597337488352155 1.5757820630861734 11.062692159824705 1.3311097288887206 0.08344103933447565 -1.4447072372019183
P 1.4837487689052273 5.940715080622726 10.170145565314442 -0.1787816583200147 0.7248040084688228 -1.0578973649919459
P 6.789468644995097 3.152534567477712 6.183008147306539 0.47065380340982166 0.42172005382359634 0.43855846553717376
P 4.564088101963597 4.145277360533666 9.08410510503065 0.18112341907931387 -0.17228010975607105 1.2055355078296206
P 1.1048660884912416 8.765492428379691 5.870123873707155 -1.8480996963609202 -1.835836562722851 -1.1218612694384162
P 6.622226149648336 7.464289267713523 4.3921249695362174 0.7430390434196106 -0.0920938299134672 1.5840808260379557
P 2.2319963400074996 2.5486308093821375 1.4573499660493707 1.3631315332109557 -0.7132620692674941 -0.008318290057708256
Ni 1.1730955771915437 5.027464494109151 8.113631140582912 0.710976358557111 1.7074212726705305 1.4622989821417525
Ni 0.7636953170737373 7.6992107129431195 3.8024792336963946 1.2933764760040047 0.9357000308248788 -0.5892011995291273
Ni 9.220666725261628 4.078484871458616 6.626741501068204 -1.308728790090359 -0.5661954826625732 -1.9011340983790808
Ni 1.8961303366871127 0.7052943459401787 7.2076877904754095 1.9795506879157714 1.2063448911047934 1.5350205781761952
Ni 3.0299696968433483 3.1201554200775417 12.833690622001434 -0.050538375069183926 -0.8609724601040011 -0.013263035657493287
Ni 8.874536438903723 0.21845380277085755 12.59723233366613 0.5775708143790504 -0.7970478935358983 -0.8999804659360823
Ni 1.08374032776675 0.383446553899122 2.1580141872229888 -0.13842485176952288 -1.1418644520332206 0.25116695406096096
Ni 7.829996341173894 8.318016343775891 2.619309729261847 0.5549875297618958 -0.5366864174598629 0.744481432293092
Ni 9.013729448058866 0.6230513115437452 4.148291327280137 -0.42498098396305517 -1.1168216501319799 -1.3347902630641013
Ni 6.8974209090505925 5.533269699865246 9.883210332350544 -0.7455566676351418 0.6005526199862045 -0.8298150606645902
Ni 8.164527987699405 6.113117710987439 1.2020072631583127 0.6938646385774888 0.9212262626887361 -1.7715042191933685
Ni 2.9028418858404885 7.664237501284375 10.462531132571264 0.33294603231198144 0.6243895745048021 -0.4466456134206823
Ni 3.7399968103804633 1.3509756022317319 4.464876341472866 2.2018258986430466 -1.0524602531367746 -0.9902146169329915
Ni 4.792766996873102 3.8779021185727176 5.784371387628529 -0.2653306471558527 -0.09178118376905484 -0.07408170960676273
Ni 0.788770960534394 7.867628935255995 11.209164411886727 -1.8546184713160447 -0.10626215099404925 0.3086118264419911
Ni 1.7021540496108165 1.943952564475549 3.667287428692604 0.33832220902223026 -0.026029848404858398 1.787697284013463
Ni 2.133449891680929 7.351102219308892 1.468630413107603 -0.6371293906689737 -0.8418159417802084 0.4171782000891848
Ni 8.458655683722684 3.4825779229659073 0.5399815358044716 -0.32580633594340663 -0.31450196667418095 0.36038355969764385
Ni 3.3712291143416317 5.940089892474077 3.822610292082887 0.5286527485221089 1.2519536900828439 0.7094200698135846
Ni 8.897323147247013 9.069856413941295 7.6418333707633925 -0.0644657837835535 0.7727453122347917 0.7588271594918028
Ni 5.737248997319924 5.474278065898711 0.909895099076946 1.3510470912425958 2.0711575508904914 -1.394223369519754
Ni 7.148923836968979 5.664923126571013 6.410973207986617 0.00538440424036492 -1.668091364722656 0.08684800813349558
Ni 3.128553469835511 7.833346229910684 5.386976606198061 -1.02762159682654 0.33864693935150064 0.32410143743715797
Ni 1.3030787251121134 3.733782253559566 10.464155688641112 -0.23275399877141206 -0.14181587972894286 -0.13111006327566452
P 0.2765225843806564 3.9453944451275977 12.411249123726142 0.08001350171016541 -0.040119236618388975 -0.20659559520848939
P 6.2895607364023745 7.599096628661727 10.599866306496617 0.1070692202763769 0.4997499494448296 -1.3989174325613134
P 4.841307724474164 4.4114582131957025 2.835501657297891 0.4719362696666711 0.32223507365238047 0.6953479079912347
P 8.391182019500599 4.756963311404959 8.489898295055609 -0.36018558475422485 0.25780888485751086 -0.09696915572789752
P 2.9422380703717623 8.893254758697598 3.5369310341161246 -0.3664552198130204 -0.5366653344139403 -1.8694105420235545
P 3.155679170553752 2.382685346164663 6.0959306355994345 -0.5876217708571493 -0.08774120937172632 0.6964033458389426
P 1.0662817154365714 3.9814687344212745 4.700625461161941 -0.4647801182378641 -0.5229891224784284 -0.10501285196798042
P 4.934106174299726 4.631160526030579 12.787161693875724 -1.3424266965634364 0.14773404498559073 -1.4948740878642965
Ni 8.528910035531297 6.141391145172602 4.610856841065727 -0.05620277244381288 -1.6930616615147487 -1.7116723346374005
Ni 1.452741302965525 6.06244947744769 5.546724308694153 0.6047039231504167 -1.0841365011941329 -0.15357379159581938
Ni 0.7232643061889535 1.705410626683629 0.22035456136607795 -0.7253416261398477 1.875049742587203 -0.21261994702569834
Ni 2.0250217381391464 9.24555294604441 13.741779207263777 0.5203681399158134 1.2242423402105043 -0.289104866757315
Ni 9.32917885930099 2.18414611871987 8.299900817331311 0.13288078202284212 -0.06276268504951772 1.3238479051199845
Ni 4.692587594426925 2.132460788042768 2.1386893416132615 -2.3300992638008644 -0.2656396937558393 1.8966246405445017
Ni 7.5921262473626125 0.6846136818528594 1.061734638050951 -0.4600940256161044 0.8358532964388702 -1.1235869938802716
Ni 8.310532748324901 2.8370478315699974 4.633500782563132 0.5028771822199017 2.2393156680583886 -0.18667751612832367
Ni 5.331996440665915 5.578068629740814 7.760595791090676 0.32127656639385316 0.13453580112776184 0.10741734764441502
Ni 3.5280860214877037 2.771599030456223 10.501781750906733 0.2355901826686265 0.22396622527645302 -0.8230574302257826
Ni 6.534027964856862 6.618605657086011 12.52747160055996 0.37197614963124975 -0.7683417838504574 -0.7630836207753117
Ni 7.92120849271184 4.498620638517027 2.8048693042473785 -1.0637106292396132 -0.3736028866013953 0.19106253256989678
Ni 2.5645964350886765 4.103921631058865 3.0051777208411834 -0.6073174495138638 -0.628236459054718 -0.4959668282533137
Ni 0.3304389969434593 3.2081483192082647 2.4252149363722992 -0.029333458856794645 -0.6292687569739743 0.8641205188146794
Ni 7.497041661769604 2.0430028957875987 12.195562944908854 0.16141539912742525 0.2564693401104809 -0.10261144161533942
Ni 5.294251872587042 1.6140678388161158 13.185757396421584 -0.7733361517412551 1.1360599295363014 0.7139788928288606
Ni 6.420411682797935 6.2376234642325326 2.7570144173765496 0.22336715823987338 -0.04384965019509868 2.5023312939278193
Ni 8.206658203985217 3.4423792581244275 10.240657457315633 -0.05763256291180397 0.3159664670348494 0.27986200800280836
Ni 6.45711116024026 9.142611518344502 12.178436522102436 1.1776344105439782 -0.8202233032110969 -0.3511604984374791
Ni 5.023592060054088 6.394387059714627 5.5224558111269015 0.8802539340414324 0.8099090657692826 -0.12501243501835888
Ni 6.025516720845421 3.3651918496822915 1.0046400302130765 2.080298079739179 -1.1202661570371544 -0.609403385508615
Ni 3.748646801631171 4.572803411379089 0.8976983314784552 -1.6273902874588682 -0.3004506307874374 0.7073796423447882
Ni 9.10449370360972 6.757724016909972 6.937195005820976 0.8829589916774213 -1.2683102770639962 3.1161700894999687
Ni 2.414355324918605 5.367426879478148 12.061204413064383 -0.25269984576571963 0.5055483012941616 0.6537857682787321
P 0.5349427059496901 5.793982489018206 2.558494785381192 0.1822937852383312 0.0344664092079858 -0.1596541934619444
P 7.7432911430060605 1.9029794128230568 2.8046369582040747 -0.15367792127385144 0.30441424342087575 -0.5155151826988864
P 5.129986019321161 0.32491961201919395 1.2438668756185909 0.6021004240892985 -2.018001278582486 -0.4927598912802418
P 4.395026029169276 8.641266610126529 6.8902695031233625 1.2380540492826162 0.46422784527881983 1.2737047086066902
P 2.042125766146211 1.384549138930814 9.32781650900692 0.41552395231521344 0.22854741688923222 0.4266568290035813
P 3.3152794406207606 5.402624039130438 6.488176479411629 -0.49155610078012757 0.4426622032929022 0.662817025243065
P 8.895615543796227 1.33270517842495 10.474535678141962 -0.8222755577544354 -0.30408359955433434 -0.11700087756779205
P 8.463367922753545 7.556005302236946 13.152420871349005 -0.2873362048926664 -0.4433787697439525 -0.010424794877749789
