# total energy = -381161.72480423783 ev
CRYSTAL
PRIMVEC
9.36383410123384 0.00000000000000 0.00000000000000
0.00000000000000 9.36383410123384 0.00000000000000
0.00000000000000 0.00000000000000 13.70491771802022
PRIMCOORD
 96 1
Ni 8.39940600179973 0.9290983465092979 12.07238771659212 -0.5076825740283449 0.37157197221429555 -0.5747881094275907
Ni 1.455392641782071 8.610944377825122 6.605989249429236 0.34133734169947016 1.60420022249565 1.9733928958444915
Ni 2.4007278766109668 4.884672146818395 0.8549498898498018 1.7208917963531394 -1.6285264579458403 2.2973058714199275
Ni 4.623711454443038 8.904097931816844 4.450672482296553 2.165228302024671 1.615897199217604 2.742034470323555
Ni 6.579563573231579 7.985917815861555 11.910628418995683 1.141755180148866 -0.4329151512084673 -0.3256361289141295
Ni 6.963705503118071 0.36940419140539854 0.2067609478704572 0.5875541508440074 0.9688544060896603 -1.2484256223249275
Ni 6.131064011614641 6.235274121250628 13.34630082617506 -0.5431825667071677 -0.35093912645529235 -0.6721732696469844
Ni -0.1095812048725052 3.385765767999893 12.120081469168266 3.947011791656861 -1.111461414261331 0.6687264487489644
Ni 1.2665428357672806 7.315982305581499 9.004692665109005 -0.19122245518652872 0.41056635119962187 0.05106545121724754
Ni 6.514494290109962 3.382329240887268 7.297210627372561 -0.4875462082897861 0.2844997638851358 0.26186197188096194
Ni 9.113632447346047 0.10880213387585552 3.968574547565688 -1.217199317320794 0.9045002081833069 1.0095732239652613
Ni 1.2398559085983918 0.190968841670341 11.548791141921928 0.741656047029155 0.5590483300948307 -1.3483314920836456
Ni 1.2166710553807885 4.9489829593783705 8.474778311575356 0.4709592504653825 -0.4356389778975336 0.3000983896543412
Ni 6.52991652486335 8.9510481959659 9.003843365356648 -0.8840954192747097 -0.7231878130216384 0.22944601744410162
Ni 0.4840175207202058 5.229804343867836 10.795473498181938 -0.8061825088473149 0.5222453023338683 -0.16683477037078362
Ni 5.059476201691665 6.782037757853645 4.407720575305784 0.20511721089074997 -2.085279335003854 0.484652688792075
Ni 4.74184558537732 1.0627670782061014 0.8336069027985565 -0.5613790351105363 0.2779077124899149 -1.3033999216782777
Ni 1.0671212610599725 2.477024396811706 4.189264198651487 -0.6908741884905972 -0.8603754499499504 0.13083701211993598
Ni 5.389719902531095 1.2844090312192948 7.275242136203813 -0.2372732267980043 -0.5542419098451228 -0.5364794436553793
Ni 2.587133721927132 5.169416977793393 12.088559994456464 0.5248485442846702 -0.06449920812465021 -0.3239942224353324
Ni 9.051156946268563 5.540468267615987 2.1925539261756724 -0.36453871951659794 -0.026113409257600192 -0.2213845805922058
Ni 4.177412393838272 3.295891688362351 11.523725094434768 1.2219409457708375 -1.452918312257801 2.747844906357745
Ni 5.114882008027916 2.9133135187696158 2.3530107144495833 1.306407855266666 -1.390421222164844 0.974633988885915
Ni 3.82230771347835 7.591091751273414 6.713217322793831 0.58979075348401 -0.12200167321649312 -0.77656879974594
P 3.1110121480035637 6.912316781608293 10.607729560973691 -0.27783752137361184 -3.7989481312459934 -1.0209192451056996
Ni 7.709403795055487 2.0427110438477034 3.2735018246593577 -0.12970932627339596 0.6695664281517566 -0.4832444955906387
P 5.740020936000615 2.571308842307686 12.91585660945884 0.8083273231044594 -2.3131577508505194 -0.020704322426886922
Ni 3.51465894430858 0.9383498145945126 12.601657838340076 -0.8097745970739473 0.18589512943634437 -0.02657260828220585
P 0.7942301076650087 2.0650625158309097 6.350255449245343 -0.3158345694426754 -0.5173704907400702 0.7809802985500743
P 3.8430111506609514 6.5660983798039085 1.0822607080237128 1.7294455994604212 -0.14015803241054572 0.4809274174216878
P 8.571129355255959 7.90625031538685 8.089108203964669 0.22825868200421978 -0.16305319184116435 2.8847134693837417
Ni 8.59751663973383 8.481395733129832 6.14754623238751 -1.1623036937241789 0.6901069713072696 -1.7890280870097448
Ni 1.9250357407840446 3.990023345942199 5.871213869962873 -0.4042283247967361 -0.43310644128366704 1.3246254067159573
Ni 2.8222408683679965 2.5427491483199276 1.2209475184116767 -0.3183262255162776 0.046621556513280996 0.24661455880358815
Ni 3.6863822977648093 3.2726506521401815 4.3699637234705575 -1.0532526671310831 1.1478157845206491 0.10473697259877446
Ni 7.672416650382817 6.3527808753005885 4.499872875778481 -0.4171460612996687 0.6646142263528038 -0.7043544823652192
Ni 0.9607387419140964 0.629475319541792 8.754564056013988 0.6096131875265759 -0.19861154856174829 0.12650624595506602
Ni 5.783000934493669 0.5977038304596727 2.664427490458919 2.089004349263925 -1.3846184994401378 1.103209458665184
Ni 8.13682536612605 1.2900460593440917 7.909162467790193 -0.23984278729739342 -0.41777058225754504 0.9106335747745543
Ni 3.575757961774194 1.1401591669958793 3.2751330045585934 -1.761439635868515 0.9513979011761099 -0.7844991103366102
Ni 4.372226962171161 4.935152576421019 2.902057253804801 -2.9836356350729516 0.7203022639437272 -0.10379517751079544
Ni 2.677962912642298 6.445819930862021 3.5007021495909556 -0.7732109390173005 -1.6062848729388206 -1.0858457705757556
Ni 5.404346211386464 1.9037985650580656 4.7402846342337925 1.120345604124838 -1.1909954052319165 0.7339465942000392
Ni 6.554740049047465 7.369159519403295 7.244844321583336 0.12970546961865403 -0.3053367552351451 -0.8319786439748125
Ni 5.861853781402164 8.098986112550794 0.8596299341301564 -1.952301108171199 -1.4846881484702303 1.258839875679716
Ni -0.46300788616271943 3.6434303907740397 7.540678741276268 2.16775801042506 -0.7404990506065764 -2.629298024459072
Ni 3.014714478177299 1.4493342411230283 5.748075706088573 -0.37884330906472824 -0.9349343563034479 0.423902920407528
Ni 1.2408578388464868 2.9864450630464656 10.00744037592057 0.1388395707094383 0.24493280022579103 1.0801613185964687
Ni 7.307133482362341 3.267341358208687 11.604035890311755 -4.04622886287867 -0.19773274550122075 -1.326848125398889
Ni 7.747261776298933 1.6285767533570186 5.71026360763219 0.3739479286456398 -1.116681782120006 -0.44878708524371747
Ni 3.526213915581004 9.387992786310415 8.182041448200833 -0.295463204875175 -0.14408822070288732 0.018487260170910097
Ni 4.884793876661621 6.79348972695103 8.731142297793799 -0.8239179784538649 0.14563808168851047 1.4365879505288937
Ni 8.538590031778103 8.945841904209443 10.178491406088824 0.7202349010409016 -1.0815404583321826 -0.5334861653550103
Ni 8.856464107778901 6.028679849627051 6.530256432040976 0.5800426729583108 0.38334299670729466 1.5060666141460062
Ni 4.837984070023981 3.958654501726137 0.3779777179021826 -0.8761630518015104 1.7605459204096516 -0.48400091414068896
Ni 7.979559772511493 8.671640750424679 1.9676702137990159 0.32637712084521214 -0.08287976751436694 0.6638441809559986
P 4.626754700523701 2.823327073122941 8.646871536478313 -0.37817173691900036 -1.3025326885819761 -1.8519908038852104
Ni 1.7705699335636966 6.383269519111783 6.732951603147668 0.4451469173879688 -0.299222157696975 -0.6836640438954033
P 0.5081256479795115 7.617151301557981 4.437871184706172 -1.5009177229552149 -3.24149517066274 0.783434930738154
Ni 7.667406999142341 4.669004319957395 0.2504666435058218 0.28388886977401434 0.5708772044089587 -1.4412071944684597
P 8.770457291622323 1.8300209162287056 10.030451061824017 -0.33408014591642465 -0.9150407027033143 0.42668793935183286
P 1.9436416791295121 4.029398268308928 3.052948885551337 0.0731990498914933 0.7964344283216155 -1.2928586558273218
P 2.2871726605488205 2.6182965617931186 12.215111275858156 -0.8441052520350173 1.6187848051780442 -1.3534173912469853
Ni 6.255359545383003 1.8383172732362971 9.510637476127942 0.7505494928640429 0.5657424542855547 0.8232759739944918
Ni 1.9580807113029952 6.9830605481910855 0.30562243547175394 -1.743262964959488 1.7846546405323975 -0.2060623484128387
Ni 1.2126633343884081 8.131768895715103 2.4833309390742486 -0.5915676428787746 0.07155122987542516 -1.1373601364049637
Ni 0.3627090500279404 5.067529099012803 4.449904647900817 1.16075023319413 0.7673475382579882 -1.0262751101009744
Ni 3.1799767861084294 1.4083487392920717 10.054434650089869 0.11943159849647172 1.2725682810094021 0.2267676992809901
Ni 3.913820464082404 8.365555741548665 2.424482050941506 -0.5251835590265859 -1.3444444983244137 -1.3674378738957935
Ni 2.410026163866653 8.277648067070935 4.6445693948881965 1.8191009951357253 2.075263602639065 0.0759951245793917
Ni 3.579887412609801 4.992683973096687 7.358087721970139 0.7289314003736349 -0.47694220752169475 1.1162488083476454
Ni 8.273359431055724 3.8467754119668793 9.470097692799877 -0.284046221287485 0.7182800913073758 2.703808079852505
Ni 1.1514144955772843 1.393516426086626 13.432861044926614 -2.4765495569780254 2.1802381451699415 0.2785705428848944
Ni 2.308868664145422 2.5106311973763176 8.036919811023235 0.9283448760113883 0.26555587579278134 -1.2202820700111758
Ni 7.348708905741241 6.525187788645706 9.886714335708971 0.9093989310365047 1.1473732976665918 0.27627557620313065
Ni 5.095133681922937 5.86343626936411 11.285588747664384 -0.38807048408995104 0.5833267430262212 -0.46046503580227793
Ni 1.208018872677612 7.30829459779004 11.578928641954581 0.04736563376815714 0.2401963139820702 0.6274730985261323
Ni 6.087559638412304 5.585686222457588 1.8691036869716913 1.7382012341658644 1.57229694602915 0.139076883531225
Ni 3.83012651494713 7.7296109490310885 12.732101665574785 0.8190238835863572 -1.42483980885403 2.6561115451074904
Ni 7.914144027528384 2.357092409731309 0.1398966177529536 -0.27719577402455486 0.32827510919887337 0.8355221383516965
Ni 8.023213967059338 3.8460356690734256 5.491821276729036 1.155803430711816 0.5446336973313975 -1.4027866857087326
Ni 9.300150658671345 8.655122947082251 -0.11302803220263431 0.009526194322880368 -0.8317798977004449 0.11334939685813383
Ni 0.5430780315034806 5.033922298448191 13.473934566798057 -1.2659888280196714 1.763481348888892 -1.1798003078470454
Ni 0.5381123902832484 1.175910285568096 2.235285783065225 0.717130551083965 -0.9992772413558921 -1.4751133602976014
Ni 3.7562177724404497 8.725791802992289 10.893463212829051 0.7960950427043257 2.537562863436604 -3.2230125384775206
Ni 2.331173316958157 0.09841670548181526 0.8592338439479655 1.4719323914664584 -1.6845291985637052 1.3756327510017599
Ni 3.9717076864536565 4.33101672832194 9.743840018714018 -3.2178747030303225 3.2467422779942923 -1.4149060946800858
Ni 5.547266411168483 0.6279050045641701 11.631761266681707 1.2885037212927357 1.5572248821873762 0.11459509633977683
P 7.325711329205524 3.86691701910382 2.103992656078157 0.6497028564586101 -0.9245643259230335 1.6080057122846696
Ni 0.33832468966285145 3.1826080234889407 1.3756034114641402 0.34373772361084676 1.9879291417874536 0.5013810572903494
P 6.867670020646448 5.396396316240364 6.460511786556051 -1.706398487832971 -0.7493318184068579 -0.6659763968076531
Ni 6.138873449249326 4.139460774253883 4.32513530412728 -0.3773978348674532 0.7154104830690646 -0.7096260151768037
P 8.54121190532452 6.730705219348434 12.139679037544324 -0.7428721788244431 -0.10671929313612588 0.014526989971581434
P 3.3490782660182417 5.534213226440963 5.335310408142482 1.2349121612195246 0.5718781348696474 -0.5618492898787356
P 6.9740899951287005 9.133783418317082 4.810248393436525 -1.2070935963453597 0.2933299605822561 -0.7322560938714937
Ni 6.138274163867288 4.729279320022706 9.40527374213153 -0.10566488372968254 -1.1153358096150727 -0.47527099046685894
