# total energy = -340888.3030680465 ev
CRYSTAL
PRIMVEC
9.06469744531136 0.00000000000000 0.00000000000000
0.00000000000000 9.06469744531136 0.00000000000000
0.00000000000000 0.00000000000000 13.26710098487307
PRIMCOORD
 96 1
Ni 6.57767092722634 1.9682540545292186 11.570597027124277 -0.4905677687249293 0.3207075812642606 -0.5051847473071558
Ni 4.753971605754025 0.4440650332278647 5.912643011704522 -0.07523382093333494 -0.18557194176897074 -0.011902922085173049
Ni 2.8359812995662192 1.8093045816407265 4.730769605708093 0.1989707316733799 -1.3202871843519197 0.25404041895401414
Ni 3.552745070324066 4.369184256187808 4.776276200734886 -0.5323708208036445 0.6743707915189353 0.23525233971323353
Ni 5.027906768040321 4.923499580773162 2.6730551438287855 -0.8862525748270285 -0.10750425093126648 1.1076759790769697
Ni 7.416472722135756 6.289476995572857 2.7075363471319243 -0.7619335663312685 -1.1331278434911711 -0.11855588075973776
Ni 5.041358779318709 4.717540585991329 11.395657427621854 -0.009720312611557454 -0.42726772311470285 0.36277211453447844
Ni 5.510701628349074 7.785768503457523 12.465582724395267 -0.24764737094347672 0.8350765661738456 0.46448007049894197
Ni 1.9256318462873203 6.8666444228757415 -0.01667451128476654 -2.269636944749749 -1.3321088595771962 0.37075718962248405
Ni 2.816718817108959 1.993363266955858 0.03951211048609343 -0.9047915141714804 -0.546646099775736 1.239313889831646
Ni 0.8072076978004602 0.05037071177341163 4.500041324660632 -1.044877041472878 0.6969322217592191 0.6272632965081714
Ni 8.566855368576176 2.448918710895639 1.282905806337077 -0.5091455317271167 3.0853237935430735e-05 1.302660215298776
Ni 7.0841609071319285 0.6913663009466707 4.962931015450375 -0.01979955122443042 -0.012266990292811131 -0.7878988800467785
Ni 0.7702273573615727 7.452767771434047 2.5243315563332507 -0.21731143896409671 -0.6798274437581324 -0.30197195252797027
Ni 7.915429938313353 3.86197816516969 3.4305937374521593 -1.0032123147442398 -0.7136559622718033 0.2726847735280788
Ni 7.2096163222888565 4.072659867415162 12.732450141941836 1.2317859568857172 -0.3532078678848111 0.4548955121343004
Ni 8.095518286067882 9.170573295228383 7.073169054789494 0.6017620669132734 -0.5459040794033888 0.16294803372186775
Ni 6.865765147205927 0.6382680216573112 0.47832143202985505 -1.6002368669725278 0.3225022112708381 0.5463612215454655
Ni 1.6788817121842323 6.40850554011228 9.1687213775032 1.4896660613007957 0.35579002678969046 -1.0018144059554488
Ni 0.27979639577188087 4.931966008356729 1.3255688057182968 -1.209059461822479 1.6193645889409143 0.955001302256652
Ni 6.485238205524375 1.8813054748915559 7.0437822115527 0.3405066182680587 1.605644925361977 -0.13743009195642136
Ni 3.186739774240881 4.6206389683592795 0.554012563684614 0.8614853951846776 -0.5464386117506203 -1.5308389359946797
Ni 5.944057627800466 5.73801705073999 4.970519073833891 -0.1979482039461365 -0.40658525506468685 -0.7646861893757411
Ni 5.751777261737694 2.806675132138303 9.32913389258868 0.5765138338694458 -0.018743856266406428 0.218099739193347
P 0.17841047222378176 5.728916094322537 12.409051644114584 0.03493126465954629 -0.8863759877787701 0.27981007171895034
P 3.924887166700693 6.2437184019520355 12.510040533906622 -0.38081765918227967 -0.20422298121125473 -1.02184304247155
P 2.164858281360043 8.730527548928306 1.2074838962018384 -0.2878689374676849 0.3741556737810718 0.6463593939076738
P 6.742013895202865 7.768173925363621 5.987761254469259 -2.0361519813495836 0.5494568297516538 -0.27705873422605837
P 4.89136522768564 1.105793398813474 12.651215947688199 -0.24002713539405757 -1.1813185442637848 -0.7217677927456602
P 4.216697912707327 6.151312874342951 7.8715703988453765 -0.4012291329590961 0.21521727543922936 -0.3074689710867995
P 4.4538213379305995 0.8909374033107945 3.566091024640218 0.42837946812164285 0.9697028701328848 1.194591350113291
P 0.17250210231053859 5.606968717147238 3.7172158505371304 1.3202681581885263 -0.3352397134421646 -1.6128676683626608
Ni 1.643103350650678 1.4648823306072993 2.538738986741518 -0.7428796350236109 -0.853522174473543 -0.3501328285039131
Ni 2.004721333082421 6.4905410536361385 4.8664916973973 -0.8030033397883848 0.3166951176707578 -0.7123621831610442
Ni 6.0763659543633635 5.52323810516714 9.20858882413627 -0.7512295496502029 0.7218762932990664 -1.0607152940567153
Ni 8.757014595394242 2.417572986501661 10.50051219167263 0.20963592469670994 0.4679698288197553 0.045121832039302937
Ni 2.3185955531130413 5.26061568551927 6.914561321001538 0.1907635132722392 -0.6721215904734424 0.5280737360901874
Ni 0.7015223881679007 8.634559595151833 9.068780366756835 -0.03156106263573274 1.2390467522131885 -0.16399652959104014
Ni 1.061448898022456 0.5145040790775713 11.425176615444002 0.42023884129237943 1.5610347428517697 0.8720806542020206
Ni 3.8240786643914304 7.020082559607049 1.3265287571969904 0.3781416550120133 0.6098145049041047 1.3490693986909346
Ni 5.881329920222001 7.863670514863493 8.195526375576687 -0.7026850650825963 -0.7232641747855286 -1.4398817907888168
Ni 5.233485045521822 2.783759576537385 4.728832479825215 0.8608796432798788 0.041035320674755134 1.025232013548441
Ni 0.6952867826703247 7.348070513842825 6.973082102411336 -0.07455196437496193 0.1749766827516277 -0.3386320269531652
Ni 4.963012597729018 4.347247687930599 7.109123271457012 0.9318444045242146 -0.26274437448591526 -0.9339599082053205
Ni 8.009584952564438 7.034314134881355 9.289053425561375 0.7161663873984827 0.2630721901389792 -0.7236606388929988
Ni 4.637345206085741 0.5455597331474872 10.4031192674292 -0.1525386654630857 -1.7496886659801738 0.5163636467421108
Ni 8.436133364097993 7.233800935557548 4.837967813374591 -0.09710131043038761 0.41911964008627167 0.12805456427879236
Ni 7.300834374508811 5.913246720566477 6.929274231719834 0.09499300583813317 0.20070339809377047 1.6410886108815674
Ni 2.3986458978565985 5.239177675631544 2.5829321070821663 -0.9153551486199397 0.439392788513011 1.3872325400242171
Ni 2.3243878948966596 5.04150381448074 11.217825283106672 0.4450271039806529 0.8023662204250183 1.254549218724162
Ni 1.2151136521944386 3.4313687690992634 4.043520490423582 -0.1425833540225867 0.7887823110929965 -1.5526295495072098
Ni 3.724919937050272 2.7983356103215136 2.517750585856088 0.13986724064300426 0.25681155394124805 0.03809372154792794
Ni 1.4103037861954595 3.2223277771242698 8.366751261991588 -0.25010251735218864 1.0238359045318626 0.12398502219510905
Ni 3.7012157527558087 2.3258110524240903 7.1902251211252945 -0.9962898765927939 2.2155566179655777 -1.2802090853841115
Ni 4.12991249762695 7.173756378476659 5.866672304159231 0.015074892055251457 -0.25368920626218244 0.4520277036682021
Ni 0.6414760181474872 7.402096111699421 11.122129270259006 -0.6331074139937742 -1.5662633382405606 0.35265456648450233
P 0.1600046036922686 5.487441614238332 7.931246022732847 1.0703214496879114 0.23623244423831574 -0.17940026574062007
P 8.871347626562908 1.5285346373437116 8.489869798100289 -0.36748623218069615 0.3198927986724491 -0.1453920271159754
P 1.9164130488007163 3.0375257866037284 10.820767052362859 -1.298385499182822 -0.6011665994211194 -0.6022408063219048
P 3.896668762988011 6.4660935641362665 3.6243996921255457 0.13737558456940213 0.09438236883732777 1.6579843581956413
P 7.065206624393985 4.252621309402913 10.482310278837724 0.7487191245235234 -1.9447639192538897 1.0237014358365275
P 6.276759224802253 7.733030092663952 10.43002419645574 -0.9752073448908819 0.7488116842373297 -1.7200248203671538
P 2.2875580284383794 8.600331296912486 6.080153185031902 1.14974565455351 -1.4850182781161392 -1.3370420352127554
P 6.4374763137279984 3.86165183605512 1.6597542937216145 2.3298005016135233 -0.2136684428948707 -0.6624637556687042
Ni 5.056569341936723 2.9963629946797683 0.22818472689334038 0.22636609296719723 0.8479534221365138 0.5042920602895573
Ni 1.6903757487751996 1.1226084129114582 7.257157035463136 -1.2352008961045373 -0.19571725773308873 -0.4504634445048758
Ni 6.775779893863238 0.5864768717657572 9.340423973483041 2.0761416343686436 0.703632259487214 0.20145570287876272
Ni 2.4770917911201864 1.3729753613676972 9.53981559483415 0.36069492029047556 -0.24524390370830668 0.03458467995340495
Ni 6.172769013625931 1.9826034708726736 2.694136911099773 1.3012713053710492 -0.7109221082804079 -0.5723460756450015
Ni 3.9175900851110015 6.419845476843589 9.930359027393477 0.7269503653878641 0.8029012669928818 1.2584534388745745
Ni 8.00281362343711 7.003349127787708 0.40190331162541504 -0.5580296590223293 -0.7922648703249582 0.4763343987343667
Ni 8.054056359122233 3.8136633268180695 8.500417480259003 -1.806660198269211 -1.6093820238069056 -1.6735909543846468
Ni 3.230857657591226 8.601237766675181 12.568866795626448 0.6225268102644503 1.3232041008883988 -1.3004027867231667
Ni 9.307540876371533 4.945118884613427 10.067925785049768 -0.8599499323767578 -0.7588814097685059 2.29254393125491
Ni 8.902521121701975 2.240240306825723 5.701324061215877 -0.9238672998560089 0.04113533658772916 0.17125501092566636
Ni 3.867453242536365 2.5795953918856878 11.321613351525912 1.0053730698409846 0.738796980313805 -0.4975585982204656
Ni 0.7594195183809653 3.553850963434553 12.820530902313104 0.488003864652495 -0.5844544288727612 -2.6174143856476086
Ni 3.4552451826486386 8.384518975810165 8.279838941144433 -0.5789242430831514 -0.21967531121058295 -0.6091447325305896
Ni 5.690490841081915 8.061244664340402 3.8292038444297054 -1.144702178592332 -0.37942026461412076 -0.11598554892940026
Ni 2.7566108071446824 8.432888202347547 3.458096030052313 1.9164653294195124 0.1627477447856036 -0.596113096157612
Ni 3.8643984394360844 3.988294726601178 9.246426684970666 -2.013382548863552 0.8067682061474558 -0.18721153425492273
Ni 7.1461634389002375 6.206752565029351 11.557979874497333 0.7756380604015545 -1.1183481140788352 0.044624837798226374
Ni 0.003075651904822662 8.933631163957651 0.5072160621855071 2.7558716333169633 0.6517407128242453 0.6538518456299771
Ni 4.647388891056397 0.371284575981118 1.4545250070987512 -1.0830221850840314 -0.4731313184160368 0.1335022176569249
Ni 5.73866970896913 5.6787883164455275 0.5098239756927793 0.32037025252949985 -0.018274372829155623 -0.30814748521106283
Ni 7.674889122084723 8.703723238045429 11.728900187071968 1.0004442650807996 -0.022055180027826533 -0.727340144627115
Ni 0.0337125169443736 4.852196669239607 5.704680718747135 0.0011875925501979548 -0.8387753551816716 0.9376144742387722
Ni 7.718354347205928 8.62748006630519 2.569638728012251 -0.24379200175312854 0.23826798661110576 0.02687959799966339
P 8.384074805626444 1.3928905020540967 3.315130338489414 0.8919051451271155 1.6337434833704054 0.776518663234295
P 1.698760594080124 3.359521975708092 1.5582605002717547 0.6029316617413423 -0.797589367861665 0.16910376891061843
P 4.825646169890284 1.0806479275963268 8.218690303892583 1.404131372662085 -2.0000074131082264 1.5452790226794095
P 8.473325818461351 1.559164250625161 12.58302313391045 0.3678536428224439 0.8897587882080742 -0.9282715995712917
P 6.009767620898194 7.647423088275078 1.494047995221997 0.9939239474637787 0.049293704028805424 0.2859220981539592
P 1.829754539487116 3.1280911805945424 6.081055122445783 0.2327617120808959 1.3386119508030365 1.0212311199191637
P 6.925002946198017 3.9381760134217956 6.0938843889972 0.07586785497290804 -1.054644919492919 -1.0452981881706964
P 2.572388957272266 8.142509678565968 10.335403256746629 -0.3621059417053893 1.3720830859772886 0.3095942449599184
