# total energy = -340861.80640206276 ev
CRYSTAL
PRIMVEC
9.28986293882249 0.00000000000000 0.00000000000000

0.00000000000000 9.28986293882249 0.00000000000000

0.00000000000000 0.00000000000000 13.59665344470636

PRIMCOORD
 96 1
Ni 4.050501061628659 8.053428734535881 1.6811586480672678 -1.3535778280842494 1.4058879503418755 1.6502977881846612
Ni 4.8226930587587855 5.255981561659896 4.812766840081015 -0.7633530723866144 -0.5000469118599582 0.9325982519711036
Ni 3.2522974479353572 3.2647179948442746 4.95807423310706 1.4147654553371636 -0.7622618962049647 -0.8350698813056264
Ni 5.686919729207264 3.7615398712009442 10.888498923811584 1.32999335589609 -0.36873013189012627 0.8965590989593591
Ni 1.3850256833585624 8.559363966552722 12.21078737497868 -0.8740794297996042 1.0931849845496464 -1.7141593627253124
Ni 7.127656721326315 4.331231433386741 4.688955261185519 1.8157248795746406 -0.930805678847055 -0.2221384280390948
Ni 3.4265102498672317 1.6929289045621052 3.0277846824744405 1.0174593115815573 0.5509449842614059 -1.4289438037200746
Ni 0.14660611588159153 3.264021255114904 4.117338839374047 0.7791216480747807 3.045852732031645 1.3059769383768347
Ni 0.4646185660651517 1.6811958075195008 6.042448362365371 1.7614748599818246 1.8731386416074194 -0.06723589032952293
Ni 6.0699965222783865 8.505361992594954 6.897759551236821 1.1209228167845469 -0.3418950139751531 0.046808732823422614
Ni 3.167127983417071 6.247823080939931 3.2014679622119937 -1.5620436437322582 0.10488609658212905 -0.2505465468681427
Ni 8.870732306677002 3.803641530581057 13.498445074637132 0.29950240794155514 0.10667609860301626 0.11921588294123985
Ni 3.3698513750747985 3.934832976690049 10.826934072338075 -0.496789581264925 1.8540651699157358 0.4696472165221783
Ni 2.43648954374662 4.5328772009297085 6.524776194378517 1.623162879641082 0.4110337777543438 0.20910576322485278
Ni 5.410137549248951 6.871488747494319 3.293571380516978 0.8796674654103431 1.22767681981335 -0.4199187389487994
Ni 5.7055551945021685 7.853575910563162 11.267193688478116 0.41882216345051093 1.3606306211659727 1.2797540001245638
Ni 7.05542803604821 4.985618677074852 2.3831536529701327 -0.3635652998597351 0.6519350882232384 -0.6310870411296357
Ni 0.4713769414400484 3.8074503744349504 7.405308432466884 -1.4352895434324442 0.5970060402855266 0.3379735674335599
Ni 3.8564544020673637 7.8190176199863695 13.006015445534418 -0.9876059756655508 0.9324355011409942 -2.5015957013133754
Ni 4.612630675285019 8.75554729461742 9.190290590073458 0.7979143553012517 -2.4141815362637646 1.460840395318355
Ni 2.8437850098106714 0.19498586471648804 8.426716798902497 -0.5258175930661589 -0.7589528864363897 -1.2460072426914217
Ni 6.039980974737093 5.937012132599147 10.11616850772189 0.7444140693902663 -0.8093429088531674 -0.7237912509335922
Ni 7.413375749546692 4.0519688599918675 9.003051542161268 -0.36058282019264354 -0.5177186181081084 0.32846639927407306
Ni 3.036224523062886 9.046245689437034 4.005356972096961 0.059851682050309836 -2.1140443229516883 0.9297276152915279
P 1.1805929568981122 8.257796431954924 7.725373942386323 -0.8862026954256995 0.9708017596240185 -1.473756589159391
P 9.08519808524039 4.129910811050814 2.227104391289802 -0.35514056613114964 -0.6693208877998538 -1.281524204651109
P 7.5784101667769885 7.390271860120756 2.8598388221616804 -0.11954935502125863 -1.7235873409074314 -0.36156163916614503
P 4.384378739943146 6.025507368092297 7.42615209821074 -0.29872233524242103 -1.0935433963303296 -0.5663155531802054
P 8.349468800614003 2.205450649487264 9.514951795247827 1.5350971970504013 -1.392902336715485 -0.17191604154843293
P 1.121695225108634 1.6413237152733748 12.596796048830997 -0.979598531980042 -1.6882346724397506 -0.07550455809621834
P 3.843783028855873 2.5206278334654373 0.9918991164309953 0.3576869867020872 0.41817938766018947 -0.3275078920155456
P 1.6618543126321674 5.484289236180119 4.636730438030802 0.9755030217544296 -1.7467810054150756 -0.2930016307085599
Ni 1.1121731154738999 1.0976159000615793 9.250020693592958 -3.116676596822742 0.7410598082060528 1.8974152547665968
Ni 3.7581583610477316 6.394640076712945 10.394016234972986 0.23130415369876295 1.247585385811819 -0.7799523715061922
Ni 5.8547411053550436 2.315340439603626 5.545409103213138 0.7005963008743676 1.5793494820005576 2.6475166043496277
Ni 3.180105922109485 7.888830940869324 6.7258840788504095 0.7419758922624189 -1.3648953099795977 0.1440457975007261
Ni 8.015656151340925 4.884210531930698 11.347753522946885 -0.15070855423288237 0.3963576637994077 0.9539839167357314
Ni 7.8649652826726095 1.8068504952457596 4.316461480110386 -2.1164598743717162 -1.2547626202865487 0.2562191717728877
Ni 6.585007950503163 4.159406126260844 0.09035227911849918 -0.1577037546037929 -1.7298178951981757 0.866286930338379
Ni 8.881777953853293 5.639476398568641 3.805254250807974 1.0253641682509307 1.7233597982776578 0.6511349609194463
Ni 6.908007199176407 6.591139260121626 5.195145035450156 0.4636030672106274 1.4650863150789026 0.08989270849709034
Ni 3.901194382556027 2.0658518773105308 9.574083631586374 -0.09669096236584639 -0.849619239874711 -0.9254343872328126
Ni 0.41877866579038814 4.80341659291286 9.75672791322994 0.5861683262400744 1.1697529509133724 -0.7639714226969035
Ni 8.243025549692263 9.061137339919453 8.03743066136322 1.6562722606005411 -0.9065645469115031 0.19965464511428196
Ni 4.940915856038422 4.106565385185363 8.624493338481692 -1.1394080200729282 1.4028231953736228 0.11168435045088507
Ni 6.4360449963636865 4.727453382685326 6.7656001013971565 -1.7564331837928588 0.07251076557521705 2.1457105437067177
Ni 5.542192952622362 0.6748072916765104 4.11819536474802 -0.31009252475257565 -1.2286911200104773 -1.0108487482435753
Ni 8.782339259677492 0.15412440205465536 10.837308062415252 -0.06727985619358091 0.9625726868460068 0.06607529436251847
Ni 6.441135841319624 8.997381009750496 2.0659977281605455 0.13645204431386823 0.5833645382426921 -1.0377874816159482
Ni 0.562854222974905 7.708338191510054 2.4813214938795607 -0.904968406068977 -0.6601083680626503 2.189717288304971
Ni 1.068427150332472 6.3205998681384745 6.7765723586552875 -3.102863087978418 -0.8090821989926131 1.0451925158307676
Ni 8.683272160024023 8.430875870593688 4.3988848611086455 -0.4342112443120716 0.06866336680466885 -0.25993878671632004
Ni 1.073815270906273 3.2563664079548826 11.274005016072445 -1.6777229742751494 -0.8867061174246793 -3.4849472725779465
Ni 8.10406777806655 6.121833958143574 8.610040169535624 0.6016875049215961 -0.1222443853549185 -3.04532308478042
Ni 2.535017831342709 6.032103170863674 12.182928004653213 -4.069270832299798 0.9612619384543832 -1.090684586725296
Ni 8.15599811256232 2.419572703117497 11.538813491534945 -1.1373413673518864 0.044632036887077974 1.4254509600754677
P 3.045105632146599 8.714625447845709 10.96953532825524 1.293308855990863 -1.1894195761043644 -1.2573594344794474
P 2.2190231394154067 3.713167554256494 9.119723861296478 -0.6688683736434674 0.11234846639744522 -0.6535363712720873
P 2.505039443253648 1.3244929356708275 5.38661375801278 -0.42456420814061074 0.6357152839302664 0.3113821900982766
P 7.409659804323381 8.84712676464592 12.520410149834312 0.26949634849776816 -0.24272730793404004 0.6077887327233273
P 1.894295976213324 0.06815600931335723 2.189659740260804 0.49089044217167077 -0.7151459165537684 -0.8885506268325859
P 6.129256558727137 5.626619228095986 12.459089621759235 -0.033550839372251895 1.912485775946474 -2.9276933153793774
P 8.406991632670856 5.280674017668797 6.347121498183551 0.581031005013509 0.2123342974644795 0.10290069072098407
P 5.550200814578597 1.4960581266310926 10.822080118890124 -0.4585711612136748 0.7124313458360828 2.995153405904564
Ni 8.282386699470184 7.1006603792789615 0.47404777706930307 -0.2887410556599931 0.07391664478380819 -0.10138451118677377
Ni 2.132906108865176 3.6518637479349225 12.966041164794651 2.1234684444790655 0.6043295705301335 3.1877799405274714
Ni 2.08947599906773 3.5083632332737134 2.966422350015602 -0.30518994524463566 2.0971886848469303 -1.03122448368645
Ni 1.1397825884830999 5.269461152957457 1.0340788106607977 0.8002885119603831 0.3040946552979279 0.20001819910128776
Ni 4.42172398943742 0.7522466611440043 6.381711374294741 -1.821799625013811 0.6039140802592695 0.9180206112672448
Ni 7.039821066110304 1.5961935605362636 13.653623876148904 1.2131117775149818 -0.33439896270842406 -0.19044366803897525
Ni 1.4539750469770967 7.505317524234462 5.086494513065768 0.10703888125907372 1.9910746293949713 -2.6448688823141353
Ni 1.1089495329926777 2.259694159884545 1.0423235641250186 -0.5184866066223844 0.1461816128968063 1.614983172043767
Ni 1.4704552640424804 7.585470462701279 0.557763378018969 1.5318974591661811 -0.8498660657781943 -0.6372569173857735
Ni 2.7019009313216023 0.5822811846023744 0.32831397932888384 -0.09403501280023806 0.5598394585375585 -0.46946004021203663
Ni 0.7548357459783461 1.190375182698478 3.5570207490140517 0.6680733885459978 -1.3472637129407636 -0.07186053358572786
Ni 5.673848891884267 7.003460542100206 0.46212702479292167 1.7883714272623525 -0.8181152557291588 0.30809297782404355
Ni 6.418384966689902 0.707667395286249 9.162119080349232 1.9547413421815754 0.7322288401779841 -0.7118754733326127
Ni 9.195310832070152 0.14324504342710678 0.6527940321736165 -0.6015041852661963 0.3410046409503998 -0.5102400503428761
Ni 4.4605091677057285 4.51733526003321 2.1490871923400836 -0.12234722948136995 -0.4388901378449796 -0.41097464238163417
Ni 6.113343023308309 2.7092956623159914 1.98002654846033 0.11833733699102846 -1.6120354022693526 -0.4366987866206157
Ni 7.828075236468191 2.2050418955126996 7.489879629804217 -1.033078506176053 -0.35208763823743877 -1.1953804216734896
Ni 2.3736529100204327 5.951783014861808 8.496005242522658 1.6093367723912668 -0.9838596212492411 1.0236099045639855
Ni 4.379919605675172 2.5684241789002744 12.422242308924883 0.050972891503441246 -0.5976472734139514 0.8917557640334447
Ni 1.2748757770765684 7.680338544252407 9.635731162841104 6.504890998053314e-05 0.11586162175702627 2.824524201488355
Ni 2.1539476486921743 2.198520411645789 7.620639097281 1.6787606715110444 0.8414300191956993 -1.725949156271389
Ni 4.954005273087535 0.5518076468123074 13.474446571398685 1.3371325380440326 -0.5572938092975693 0.2616367432440333
Ni 8.25592916948021 7.26643798555392 10.432630479761023 -0.31263148912434546 0.5673478510994616 2.02172012219497
Ni 4.091014154425807 4.941742653850609 13.087309179184789 3.931854367190131 -2.4078111139610465 0.2770847023679873
P 6.650743021503534 7.671615362840685 8.879022580470208 -0.4379987363789618 0.7868732669957416 0.5906549012565182
P 3.2010081139906084 6.225741076450405 0.7644488962710515 -0.12500060794381698 0.5841572093473165 2.8779226717141535
P 5.481028494246664 2.2283315821998007 7.829143570719892 0.18864543848797188 -0.2391308488320333 -1.175975791894633
P 4.682044532056467 8.204277530876189 5.182011027058364 1.4702177227681972 -1.4300799742070467 -1.1656422711791086
P 8.265014655551205 0.3992309359431611 5.960623248548065 -3.0105494287446604 -1.402697725539352 1.2155460979880872
P 8.090290911151126 1.2971528686903175 2.2142834512830736 -0.7594223698736404 0.03974334133620897 -0.78278701274151
P 0.40506125399853593 5.900437941738709 12.577258537833133 -1.1801926581894577 -0.23569405523634246 -0.08505826322292448
P 5.547376696208881 3.387920158723148 3.8478798584645735 -2.4852684249082615 0.40178989055857256 -0.8228368295745442
