# total energy = -340872.57350624213 ev
CRYSTAL
PRIMVEC
9.19867782540856 0.00000000000000 0.00000000000000
0.00000000000000 9.19867782540856 0.00000000000000
0.00000000000000 0.00000000000000 13.46319481408857
PRIMCOORD
 96 1
Ni 8.626345348130037 0.7404190606625088 10.08618104810204 -0.2084197929014217 0.8715443220825764 0.9273442026610158
Ni 5.220433674782021 1.6109736571367532 1.5478366917194968 -0.05837278351193818 -0.29208734642440665 -1.0449030096148069
Ni 2.9368158957909536 1.8225800432635604 6.726346472160901 1.006499213025628 0.0687826659913525 0.14172074891197528
Ni 7.819446522505911 3.2313483630746536 1.3846089122070486 -0.7098021357433517 -0.13443938475921363 -0.11905107522860142
Ni 2.6706337537568974 8.368892751411332 12.486386550111957 -0.8066069979792432 0.11196717179862652 1.7407211723742408
Ni 7.046076877782159 8.58350710520739 5.4881639543045635 0.5826443722472159 1.8578251511788004 2.7464747654830957
Ni 1.2997271921312477 3.6855790771653223 7.9662261460875055 0.05848308383755735 -0.7331025010321891 0.5512995393873473
Ni 8.61806653803118 7.844089780566844 9.405643540752358 -0.6464964337061705 -1.788612339628565 -0.16761407173896936
Ni 4.784821084735895 3.5243906445405595 10.759314539619977 0.8401449818356885 -1.7225470725683754 0.08224521925416159
Ni 5.112422799025588 9.077016173878198 13.406810858886145 -0.7719531553507997 -0.31847817771310954 -0.4532446067944388
Ni 4.2607816041560795 8.415520849623677 2.675486976210406 0.3033919728039484 -1.2662066004574322 -1.908804984660777
Ni 5.335214777463742 5.4269807880706376 5.016359166109597 0.36820305574206263 -0.13159445911125078 1.1237412600699486
Ni 1.0126824486480699 2.753771404505206 2.3037003325553194 -0.6758286070113845 -1.0746123637537817 0.22245878749299106
Ni 7.2275759911827855 5.120131291095414 2.992746616951049 0.009221775708584118 0.10383297272726633 0.3866792601693792
Ni 7.450570340534467 8.334342517265432 0.4872061345822082 -1.5875896105221625 0.4074296053428532 1.1773940123983981
Ni 9.073198722554833 2.592021852529298 12.606881871497468 0.774301343868002 2.2549374337560457 -1.5984422369659503
Ni 6.770337309422866 8.306093377472552 11.741346073678708 0.670895174265509 1.3269427419952244 -2.3016361233641653
Ni 1.44132244085538 0.906467154815301 8.36318865125322 0.39851533357235885 -0.46848250679011577 0.8737894093630113
Ni 4.061317472840931 0.40536457754826555 9.037735059694693 -0.32307145351074684 0.3986418318478941 -2.077393247387558
Ni 5.57437120386397 6.685249538962382 12.764145228267582 0.11111716509350542 -0.8972352990907774 0.4291405146573835
Ni 8.954416194992 3.933345466068363 5.741702513582085 0.09257308354273089 -0.17808900312836426 0.28553848956229533
Ni 3.077445283336886 1.1317225391917587 11.024404798588773 -0.8164512377631746 1.0986318665968304 0.3089008184373196
Ni 8.164139380310802 6.010038985977422 11.60582563183156 -1.5010113111102859 0.8511595877786374 0.2879720387044524
Ni 8.296627937926191 2.7519224702497946 8.11861604331276 -0.207294678158043 -0.030101704481386868 0.913801945200207
P 6.90164843626864 3.792559700998341 4.8128365781104305 -0.33800930576750177 0.7374990874379879 0.018811476279548246
P 2.870088686394159 5.606474589691763 4.438720829214198 0.8834539290359688 -0.2582156333776262 -0.2518138436163405
P 3.3481163801801004 6.47339478853261 11.32816078019039 -0.10220726419838526 -0.9044621558565197 0.7612439964634116
P 7.240803689985183 1.135585983904559 1.947289278989389 0.559572578029417 -0.8491510419890409 -1.0258146255247882
P 0.1957202694148877 5.407424398881558 7.43358222221161 -1.5659319230430708 1.0160997122298694 -0.02223464302848429
P 5.385301578561832 1.252869126971712 11.21082888413043 -0.664834569893726 -0.5456971055989053 1.949944177903248
P 0.9139640772937112 2.5792356902655067 4.50316952609823 1.198716170914942 0.9448724413527663 -1.7487239880740593
P 6.284886282581616 7.641948833986398 9.573744779809669 1.4961462697085006 0.04578620509617921 0.2865741299156613
Ni 1.7748297063489258 3.6285104795505285 0.29191452355688363 0.7833313152807542 0.035307931272674675 0.07085471802903281
Ni 3.259137568973153 6.501211590464772 6.6848126017627205 1.1073592191674992 -1.5036176383848814 1.223651500704041
Ni 3.187470669550707 4.974359842610303 9.686917033728845 -0.25354265338198917 2.1911925872989166 0.2641363697374354
Ni 4.285535246351665 4.4253735475992615 7.794004819204332 0.4109934114347115 0.5528671409847833 -1.0738767711393375
Ni 2.258560580425191 5.360630724467235 2.022064411670062 -0.5305034285776025 0.1444941978920544 0.20013287030228114
Ni 4.57548677204733 7.8634805935539465 5.016642485388536 -0.08447873657037064 0.27121641651266837 0.8249369066366825
Ni 7.070315394016037 4.558552006056222 7.105510455481859 -1.3206463674635516 -0.22328282605618321 -0.744225607528544
Ni 8.718341325684124 7.262788530136595 2.291960979835139 0.41503801381773037 -0.506183106664683 0.7215559338451701
Ni 7.692440376911543 2.7953586272351356 10.69094812582361 -1.2005305984158614 1.325744350811749 -0.23313246515675332
Ni 0.2779463311845328 8.469553883535557 6.587299257211639 -1.023401645207921 -0.8912870519271425 -0.3823605781893673
Ni 0.19108229602394977 7.2649778154738485 -0.06076646612561677 0.9435161844351879 0.6122079448369456 1.1578508001591479
Ni 5.702830740564582 5.5984625412516476 10.312605584438014 1.1434163699013729 0.5483409709796556 1.3176556602663436
Ni 5.592409811201593 2.550728987491773 7.752188549395 -1.1269366270787946 0.31623437598425536 -1.2971017473743918
Ni 1.2437164424735303 6.264281244113347 5.780180583186 -1.679867531421978 0.6442035239069357 0.3831334517996498
Ni 2.8746328332706432 1.0140254556196626 1.408074739498367 -0.33278559547471714 -0.20611968401333533 -0.42330771002569034
Ni 4.70901478026402 3.1404378295113067 5.486965366575807 0.11128505812993737 -0.7048784731894893 0.21781846050750228
Ni 2.610364016237212 8.55112775904297 6.282357566030309 0.1692878598969665 0.9156415695121068 1.591261402946795
Ni 4.348500196492423 8.255528245124305 10.893111149230986 1.833455206974868 0.2537717386736597 0.29713262215779795
Ni 0.4375295945179059 5.246088787410592 3.777059008889913 0.5428321253462844 -0.4035855490064146 -0.8743900190614877
Ni 1.9249981228643198 7.498946187545459 3.859992448989116 -0.10037715296818198 -0.07537240339372826 -1.555605087195766
Ni 0.8830454811778434 2.499060013797012 10.273535119978138 -0.17471854399423456 0.38791930322406737 -0.6049139822786936
Ni 1.5249016281422942 8.601858467593193 10.385427837803148 0.1409108514161702 0.2694279571536779 0.33178877877908663
Ni 6.55764547930532 7.398156273930808 3.810891746160579 -0.6437808345472202 -1.21058489732807 -3.2603297868707397
Ni 8.342520141907526 5.0171888868550605 9.33412749964727 -0.15471201896532066 0.08118438208981503 -0.07416192802539485
P 5.749164481084523 0.5822165188800674 7.029833852368199 -0.5893791198678882 -0.8079254596803506 -0.1569679048790329
P 0.3703148551930676 4.4479655004912555 11.57649012818015 -0.21923436701842244 -1.6806175222141249 -0.013250694362319116
P 8.970072344756728 8.421674765130495 11.736849759927239 -0.10786137716036907 0.09992001082610533 -0.5108895110014169
P 5.380849418464224 6.515800693594537 6.9121790827143865 0.6406227485342127 -0.23983918775296756 -0.06673041144801412
P 5.976978937649316 6.997406673078761 1.6329235423121917 -0.4883499351380042 -0.1493175874226267 -0.16996765957281051
P 2.0277657522248087 7.883092174810352 1.5028018045172875 -1.1803479528203995 0.7952116116581078 0.30679817027202005
P 8.806786613573589 8.278202986117288 4.203141768644465 0.5776204366700634 -0.2475995484246768 0.7556073670029245
P 1.68364321244895 1.42269511813295 12.951148830516162 1.8427307187395232 -0.004587362260366293 -0.5509393278344512
Ni 4.194054394759285 2.274547882593874 12.8578494003054 -0.2329684287750633 0.2596305114472819 0.672504684844474
Ni 2.403826101626484 4.101193741483763 6.042106496961453 0.4662289348692487 -0.14640607020278656 -1.0385264166645016
Ni 5.463849089044218 4.555810800045711 0.993861033822211 0.6755547845247075 -0.6829891293155657 1.2950073267392084
Ni 4.3886892201834335 6.917479360913234 8.932816779444078 -1.2210518582976648 0.4428349814253405 -1.7206843083280237
Ni 7.464671913736188 6.816082334558 7.521011976062282 -0.08985465617030332 1.0241374949326814 0.6728993491797315
Ni 1.7478131893929862 0.53857707111341 4.641638144208359 1.0680575933543994 0.6961410933164914 -0.743557634927242
Ni 5.899066135941175 0.8522547466846134 3.8022624664342026 1.4563463641027437 -0.3822605622763933 0.4196929960912385
Ni 1.148675702538642 6.037027906899699 10.475052396197805 0.3351093585118874 1.278278958240934 -2.2270167960863776
Ni 0.5938905609872457 1.6038446817738479 6.252643996717719 -1.3412013087967674 0.7633990951332014 2.149009011952331
Ni 7.99193093157667 6.231947891338363 5.270598664642156 0.09478603203364966 -0.0664830713238984 -0.0825475809859288
Ni 8.118946275848925 2.156933587122767 3.598645132052793 0.14332614572588218 0.1939884479674401 1.2292307945640315
Ni 8.980816400529468 0.8849348896159605 0.38536941142394626 -0.6553050331367359 -1.8154924518488604 1.5601446269373325
Ni 6.314837177783707 1.1833087247855307 9.354995620303125 1.4262819406171952 -1.353644419656127 -0.1009736489016003
Ni 1.6892268099267351 5.8837779332919515 12.663763735951143 1.4603017492060657 -0.7908433073870832 1.2826791441911587
Ni 2.7930865537968934 3.494642120251997 3.6468563227295974 1.2976221386542364 -0.10792874006319478 0.14637804517832853
Ni 7.242588233495382 1.9951840351468593 6.004719390555011 -0.20656242797770877 -0.8476508032944304 -0.2994574136362327
Ni 3.9754662121157747 4.847261710237058 12.812303066612639 -0.6222997818553089 -0.04696094213057074 -1.1481865375965064
Ni 6.782902703417355 2.333419421074641 12.934575572566036 -1.3979792370177602 -1.1324619277723982 -0.57406691499085
Ni 0.8193593546906961 0.3291415729680811 2.539926060180552 -0.9305259428231071 -1.3227865537350059 -0.2362465853057028
Ni 2.477378730015892 3.6096807859145708 11.466778416882297 -0.4891104674531125 -0.12879144244481688 0.41748287581379706
Ni 7.585459753078525 5.763072882050604 0.6228737552755584 0.35800606060440276 -0.2990164694440721 -0.31414432622444605
Ni 3.621823040726229 6.808750988281566 0.7345300670788545 1.4722728055250127 0.36380492667436704 -0.2400317633797479
Ni 5.599170839448994 3.1410817369634403 3.171390460735359 -0.0987992669581008 1.6798945280051716 0.3598361718346061
Ni 4.573637837791918 5.675952203776957 2.900914375863362 -0.37128683687370895 0.7774496596889966 -0.37557826516021126
P 3.701262822963714 3.248181943608998 1.470908148545332 -0.4285892701396038 0.4771059867930686 0.5482653805467138
P 2.880979921013101 2.9997072565086107 9.222315730187674 0.27868984207157804 -2.6257663571567296 0.14274944728680578
P 9.357171107623548 4.636501602475913 1.7005089883559008 -0.23798002305704175 1.8467385543473354 -0.5916213789348456
P 3.874087583116316 0.7431519878629206 3.989602740293469 -1.7784405413018856 0.926007229017147 1.5495683940833829
P 6.376385531529771 4.44076293570525 12.525052272744778 0.27789871362885044 0.8271845650202785 -1.0936189867632713
P 8.436181080159272 0.6708936134523004 7.928300917024639 0.03597487543271223 -1.2036058949070756 -0.3837921684295713
P 6.370314404123941 3.9098612414212695 9.1484163116419 0.7335033360150335 0.1306727186279298 0.1974866909286857
P 2.1767751353263627 7.7580085528944975 8.566483112040773 0.7010503576926507 0.17289177519814095 -1.6411675437486186
