# total energy = -340866.8871026747 ev
CRYSTAL
PRIMVEC
9.28919427583393 0.00000000000000 0.00000000000000

0.00000000000000 9.28919427583393 0.00000000000000

0.00000000000000 0.00000000000000 13.59567478883218

PRIMCOORD
 96 1
Ni 1.788699363388206 2.531147497281888 2.7642180238121714 -0.2755821496805318 1.0569470852635345 0.49552536984052076
Ni 5.397718507147503 8.03270990614845 4.547331794740974 0.06537081209632613 -0.5587989330881861 0.2735085549809547
Ni 6.511065586191786 0.12833950676719855 6.621650656126027 -1.2001318203155462 1.09618726171108 -1.0814638394579763
Ni 5.267846283340887 2.101550134118698 7.806256072631359 -0.3406778537386004 -0.0107999188289814 -0.6346505901111781
Ni 5.327910212897684 6.908670964604958 7.521562707294087 0.5353543289120005 1.3729053247682677 -1.5141342216454892
Ni 8.915434161328427 3.684243038215057 9.742878421953426 0.42055431565026924 0.19433477556326528 -0.28990447984047496
Ni 5.399520610818091 -0.25876908222451145 2.3796509583476406 0.7144848859310018 -0.04545196168521204 1.394877715274301
Ni 8.375007422424108 1.3597057978466047 9.711676018708564 0.28175151171603735 -0.9053399304757828 -0.0874290774479462
Ni 2.451706308669187 8.935396639617565 4.493955156073126 1.9890719971426452 0.29250489357779946 0.8580522011334125
Ni 1.8062280728026316 2.0553456822759038 9.356665311280503 -0.08610418798893558 1.174116370088391 -0.3299905492280833
Ni 6.2053674949785735 1.8028189385392006 11.591672369239218 -0.7249150801253903 -0.9621055174016011 0.4991516537391984
Ni 6.961062019770492 6.716310331561014 9.067376581583233 -0.10851752268712923 -0.8462464667477361 0.19360458226546012
Ni 9.009496541577752 6.580418709926869 4.992236820990561 0.2136992961328062 -0.3356238362544607 0.2501243717290596
Ni 6.466672527213758 6.5606698831038335 11.630650756930724 -0.352088152458071 -0.12375233735901267 -0.6051158138768545
Ni 8.100502445261581 3.2256633892156144 13.368191741220855 0.551498799882347 0.5406132633180948 1.2765516911371821
Ni 5.929116149310529 0.9308144134409644 0.44900713439871837 0.30982127336905996 -0.0967359566711689 -1.9936480465491022
Ni 2.4252785512319632 9.173971013698482 9.973460373363347 3.2160780161412164 -0.9743411402358446 0.48330157408081925
Ni 2.3210073465807035 7.4454098934205 8.124802048312558 0.7918771479682362 0.4652722273829342 3.727248805828478
Ni 5.617881698367058 1.3909453578681803 4.297660549294676 -1.2964229761398125 -0.13239638618725585 1.9437979557961944
Ni 4.242672235436895 5.341704666252439 11.514149399224332 -0.547064161149761 1.2155574108419969 -0.7548470917981323
Ni 1.306051412272825 7.1902635969255195 0.08167245305432565 0.39544029419146093 -0.2925416603530059 0.39862974766303605
Ni 1.4310746767183755 1.1781299192436492 11.63755727280228 -0.8506044866061158 0.7773244469650419 0.19549177198584397
Ni 7.872155473970955 8.299096127599157 10.523133576152732 -0.07413313166998846 0.85113284830576 0.2323487929131934
Ni 6.415516934873937 9.384872878322286 8.96683684623339 -0.8969375653447004 0.06262358836849215 0.5943691168833118
P 3.120221746097891 5.977596453727003 13.360632194998566 -0.31771044630914963 2.8269711203669505 0.7675442276498265
P 6.7595236628784 6.5130813413284745 5.672496586618872 -0.3883008549332022 -1.181190503326353 -0.44616867378426384
P 0.8569848270313656 2.9373453803099756 4.842181036073366 -1.531541618488659 2.217079225257691 -0.9036671707590501
P 8.967323600008333 6.5275167490815305 9.793494312111488 0.6185387721509799 -0.8556127384539846 0.5422685395333307
P 7.192465135945774 5.428066304527963 13.73149584121129 0.17429096953851275 0.5371872683556813 -0.4425084513238573
P 6.090367271051394 8.832156535520093 11.901123294900458 -1.0026513000344475 -0.829796805832145 -0.08021661885990701
P 2.5719735056954547 3.279652185779813 11.334999858140744 -1.5060627574912642 -0.12309284939814284 0.8321377952604959
P 6.0922251098870515 2.884313370746141 5.94791747832738 1.0013099555152045 -1.207041917171818 -0.5632230302978106
Ni 3.5563308343800597 4.039136701796471 13.410189117020304 -0.01961160358334042 -1.1744580696985258 -0.8241545199447032
Ni 3.5745283657753215 2.188831402617873 0.9558738725757264 1.470287399663868 -2.0599076890082846 1.6412279646729089
Ni 3.1899278592117484 6.540345126241743 6.3944397532834065 1.6578979691294222 0.10004008134373739 -2.5263942484142943
Ni 5.4989242777199285 2.454585958864455 2.185382324819475 1.2648194903019183 -0.5050811318497559 0.13162196991507655
Ni 8.319978236111941 4.4121257156371865 5.676506731745638 -0.4064584996788354 -0.7730651574680556 -0.21934518156467384
Ni 7.657110628743636 2.4361004624496663 7.549215709443427 0.6559871468054251 0.31913303768828905 0.2889243753153927
Ni 4.293437681621227 3.3568175218188343 10.097385655057023 -1.1495332814323882 -0.9944723637680809 -0.6123056467570746
Ni 5.382159106898874 4.651814793019499 1.415160429252136 -0.2296465634906819 1.6527477923870504 0.30043854660257935
Ni 1.83035211008364 0.32897588290457874 1.8984456190881474 0.5366879601217596 -1.2739289088023544 -0.5603757906570027
Ni 6.416770976088006 4.201530394421266 11.992758408710994 -0.1355192480869537 0.20239132731915466 -0.7340669218279873
Ni 1.0261865700694262 8.069690188172206 6.339214564974078 -0.5842297144564648 0.9578390288157632 -0.5058997710963093
Ni 6.36022765112478 3.800339387055274 3.9266343421838323 -1.212788589847608 -2.206894057194573 1.9152517687273853
Ni 7.936659638344973 8.66460734012635 4.607057597629681 -0.7974065624268976 0.08739513888621724 -0.24096070295192049
Ni 0.5044506187712359 0.6942223533976929 3.964865878663404 -0.817382234217876 2.105445011318451 -0.18505129337881032
Ni 8.755594997102662 6.933120123682208 1.8750879403268474 1.3411056637591676 -1.540390841349173 0.13516469296101238
Ni 1.548889526481576 2.2268056284187057 0.3555634144816688 -2.267942587766462 -0.7760597213200053 -1.8691950835786388
Ni 4.876306748726135 7.4581268002505725 10.046156678083195 -0.6938677239012824 0.5406896250819849 -0.17982938285823866
Ni 8.832435211345443 5.289248586727658 7.965379039985979 -1.4659239804888495 0.1944731009133425 0.6010182467687133
Ni 7.960969459509548 0.506742262975019 12.545503548015137 -0.0179522136030465 0.4492059179486909 -0.3774888519193628
Ni 3.3870817164516893 7.623753132449411 2.6983882914289126 0.4665122704376224 1.8821868678526164 -2.062491904795693
Ni 6.464842555960636 2.9418785070689792 9.629856796386221 2.0517354376101373 0.3221862226923161 -0.33475326072404926
Ni 3.8063216281060908 1.5038369347168894 12.11259087144972 -0.04939140594893429 0.20842030712205398 -0.06222506737849284
Ni 0.7223463176918713 3.3034603904587594 7.2831759749355705 -0.0763458230505911 0.00943826259476439 0.047571579131376135
Ni 1.7864978243679521 4.986588062010745 9.910880001103653 0.13667984405395817 -0.26480434233873745 0.0535139127577401
P 0.5643900731260437 9.129615111497166 13.073356433679729 1.0103985480800342 -0.3175448672655628 1.6694036557761767
P 3.3588425661497006 1.5336273804466523 4.001451369934583 -0.19054908326858797 -0.9023003723185105 0.30500225471386183
P 3.9661607923318565 9.298111804697095 0.8999231982010746 -2.02765474251185 -1.005475913967436 -1.1845326803257084
P 3.771672933821084 5.7596440907218796 3.3609595735029316 0.33533741536229345 -2.4479378067786035 0.9024538671772392
P 2.7414362750899253 6.895916900998173 10.465311129151155 0.5260073404794618 0.23703719952779825 -1.0490296301886708
P 4.17657961885839 1.1756404152038686 9.385964358638235 0.18502995322257165 0.020822593172306073 2.192020996737483
P 1.2806268878068565 5.82808687342749 7.094019184963717 0.6981375549212299 -0.05758319773110728 -1.411825141761917
P 7.293438676663741 1.06529407756001 3.1648015178789026 2.021192531826274 0.022519264148438637 -1.5408320426516497
Ni 4.108917128463755 5.192798883574516 8.297277303379047 -0.9149666549322694 -0.22469410458141303 0.7553767390493572
Ni 0.16071792199503204 4.6078304585853145 3.3861518681144434 1.7916506122342564 -0.3514587464041883 0.7539204662188047
Ni 8.233700200584023 1.8459951130798737 5.2693297676511595 -1.0009309749092312 0.20749496709430712 0.08963996905633594
Ni 1.198194578668747 4.472737707650502 13.011727274903892 1.3475629893487373 -0.11214869168181331 0.8929919504333912
Ni 2.0880436457834706 5.348829478187184 1.8790172694642624 0.09252988900962128 -0.200302563110926 -0.7686004368284828
Ni 3.079971667723378 3.229555561576316 7.5773452472541125 0.8148247579033451 -1.1476460917120044 1.408146407358749
Ni 7.235279031913493 8.324464916900054 1.0175095337874893 0.8689570209713745 1.7839732981946568 -0.6652562308121769
Ni 8.341036839314116 7.254962834377281 12.757569348669483 0.1243506330646439 0.6397485734593756 1.5274139694735307
Ni 1.9778923812173557 6.698298584049318 4.23426365686671 -0.8978441363193698 -2.0612528901822693 0.7992932379266493
Ni 7.880014132245786 7.666279063397604 6.980182897067077 1.3544242352449447 -0.2744053557636113 1.4187797187028792
Ni 3.396445224183402 8.220695328734422 12.077567822639327 0.41347889686072653 -0.4682439084167484 1.2944049172685193
Ni 3.9325617769889964 3.497325872959587 3.687038156743303 -0.058714226011756944 1.6838866798837002 -0.1160102315197486
Ni 7.5937490352535475 3.9167887252742672 2.146254381101699 0.7892849617610278 -0.751585390327725 -2.964645981344326
Ni 7.359122568698401 5.630505713255348 3.581671756098423 1.0712910126900324 0.9375602239620692 1.8117440405500218
Ni 2.4978364469585546 4.372330807777409 5.810315716045012 -1.152765929437073 0.19498397911148999 -1.775284255061091
Ni 6.399688147994137 4.423820811107649 7.4419868253658015 0.37918500867486304 1.6659689190630147 1.4301265111742658
Ni 0.6201577503753835 9.119722119697292 8.812580487708773 -1.387394005302746 -0.6416761294993917 -1.271172943323772
Ni 3.2819559059360275 0.6135345549262655 7.593891159924475 -1.7867896845975293 -0.4447100869608664 -0.07362225347184095
Ni 9.014577730793274 5.349795554381726 11.688174091879759 -1.5958047993431033 -0.15382010327867057 -1.5140437188142117
Ni 5.386394979444173 7.271070297082429 13.744003741172351 -1.2315463300710856 -0.5653578172526262 -0.1513137919170491
Ni 0.8397190018121855 7.830883584236831 11.184278038000967 0.6823214138245797 -0.09513441651200391 -0.033857829089709426
Ni 8.609698913338502 1.2112273181008821 1.155759681823501 0.1885346239417205 -0.12417476960841194 1.2064796169104448
Ni 4.975004436870423 4.642553466423747 5.607345894330046 -1.3218481010811365 1.9831995975222687 -0.06121513805673974
Ni 1.8836999522495361 1.5861391951365025 5.941146584690826 0.709588734180965 -1.0971115732975623 0.518589707859152
P 8.708220106793403 0.6245273873168491 7.215347207965145 0.05342700947088864 -0.8023644206528052 -0.3607589407591916
P 5.488603982987853 2.9856863468137758 13.57038684414135 -0.013516032208563818 -0.250797229426368 -0.3324323259003565
P 0.37637585403811846 3.642803942985723 1.3879012889359559 -0.15314338892662013 0.6748634148846377 0.2884376654869613
P 8.29473020633536 2.5184677472285277 11.457605145341688 0.21953878563271867 0.643746124654543 -1.0489257576209547
P 0.6829564186982677 8.10148709984448 3.2251385497445417 0.0651772080282813 -1.398641296081791 -0.6350218574076676
P 6.563456641357319 7.110311502633012 2.57930360882154 -1.9915420559496926 1.9364080910900265 -1.0599503908662327
P 5.777646549039398 4.9354510480592815 9.721383226624873 0.1526314822872081 1.4541750674830376 0.2756022042851899
P 4.3670173887074295 8.610692857115579 6.415322790715611 0.3927370363276849 -0.8524397400426416 -0.5732575317156772
