# total energy = -381173.91396894335 ev
CRYSTAL
PRIMVEC
9.18922052635302 0.00000000000000 0.00000000000000

0.00000000000000 9.18922052635302 0.00000000000000

0.00000000000000 0.00000000000000 13.44935310095857

PRIMCOORD
 96 1
Ni 6.969683696934813 8.920224382830066 8.68656088567113 0.3671229353040064 -0.051911087046994465 -0.07611082422164955
Ni 7.686985054679402 4.032147222819997 12.63434922707621 -0.2820140213488046 0.6797842492250227 1.352017168465349
Ni 3.8044199620604897 1.556258804795737 6.329614980159695 0.905812499236827 0.008491068190146665 -0.6391237953911831
Ni 7.9301777734268954 2.161231131972809 5.69843683415307 -0.050755633286312586 0.8163306530249103 -0.7995092105921972
Ni 6.603337045950256 3.2602894633673456 4.014605001014255 2.018292841680976 1.5871016151421504 -0.138093179461717
Ni 0.9259977429882816 3.9428188109951576 10.413941353361853 0.5769352376775807 0.6453821175960691 -0.41081471976500217
Ni 2.8815741216805733 2.3473496026137206 0.7218573732350488 -1.1902739536848599 -1.3729868287384805 -0.8279574386305613
Ni 3.650087004895776 5.386022636809205 3.7382346018950328 -1.3553063807395822 1.8253585460096629 -0.0737351249006214
Ni 7.793717850003496 0.6687583818875894 3.1503496301122915 -0.14842927128040243 -0.37912895862594703 0.0048377877082755386
Ni 6.112191592271207 6.731021263860568 9.642540298164699 0.08180916015800749 0.34715086305745374 -0.11463931931415094
Ni 1.2954871073607717 0.7422675507377904 2.2230304772258087 0.19163897389865703 0.16645707531639073 -0.10959970000771448
Ni 0.9182650139942891 1.2457918032615296 6.240082567641252 -0.8114478710113122 0.4396313868863783 3.121350348149327
Ni 1.4185032012913477 6.603594344122367 5.056324434753753 1.3750241708834836 -0.650898419428608 -0.7789596685756197
Ni 4.931624875639933 6.078310936536387 13.062455709665908 -0.45174231121729935 -0.9688284379477314 -0.09461942454879833
Ni 6.983761582637483 1.8376419236609167 12.079495827060322 -0.1196506564858133 -1.156853212132569 -0.10942743609590831
Ni 3.8074983509053943 6.864329284675603 10.415246222663276 0.5489351529202288 -0.17242563419499982 0.22400273494134326
Ni 4.672433724119366 8.562322625423024 8.100706731603982 0.6255080043799613 -0.2816813205997342 -0.17446657588442854
Ni 3.0196605371205343 5.055265836559923 6.199209834079304 -0.025199382083763055 -0.2098989485501095 -1.1324575568970239
Ni 4.581010170035905 5.963730546962895 7.785346470189441 0.009979994030847329 -0.07961446649953384 0.6364783873485361
Ni 5.390497787159858 5.789162926405701 5.193507549825195 0.004653182501295212 -0.42018099147125054 1.8436586298704312
Ni 3.5237168455073187 4.639683342497752 10.30501509112051 1.0540823621212296 0.3776114935401561 -0.1425805258091093
Ni 2.3541771933951066 5.2048203990997095 12.275426547279112 0.4277395205447988 0.060315766170921936 -0.34999527448478435
Ni 5.229815078676251 3.0514276721558673 0.11957289303449853 1.1296157165728544 0.6495491044895653 -0.7537394605562503
Ni 4.3117476329212625 6.692086536887844 1.8399116611077573 -0.5684629385405113 0.1297376084081701 -0.592290122867096
P 5.802726215764149 2.9291650943007608 6.347798609551629 -1.6760838960098297 -2.6597622544862 -0.42012648408423126
Ni 8.627069872590786 8.285552495214986 0.7133738849317166 -0.03967443577148651 0.9405817843972124 0.010507070178910937
P 7.925206405172886 5.652206785078945 10.257162225717993 -1.095473780583823 -0.9196578897603517 0.3285347906181632
Ni 9.013265239709655 3.9638529365652695 7.867562425399485 2.0182239361162533 -0.14881647941649212 1.1913952117734965
P 1.1145973031459824 6.4154174881045645 7.264412320634188 -0.5296091988981072 0.47527716111444596 -0.16034530599169805
P 5.959338099596136 0.12758589325168404 13.717533180173513 0.2654599736448654 0.19202823891727572 -1.6711790025090445
P 7.7756242749718005 1.1348135880975971 10.130146983055171 0.4936181255154789 -0.3643101484455597 0.28665769076840303
Ni 1.9356082026923556 1.1434238876428986 11.411506582922938 0.3077237674100829 0.9340676374277783 0.2557283481793983
Ni 9.472891667305051 2.382378910902609 3.676501419029147 -2.1158088710512786 0.5828899125991187 -1.0331399555416079
Ni 3.8858180766520363 1.897390234913371 2.7618247956137694 -2.1194768068211696 -1.3191954939496378 1.174024838815849
Ni 8.63291421678589 7.417180353559239 5.635843540254698 -0.5786169962553777 -3.120861067217735 0.4504984115078693
Ni 3.935623651396469 9.078802759834618 1.2481203517191384 0.32860626728604697 -0.022168051456606986 -0.10160356917611535
Ni 8.59993410465346 4.637836309190808 3.3455534829948674 1.4879339091010375 1.6689452280825194 2.279831625894564
Ni 5.200648493023331 2.674779905066419 10.734735200818163 0.6872651309831003 -0.2980335367055125 -0.2608877808931507
Ni 7.737084684477677 3.5156670884084025 1.7775471787981556 -1.1776575504724298 -1.2658515311108587 -1.4273628323862
Ni 8.325516414876155 6.18925239481859 1.4642306000078136 -1.099076667443733 -2.1015035101721997 -1.852135814103507
Ni 5.561518368630087 8.277805982390344 11.61439078624304 1.0376797523934904 -0.5080530699938863 0.2178511135176506
Ni 2.1263672296517058 4.856769485996364 8.349855903035856 -0.3023257363229632 -0.11036871696325508 0.7990263574185078
Ni 6.498919934175166 7.521000166006213 6.801983180806865 -1.0959820876788093 -1.3395272635284543 -0.19927257918451485
Ni 0.6081665001994269 6.4422132548858855 9.682632866911925 2.248582695182612 -0.22553588375641806 0.26574922275051005
Ni 6.193359976351942 0.5402958370066399 6.4568866020725855 -0.3763071729064358 1.1815802825656039 -0.1784885525596281
Ni 3.350977879816203 7.539764554129484 12.561237951470739 -1.1738078377090364 0.6227903483384823 0.290256720973571
Ni 4.914238870581545 3.896771627407639 2.4997638505521174 0.3572409003036041 -0.006292517876931098 -1.405430808199799
Ni 1.5006456427379313 7.018248726920851 0.7114735541462649 -0.08547683881758183 -1.6957145257565638 -0.4197403043894062
Ni 2.5148415234378487 0.8969212116956002 8.117504626554688 0.45331479791074186 -0.2126860243769434 0.7015933746803142
Ni 0.4802690923750794 2.8552929512434737 12.482209736828748 0.3576443063896098 -0.9785204684245147 -0.19468855935825827
Ni 9.047798330095187 0.40228385425218216 12.121659646093045 -1.0535252040661793 0.7085278970166184 -0.38991319372564465
Ni 6.140338174456115 5.831341448191115 3.0440864039523015 1.682415237544496 0.1459936652557163 -0.3088753645160229
Ni 5.960771617983613 4.413702033620428 9.01374307917215 -0.291526331714614 -0.48682578518399383 -0.07409456512256918
Ni 8.060554432923945 7.982841195725852 10.536801230545075 0.34395626737955604 -0.38331265768999145 0.7010634703187734
Ni 2.2905142742383853 3.6773422326987255 3.0298973286823974 -0.9575312677673574 0.41008658334972603 -0.6140403700599941
Ni 4.40960364130751 3.39006882353628 4.726479205171379 -1.3474529461334341 -0.007809211631773648 1.1859773831920348
P 4.320651987520405 7.44930586819144 6.193117380932521 1.0411615402945038 -0.7160254909452443 -0.702938575854299
Ni 5.288332034390743 1.4693287795037937 8.628217606222812 -1.2037624750895977 1.0337174253116326 0.6080687258575914
P 0.5805161359178774 2.566163319553653 1.2576357894770462 0.839058176529413 -0.7051330124024565 0.9501928251244153
Ni 2.2986099774394635 7.786522690404808 2.8307393542476946 -1.0620273279999195 -0.5744986032116299 0.5260572198807907
P 3.664302728904934 3.1521782849783695 12.130428919151829 -1.7329803520865574 0.4201282838564442 -0.2014616164160337
P 7.63772164394049 5.433291986714254 5.109422507179169 -0.15177247672102248 0.4753735774829942 -0.556255597841042
P 3.8912764735889724 -0.19039605275226457 10.180703317108943 -0.4247691250625652 1.3296760817659874 -0.22000261264301466
Ni 7.0893824822892375 4.345986668252951 6.933168491701981 -0.1382052795595491 2.0603288357061036 -0.503757527942326
Ni 2.101905524860252 1.6556402237737888 4.5524179106600196 4.267533996383192 0.8559135575238549 -1.4327271820219065
Ni 8.128012500119311 6.717329325416066 8.088481392740515 -0.440670369673854 -2.254676209674859 0.36290941144329114
Ni 6.401017979686754 8.015371036057086 4.453497790547682 0.7108537169363176 0.1733463462370563 -0.07173943462683129
Ni 1.9277973653246863 -0.047577188789538837 13.54269172084743 -0.8281610700009349 1.2490614561367133 -0.6382313654839008
Ni 5.818384647381218 1.607764385320192 1.8159985527761269 1.9767890660102343 -0.7591058670744861 0.19012947923266607
Ni 2.7324055063989534 7.503660107049987 8.480852834912103 -2.1375622035679704 -0.8117867424079697 -0.9398531337613039
Ni 3.3781687830761244 4.5471662711828165 0.8106812968581414 -0.16593154183022388 1.413578634117914 0.2687532996841565
Ni 7.429686882567942 2.082580594290595 8.027488861041492 0.6141103040659811 0.46483822516930917 0.511639244683248
Ni 0.6953703642602604 9.091759560644517 4.396956517226188 -0.5102500776452051 -1.0300556601893291 -0.4333221568388988
Ni 0.66055516480745 1.8182526685482316 9.248407282436192 -1.4448033964601505 1.2182272443646762 -0.04714914688197686
Ni 2.6058331841609803 8.561164783648522 6.071509075572212 -0.8234356395008077 0.45716733888761263 -0.4657764207128624
Ni 0.21499559585020675 8.51146947954928 7.911084411212139 0.5545722966013482 0.8549529933827985 -1.9991116407668343
Ni 5.6031455371895476 1.3505856730743544 4.25369381391657 -0.4339273945230656 -2.0788286942825036 0.4013785140527668
Ni 0.818781594669436 4.548048436344341 0.6648713416446198 0.3420199695887916 1.0677912270668901 0.5716868447944476
Ni 1.21147925416638 8.892316720376405 9.78658316628904 0.7774620009841708 -1.2252373571339221 2.246016734227648
Ni 4.049551606319251 0.7374634262956521 12.269629068108216 0.5380223626624671 1.1193636998275431 0.5338600037546612
Ni 7.758017728623031 3.361398455786717 10.188624425121803 0.20009918885086828 0.14788496874115822 0.3291526267078202
Ni 2.995667482571141 2.5628460109775015 9.918924481114571 -0.9128074424974216 -1.6330852809611163 -0.554088157876078
Ni 7.110673906031461 6.61505330200176 12.891783399650073 0.5115860228478093 0.5041619624695962 -0.42005732140919266
Ni 0.6298328441352985 4.077330619686856 5.489151419879652 0.14908618813811098 -0.2652026062184207 0.1472509347015851
Ni 0.09233696259445719 5.867390759948018 12.060559600514962 -0.16842834011014865 0.3024854018292791 0.2223669991101332
Ni 8.75594868915733 7.224473211868188 3.3049766423308466 0.028010112059680792 0.9510387180644783 0.6293296921188968
Ni 5.906307108479876 4.7906530449841505 11.37427921310658 0.06963935756469297 0.9361597440701168 -0.3328197911467623
Ni 6.394024982937583 8.02600296409755 1.929538722596655 0.36723169296772884 0.08297721232417966 0.12845745614416587
P 6.298953308342398 4.955434145780676 0.9722654678661818 -0.05659203746243156 0.8142660571863978 -0.5994897259393289
Ni 4.02618341875927 3.4436327894376264 7.895335006312788 0.7888327047149576 0.1567385624770462 -0.17563154272680723
P 1.2318793235266456 5.792553748745314 2.559627027059978 0.5792980814828023 -0.06412254151152182 0.4744420668076604
Ni 8.097917803202703 1.4151675142743312 0.7049776942224938 -0.5888777547514373 -0.5933558451274491 -0.1394178118104115
P 1.0058796362084577 7.848945064803134 11.82584118085037 0.6965529840429294 -0.6519443441946191 0.20139399640289185
P 8.290817918522837 0.09067003800799223 6.059888387413208 -1.1763362605578451 2.328926583649002 0.7643822849820772
P 2.125705605780562 2.9954377520603273 6.865074530452683 -0.35321326720144974 0.5340181265990803 0.05882118390326644
Ni 4.342016925026089 8.410553460758994 3.4892728905599832 0.4344752966067356 0.734480098106006 1.015945188929876
