# total energy = -340887.42074858473 ev
CRYSTAL
PRIMVEC
9.12319090872436 0.00000000000000 0.00000000000000

0.00000000000000 9.12319090872436 0.00000000000000

0.00000000000000 0.00000000000000 13.35271208119122

PRIMCOORD
 96 1
Ni 6.741937615690491 2.13501822457642 11.396499221266343 1.0075438522400584 0.3108260604844905 -0.5680821581623249
Ni 4.845353981596569 0.3151560631690325 5.609861857763759 1.023556682728547 0.9718194022552554 1.5134850180972643
Ni 3.2112901615885043 2.1694947624541077 4.533579885241841 0.11792338938206144 -0.07670937703759692 0.4948375997448768
Ni 3.9453694596177087 4.615814502103947 5.176004871950428 0.26446855626587357 -0.343976321984214 -0.019384575174198875
Ni 4.098429230978906 2.781204702834881 2.2310516674612844 -0.18443474284073397 -0.2706705713115274 0.23573133623218112
Ni 5.308611361949364 4.777167253864937 2.976760296750793 1.0420184889781603 -0.4286625465797005 -0.3210230556221504
Ni 5.935921958527768 3.173711738852808 0.06413968031100656 -0.13866627835636763 -0.7281274164151007 1.5797017231336536
Ni 5.849972378388658 7.793412720220024 12.250819436539938 -0.8404691979443267 0.5449288599743131 1.0196547765709796
Ni 1.8825977826606077 6.949535821408082 0.08580178444881578 0.5735547512411219 -0.7422126908635734 0.07833688533869089
Ni 0.4427895018853192 -0.11750487233581336 0.1593876164715338 0.6812436073793687 1.4377308058840852 0.043214073493628796
Ni 8.110023932315094 0.37524595910218633 6.913073164902193 0.5334529981242296 -1.2635912743217723 -0.23228091578973545
Ni 8.57905629241824 2.6400871881770165 1.077601185905648 0.5122282844174985 -0.9147679086579021 -0.07390044683389208
Ni 7.209619743561326 1.065798514020926 4.746875523588333 -0.829484931018681 -1.6974875584965863 -0.7087032462522181
Ni 0.9391230103343186 7.84612651642465 2.6321135194537835 0.29070075048952515 -0.2949214734390921 -0.28805637088814257
Ni 7.982162413829836 3.8687437804341425 3.660419368732147 0.11821855202497704 0.5682418236686407 0.7868089894167094
Ni 7.6760063783444075 4.338068082641572 12.830727758573518 1.7562560347850462 1.0282319767170292 -1.0538429924169141
Ni 8.499009416700106 7.789964154113179 9.273324722933058 -0.8019026505250383 -2.1268479024742595 0.2976851522271583
Ni 7.033168111094444 0.8937825769009947 0.2806074520843501 0.08585839052671665 -0.3815748490632783 -1.4582158132113145
Ni 2.2195263405756314 6.8283342321767835 8.911065625876093 1.4955034939181793 1.8455964703230925 2.0567809704538447
Ni 0.27669451556788016 4.868043357013824 1.2693724802947897 0.16493215403143208 0.3122391387819332 -0.3025777044327692
Ni 6.644301228189297 2.2472425941010123 7.335085512153311 -0.23178083622486534 0.7830559501321804 -0.7679705165539676
Ni 4.120635077285942 4.411765217591547 0.4534618104350198 -1.8631542767011977 1.3092777206152935 0.16566954641808887
Ni 6.456272266649435 5.92275719426275 5.068623092080633 -0.4993899950022496 0.012903595435545518 -1.1997579819158952
Ni 5.252348644539546 3.0832735488603458 9.49514050912924 0.1685440397524065 -1.004192162159006 -0.03803407195458611
P 0.3706150274729949 5.882396198345605 12.277871521778076 -0.029310576038659195 -1.0848754362426865 0.03787132112447671
P 4.183156303556329 6.347532955994723 12.648796737736872 -1.7766042594240952 0.7892965317252536 -0.40874421038921865
P 2.400211133554621 8.761958020751628 1.2493853939803048 0.5659957079469413 0.8927980892550302 0.29515390116487233
P 6.9456767117170894 8.079616337515853 5.759866272539818 -1.5976331108010937 0.44430616665422834 -0.8609243804748851
P 5.015209547144805 1.3773372320540753 12.774499709288586 -0.4947211287716705 -0.9333688115885408 -0.4201313691802377
P 4.339500423590711 6.51920403650397 8.027650642953452 -0.26538746853571715 -0.10425797607982688 -0.505039222868227
P 5.067093132990375 1.113594910406532 3.657067508447346 0.8129799913851224 1.0673700803690715 -0.973286216608769
P 0.4246088073410864 5.664725990030245 3.498396974769458 0.20280810314159908 0.15447650591574685 -0.5625805116178053
Ni 0.8837789982339176 0.24915251498599322 4.674824212251253 0.01536954047753482 0.10447960517232972 -0.5728582393947296
Ni 2.063090988633661 6.336721974945488 4.718795254751674 -0.4726240397623151 1.0026129905973444 0.06442927411866324
Ni 6.281763873814186 6.1076569013723265 9.058840332830687 0.09002383475831593 -0.45840661061135246 0.6557094676640063
Ni 9.080065436131148 2.7553404570335465 10.04312222510223 -0.49194870823285597 0.12759716502639962 -0.2737965185350188
Ni 2.475021297777176 5.588155049991232 6.994150048857001 -0.2501639667177434 0.038515125356062704 -0.9031652914219671
Ni 0.7614306239242316 0.17252318652612347 8.633169586085272 1.6010935585458685 0.9749078113725919 -0.08982894513869046
Ni 1.6855459854602448 1.0286306348693786 11.240980749995636 1.638610324544404 1.482312963369834 -0.20108829223701494
Ni 4.064837642604826 7.198416465309461 1.362083257105281 0.6624637556687042 0.3934196642170063 0.38761668438198404
Ni 6.0327737516237 8.257427325405803 7.860233706295057 -0.8394965496184124 0.6877762662915639 -0.2030227902555665
Ni 5.664908453845422 2.9628474308435493 4.787547620310354 0.1836983788953417 0.47941303765969046 0.37068828405776155
Ni 0.6449064945949944 7.611040136950649 6.498991607377742 0.9930664845594898 0.5370630840729912 0.45625511148598846
Ni 5.5531219974772545 4.801015274508567 7.174358611278378 -0.6293654304528387 -0.46126079223069594 -0.35748798331740367
Ni 1.1094164890389795 7.729897066156924 11.29237533281653 -0.3555599130567554 -0.38084825530989896 -1.002800681128118
Ni 4.662069079251308 0.7688943062840453 10.685681322714974 0.15474544330641735 -0.4804335085044048 -1.1733481244637987
Ni 8.461960139028422 7.334589210576031 4.425756542939317 0.5541755753835618 1.386323912167019 1.7307794877804965
Ni 7.606332570519084 6.555705922730121 7.097807742259035 0.6249256495139303 0.09372905152404502 -0.029628364389394132
Ni 2.3051748554196987 5.733378000490578 2.140867102171918 0.4461267648027349 -0.8611025579239621 0.5940564707388994
Ni 2.7578584576829885 5.562035354848649 11.005572321887847 -0.43252022976289384 -0.8271048608222787 1.4921250643642494
Ni 1.4567363612283315 3.7768458799202644 3.747411729574992 0.0954707168055001 -0.43514815430404413 0.1902870878564529
Ni 1.9638854123219454 1.4913315005858838 2.5888102945169105 -1.1310707038518262 -0.19122502628969001 -1.0484146223124913
Ni 1.4600936954275874 3.662495806948861 8.23356288301881 -1.3450980727480124 0.3724582314739908 -0.9834292185800418
Ni 3.998566784932553 2.671051297612548 6.868808355659337 1.241760551599926 0.6944829888877783 0.3542867027712866
Ni 4.324656992226065 7.174395104041413 5.671017342377547 0.037982649891360395 -1.1464129906358516 0.3334304281475677
Ni 8.15061300800121 7.10139133158911 0.20888457561458895 0.6288139288247429 -0.07687212786770632 -0.06329721739674907
P 0.4901434235191209 6.124562173848472 8.146849691813184 -1.9752674871593852 -0.9037453322951531 -1.8366863123176562
P 8.98698152081862 2.080808225087344 7.890918646093367 -0.28446582532340686 0.2608947228716862 0.47269063133419237
P 2.197904378477161 3.4451996494546138 10.29874673161255 0.22027334980589805 0.5104794200471918 0.8147555952283065
P 3.8504335365811344 6.096827673941574 3.6662536492224307 1.0552288170208473 1.9160020166298484 -0.9009924521403645
P 6.819366135660836 4.248149914522363 10.247805571372368 2.8347404798997244 -0.31361493608353735 -0.7481593953653115
P 6.514177158395844 8.004532477570532 10.189147104069278 -0.025932917815677917 0.6736981909319429 -0.20151149581736263
P 2.6330623312927037 8.662168560231347 5.756019935315887 -1.0864036999617548 0.08814795789184172 0.13800576195423328
P 7.122164836947007 4.464980789287909 1.7347710735186863 0.05491439264969252 -1.661740482803964 -1.161034340093452
Ni 2.7864596607119774 1.8410872647078482 0.007741027358882718 -0.19540923957436668 -0.8689511074341034 1.1498189309936067
Ni 1.9363333762302235 1.5462439857633912 6.756071262814099 -1.0483346610041753 -0.7134525880117454 -0.7673997316521622
Ni 7.266840396000823 0.8156953625578609 9.222718383793728 -0.32546000834758143 0.2868978318036672 0.8531107979677373
Ni 2.6169598996033367 1.697990017655314 8.978844546980802 1.8495842513262468 -0.24860407842979118 1.213417995901491
Ni 6.710389622046394 2.064222264287758 2.4942465976632966 -1.0189531225182646 0.5793248209556797 -0.20664007529317963
Ni 4.432274150417439 7.0833547834588675 10.266846582805162 -0.3220589530858325 1.3764562753443197 0.11743667955363
Ni 7.520811780345641 6.230993317241196 11.251809977426388 0.37732867219241467 0.04667657812093252 -0.21755363688188986
Ni 7.8932204271218245 4.444252899883806 8.06454391406316 1.1310627334320262 -1.1827953859196276 1.4148593006025503
Ni 3.3171556671541786 8.751293010754535 12.395175683917193 0.8600175523898995 -0.8992731554564125 0.691977191746789
Ni 0.42827906698337104 5.266334495972861 10.098388690081181 -0.034014409272231746 -0.3390668004977387 0.5582654291822192
Ni 8.935271275597469 2.200404132745086 5.579297344083466 0.7424266066465923 2.452551137180899 0.3613384674117454
Ni 3.9802656642703034 3.0228689028460116 11.690459375345343 -0.45706989407779985 0.38748992899613266 -0.9566756046352813
Ni 0.9018730224659413 3.602903124912064 12.278352313931066 0.7138020009313641 -0.0018591646959258304 0.07560200290603108
Ni 3.5174188275016562 8.708459630141743 7.715583692175367 -0.2730660681268975 -0.28942831153500476 0.9195398761252487
Ni 5.966986423061646 7.9775369561151 3.4808786238743172 -0.6400421934403945 0.3115691092981021 0.4336849394949563
Ni 3.424827564490106 8.868042482895516 3.7723280758564828 -1.0639803379612323 -1.2107895571397083 -1.775430036610336
Ni 3.6316502989931947 4.4898871000595655 8.831910998214173 -0.059596114396078 0.8237997077084457 0.34283320951870633
Ni 5.446216448165072 4.949048167761637 11.623629266079552 -0.823026576987847 -0.43447709637894844 -0.2065076634803734
Ni 7.984479704282583 9.049238174557 2.166864546558332 1.2119398686940674 0.022167537235974727 1.6137552131739368
Ni 4.947296515135939 0.4644981342959985 1.4605462056892264 -1.027837826602404 -0.39531688123971914 0.3204260454680998
Ni 6.076254878780372 5.844507587124109 0.42338903673662837 -0.07616044651266238 0.6202123031986608 0.9349754939540286
Ni 8.02149248919123 8.757606258759658 11.647183519980747 0.040051102384614894 0.6456088888948945 -0.4873266360798123
Ni 0.10401076088440095 5.122397915370513 5.789642542538547 0.5412593815425258 -0.6809034504311304 -0.1367379509854032
Ni 7.742186004109092 6.380239594865194 2.5974499561655393 -1.330042721076787 -0.556149668390797 -1.785442940761648
P 8.824588725311122 1.8318272260876172 3.233359160034158 0.8685728981590782 -0.6298128024029024 0.32440714160303485
P 2.1792018374215223 3.5824489312307266 1.0746489213760848 -0.6682916752043909 0.2997345785570193 1.1033642390754934
P 4.849651004443986 1.292902101580935 8.317938712752017 0.893193782031552 -0.7173470379701452 -0.33150647165197744
P 9.03554426522797 1.576441747175179 11.864351952804368 -4.065717567730901 0.4819219201244733 2.4547715418709855
P 6.440680733642564 7.912497729195271 1.2546385272192497 -1.0727066620906365 0.012228680855707972 0.06970054981993158
P 2.175105524770799 3.6572408490717643 5.99628919945999 -0.951196069577949 -0.518137707923398 -0.6318578578573892
P 7.273582433971613 4.1453954170054566 5.972441178816361 -0.22194559530199842 -1.085058241677454 -0.30601989734509877
P 2.6916697087275447 8.739505848294103 10.12221025347161 0.7672565212060787 -1.2784694769851852 -1.2911488722250666
