# total energy = -381163.18679842213 ev
CRYSTAL
PRIMVEC
9.35906383837236 0.00000000000000 0.00000000000000

0.00000000000000 9.35906383837236 0.00000000000000

0.00000000000000 0.00000000000000 13.69793595613932

PRIMCOORD
 96 1
Ni 2.461976542443586 7.552811089701458 0.942221852272881 0.06119842588619138 -0.11155810928566592 -0.6715474631375273
Ni 6.933053900638155 5.84814189348915 8.406778844399149 0.6088146028846806 -0.04285283349946813 -0.6407132513654901
Ni 0.698472529056293 3.0444472222766232 13.26735422265843 -0.9514426383711162 0.32204661179065824 -0.09339275123054884
Ni 8.403971125330605 7.267696577354366 3.1609357428050933 -1.0973959373072004 -0.20040540723737743 0.5295940293894557
Ni 4.70391214148537 2.7039270536435938 10.825999440866946 0.7944914456626316 0.25546943809105677 -1.812604588778104
Ni 1.7412069803576282 5.403876505273416 13.157126915652814 -0.8838586206735551 -0.2602118378720486 0.8884704084139539
Ni 5.319972500441756 7.586447564142616 11.640478498678274 -0.04020125480923399 1.0817137506852532 0.8804675927141353
Ni 4.163257757646517 1.273281879457629 5.964902762767269 -1.7151914035342524 0.48334502572424504 -2.4295847581927124
Ni 2.171695827010373 7.17401235110061 8.499637601246752 -2.088152799896907 -1.469265900377889 -0.1903102277849045
Ni 4.744109319483361 8.318017485578906 0.3200153962754517 1.2214786614224382 -0.9217461397479481 -0.6002656848734049
Ni 5.708532742337576 6.116110601391 2.6962198648004403 0.0011109736759916352 0.5335085339525134 0.15044398771758608
Ni 9.37619064813181 9.022801767101287 1.9477914621702543 -0.3468919529691123 0.1990571207395991 0.9152031964231078
Ni 2.8653053866399474 2.5030909086706337 7.320574350572257 0.978079010011722 0.71247402614856 1.0129087160963974
Ni 8.104630836369555 7.787367940687633 6.399606931648255 -0.2377223985202809 -1.23754574218763 -0.6774460880101494
Ni 2.7471097729178022 3.4353940253807047 11.941202993140115 -0.17253979117536092 0.24241131935551802 0.01485969072065183
Ni 5.441911739588627 2.643954174339491 8.253677667216863 -0.6500522693782289 -0.10419961203806571 -0.49591334930755876
Ni 3.91465295225406 0.17969495629317908 11.344178033562102 -0.8800806416883618 -0.27588682540514425 -1.6213291688664528
Ni 3.202802577742511 5.553331391292019 1.870014836252514 0.5940634127174349 -0.6565052240924242 -0.5018176306071357
Ni 5.106445465278977 1.02709171246412 1.280098085449698 -0.9185952528237923 1.1696022842681213 0.7918882037118298
Ni 0.5607922809048078 3.0525521713211536 10.550314185058381 0.4599245899177757 3.3144512513054916 0.19070103546541994
Ni 1.7041076523985987 6.1202005121675125 6.4200171774638575 0.7815521118931443 -0.009599213652660888 -1.4483977986796281
Ni 5.692219894549334 4.498724031956168 6.4007852377506875 0.1381425446424137 -0.6282120335746858 0.7361847395019386
Ni 2.0828315184909516 1.8314002759028267 4.008385845638336 0.6367666080129163 1.5726296467782206 1.5960590814457545
Ni 1.6288701404251784 8.88230350491134 10.420759475891261 -0.40862002610652853 -1.2958511627967426 -2.247226438265033
P 4.890616100479991 7.023060014912118 7.233304826483769 0.8189161543638994 0.93796594404092 -1.6617749355863252
Ni 5.616682892541936 0.5226868536128834 9.784229909018832 -0.9887583441024391 1.860235817502822 -0.828040999483303
P 6.587068038885027 -0.01731520349571151 12.027129491607482 0.4210754782610619 0.805445116460658 0.8090991682734776
Ni 5.609532567980711 0.33330245881415865 7.154815039922619 1.679947492730294 -1.319126331274599 1.8019167700469547
P 3.826013261260123 4.284719684551735 0.03073984426877707 -0.31116904564620607 0.4582963102857333 -0.10235484551984309
P 7.923776292101067 4.427744893903372 10.1508964935245 0.2539252335323885 -1.2725130022914344 -0.38559039798057465
P 9.180735964706892 7.87420133241414 9.285269217441503 0.8667132192425203 -0.23824330402075747 -0.7741100537928023
Ni 3.736072660431093 5.328348862329579 7.698527029827116 -0.4744279257402732 -0.9804410824859955 -0.22935551461282433
Ni 0.900315709268504 2.1409700213369383 2.1078791803014334 -0.49198573211837854 -1.0833672271282762 -3.112451760108117
Ni 1.502307523878772 1.2576709614365238 11.878109802044506 0.21421145988253432 0.0005802979835022264 1.6184716448129997
Ni 7.325778925818981 5.536475717817193 0.9645057826135595 0.4843541837150497 -0.8456869946998404 0.1467652533144182
Ni 7.786394598077204 2.5314863075171763 2.505626278989529 -0.2764123588913111 0.5654169526253359 1.7652703224685147
Ni 0.658940780477548 8.159353281015479 4.968624831174065 -0.3792477435919985 -0.21606265415866013 -0.056295846378251434
Ni 5.351746521234114 8.327413985394967 4.778086463838169 -0.04223833984392081 0.06514789745224263 2.235098544653247
Ni 7.265225784574047 0.42244847514679024 5.378001502244071 0.5711320007322422 -0.8662573626520242 1.4681544124812649
Ni 1.3257019944673476 0.09570859170217536 7.9161187062947915 0.2064197317522574 -0.3164045830135325 -0.684467513633305
Ni 2.098554745274799 4.533633339041732 3.7267566485616634 -0.869803942352702 0.1309318858265874 0.03940421282923536
Ni 3.9814766660854097 5.947656816341915 5.346975270630302 0.7296754776285111 0.5208875027543932 0.9321745341701236
Ni 8.846514445850966 0.10461280477488491 12.66119388113773 -0.32557570798983926 -0.31548155697863084 -0.06058418934096017
Ni 4.949016657105709 8.37092427189384 2.6346194443429383 0.3245256694587701 1.051429497879415 -1.4480524995250674
Ni 4.1351618488339525 2.2419262399782225 3.0778712459749284 1.2367304453751862 -0.008291550584830882 0.6365136114618458
Ni 0.15888507846348632 7.2982164836294405 0.30489863681041024 0.546648156658265 -0.6964509112474264 0.1415356294843627
Ni 0.9823553886386505 3.732366471260615 6.160468819048573 0.04422091749158835 0.8720107201960337 -2.806089134711619
Ni 9.188447833081828 6.126199671910635 7.675199563899295 0.14565479385905883 0.7165564237480497 0.9745195747952377
Ni 9.274888144138739 5.818454943871077 4.732376797402271 0.4412774071302336 -0.5087786353060012 1.5678363391546353
Ni 3.5262424553752303 3.7341821295916064 5.355112040490943 0.4389834688897343 -1.2948103802370539 0.22811341467560714
Ni 9.26792500084875 7.006120109865235 11.389737954981012 -0.6950766566077191 1.4813469999121394 -0.1172171073436562
Ni 1.3777383878710319 6.9038442632617345 2.998820851506425 0.7190118272670779 -0.2279465500804397 -0.1636671712760794
Ni 3.601498685475774 8.900722142000989 8.623548795086096 1.1366849647148103 2.2675690064771272 -0.5513913277702052
Ni 8.233570655060662 0.08976465043406748 7.958473148443779 -0.6428261839434348 0.8203356604192452 0.024669991942854286
Ni 8.06482673904116 4.080196068535421 7.05877888099578 0.46935745319590133 0.857762952027768 -0.00697565998688476
Ni 5.833345213997923 3.9248730496635607 12.75555851131243 0.5238872088126656 0.5223435184746293 -0.04942020230434069
P 6.95433641117772 7.879947797441094 1.693571218640709 -0.14161379102046578 0.09987038853509252 -1.3335306796253872
Ni 5.290276191760122 6.1083893739525035 0.09211190357537036 -0.6650289452927192 -0.4222083063139245 0.23256733668190271
P 6.273183765148919 1.2056532861599634 3.788944818210847 -1.387683768629023 0.8228553415173054 -1.798297942347445
Ni 5.805099560168369 4.194020999574199 3.977045149488891 -0.6237941070126483 -0.9954632669264404 1.2533333440391898
P 7.2455530329671145 3.241801795604588 0.6450509942454603 0.3692538656040802 0.3314823032822614 -2.217388528967994
P 1.244090960208332 0.48709059126188126 0.5359477107736172 -0.3095428228966927 0.1674029841694278 -2.5843649113918072
P 7.259788168644634 2.138283970094698 6.967482151856643 -1.2637493971661913 -1.7051219351133924 0.4897393592863631
Ni 5.170976208537682 4.913021698646974 9.539132880649342 0.1071008448452607 -1.23674150111878 0.976237585927609
Ni 7.284402505812203 0.835719452564866 1.179612627705573 0.7275370911292696 -1.4517960257278997 -1.076486440848043
Ni 2.538655350205526 1.654308075186188 9.788942197522205 0.4298169718991179 0.680536296899699 -0.928102163872963
Ni 7.851683425484416 2.3661958859519845 11.491280051001267 -0.9332466841883797 -0.11247625022456113 0.6561344710165667
Ni 7.4977423597037465 7.062733085350646 13.018490171205311 -1.3292860454164204 1.8480343903406236 -0.3446864606773612
Ni 2.6724899591394613 2.270321638824765 0.7406538285293872 1.457731160265412 3.3306587143032904 0.3380363023506952
Ni 6.799490704547512 6.054453090645772 10.933143872335302 0.3647418366663395 -0.1451410874474339 -0.5111039410050682
Ni 7.966584648832803 4.867302673147514 3.1395671288807603 0.0085489180112756 -0.5006359515942087 0.5418808171766086
Ni 3.3446017497675498 0.5365073827746136 13.438030785303445 -1.142892636187419 -1.4494992592739229 -0.9395649130969238
Ni 2.0777121107226395 7.835969557764131 12.28378777119488 -0.06415879406609597 -0.33836668910692047 1.4596363477079248
Ni 7.255323895325648 8.568962056861817 10.113390982206889 2.0349253080313336 -1.5805779550910197 0.5450029077453582
Ni 2.9961170180434173 9.128839957256636 3.8775433293251123 0.5882768879426449 -2.340717919856975 5.131984387733464
Ni 0.7302166008452526 2.319157232490309 7.81617888195632 -2.2046934499988287 -0.48460075250821694 1.7200063084243926
Ni 1.3522442987286512 5.505759271207321 10.671417659829181 1.2813334287965417 -0.9094364691426595 -0.41355037352861035
Ni 9.38274199262508 1.1049778394255336 9.949029915653384 -0.4933710425016793 -3.0090936701347406 -0.27290074619362675
Ni 9.146790641168195 1.2380450051474006 4.048288213134129 1.0628169137807502 -3.2414787156025078 -0.19896481813610895
Ni 7.857626430846168 2.6490829411713657 5.0138281722712685 -1.1913185928992904 3.149801918621801 -0.04945002710101161
Ni 0.2170731843463506 4.913452215570817 1.257630717463208 0.545430225090764 -0.27744105726614154 0.4658170441428106
Ni 6.598439301112631 6.246117353328153 5.135780514107126 0.820129200835394 0.036993546505213706 -0.20471663301822166
Ni 1.5728374268806 4.554691232055813 8.23156875136479 0.3194168874772951 -0.48451333500073335 1.602822368311517
Ni 3.0461318537177493 8.292373651419538 6.1544958646834225 0.17106243529888604 -0.4011347734730769 0.8568278418080082
Ni 3.6000573896872545 6.101313921899773 12.113961011521278 0.4990706639896179 -0.7337270219900653 -1.1515335996918685
Ni 2.852043593572857 0.20151654889390386 1.9846530699148135 -0.4329192649735254 1.749369077857226 -3.4445290166619
Ni 8.396427720099783 4.881724990096268 12.26909029777741 0.9307653125274228 -0.7507626373161135 0.6862045509290697
Ni 5.423577334071035 3.8383297889074695 1.7245422317794628 -0.37642647209311947 -0.05592637885397465 -1.0917598220673455
P 3.3854540622148668 7.457264409798902 10.19801750674552 -0.8155518658773567 -0.43988695454061016 2.965444565986222
Ni 7.780311206762025 2.374609684094055 9.00662556164105 -0.42261814015783344 1.277221206400381 0.49056956849714217
P 1.5477364184078155 0.5901937790842455 5.648892109789918 0.5474570257128055 0.1544605650761469 1.116325941442484
Ni 5.246831418706182 7.263821925039775 9.302158583545152 1.265698293362446 0.4961671171895777 -0.27749350777063175
P 3.6809384169884485 6.924340612462107 3.599324575010365 -1.0290290186970277 0.533493621554178 -1.3656884953048543
P 0.32602765870756084 3.29413767904225 3.585023925887913 -1.2804669670311881 3.230852346236913 2.4787401368714406
P 3.4033392326814926 3.700948094883606 9.499340014197223 -1.5509434200540386 0.27363762435965133 -1.0024679803790477
Ni 5.204275756690616 1.6778461200441495 12.632017000483776 1.4665143057746808 -1.5333593884236882 1.571334325005565
