# total energy = -340861.42562704574 ev
CRYSTAL
PRIMVEC
9.35004009942866 0.00000000000000 0.00000000000000
0.00000000000000 9.35004009942866 0.00000000000000
0.00000000000000 0.00000000000000 13.68472880205360
PRIMCOORD
 96 1
Ni 8.976094531014766 1.7349840783084367 9.96821605876828 -0.24209095990162177 -0.45985234191894353 0.5593977430144494
Ni 9.307506699951022 6.463953825321828 9.074439187075944 -1.0666146902602855 -0.9552357868649612 0.27078292851967556
Ni 6.674815928124774 9.24376747705249 7.189395381289024 -0.9316148050119115 -2.1372760397861192 -2.972368289689249
Ni 3.309203568305688 7.137886010752421 1.8371884308948467 -2.5352948933380337 -1.7690547292116112 -1.000269172955516
Ni 0.47270716888868847 3.4823943598194766 2.5926127602328384 2.421167223552979 0.6811528474377753 -2.371505337551477
Ni 2.1120524927212254 5.8656167135504145 3.535558687441752 -1.5078275627011708 -1.264578835046022 -1.0522805330258007
Ni 0.17083738643772028 7.982241375847316 7.040874670399816 1.4372081006113957 1.7063059281191648 -1.5505135316054717
Ni 8.797237615241551 4.419614322512759 0.3735069841645781 -0.41686966770983047 0.0038119175469224667 -1.6640470194499535
Ni 1.8652768861551488 0.7052548195379839 7.060197463130065 0.8139598387998885 -0.4873711161645025 -2.6573659863398813
Ni 9.035588835738745 5.73795126695271 2.3024828880461206 2.06580811365312 -0.5180842289776433 2.033199583589479
Ni 4.501745074154346 1.4134362016060016 6.495593425786305 1.0612112598565273 1.5206663663370519 1.3573131267569656
Ni 6.00760642147723 3.6206534017735015 4.274151074714035 -0.07855979998277439 0.5105591242451917 -0.7309900826748765
Ni 7.647350992019136 8.332091823726786 4.9870850821303465 -0.6784202789979606 -0.8697712893425537 -0.3907889114623786
Ni 2.1865162115365258 9.133848406435629 12.216986706846246 0.5776255788763858 -1.9934122763892121 0.7613486403620758
Ni 1.5919191157779347 2.7851151244288377 4.654641603778556 1.046868875091926 -0.1318752235764632 -0.8548506634769794
Ni 1.7309916112147483 4.617451819551049 0.3462824726032382 -0.789423287111105 -0.14633176532142542 1.246737435989227
Ni 2.9974451835168163 2.2403443920010773 13.653924234072823 -0.4807870351890816 0.06058393223064406 -0.5249369902334184
Ni 9.094232286819805 3.650760530676725 8.514665380412744 0.3273878214979136 -0.04461018251020705 1.6344469371953334
Ni 2.608072116421841 4.749717485844526 11.86002087850238 0.42414486121500494 -0.44678471010170795 0.13827238535205866
Ni 2.0074722949626693 0.4502595927797264 9.310952189702833 -0.7570466705526123 -0.21673191231154285 2.021558914026757
Ni 6.258196844376386 5.081269905381261 13.75109920012599 -0.49327719723629243 0.4586572931695778 -1.2562096371457203
Ni 7.195529007550053 0.5181754785605777 11.080155544520592 0.022017899031987885 -1.8162036189832722 -0.7948616845178569
Ni 5.636952134526432 7.690950228688616 9.226886914778614 -0.5084834726630856 -2.261130449940635 0.34120570121761234
Ni 3.3291004534939046 0.6873382728285566 4.769332934827778 -2.2829956254448422 -0.33616813879370494 -0.8100669315033856
P 3.774536360621093 4.829744478478901 13.797353848164576 1.6750050611233542 0.5274967805407949 -0.2720301706632154
P 1.073365895600062 7.230442057029753 1.1913830358886868 0.4098261305994878 -1.6306424758475788 0.6159663834381134
P 6.922788339814955 8.849579139341005 0.4215072846771483 -0.09527814117871979 0.049910511677197913 0.11095312871181537
P 2.2554073064927205 7.986205792820908 8.012326999658464 0.08420902784875174 0.9292172513140126 0.5108290900771267
P 9.566867460400246 1.6234474507660306 7.904052601083244 -1.4565458817080592 0.2555699682246631 0.2718028851437577
P 1.5099286147368283 4.997110195052718 10.009626451066257 -0.1721708378717164 0.05552143010607212 -1.338651031571088
P 3.6200456491714177 7.350505921081395 10.86838461782653 0.48817972810872695 0.8986566049183362 -0.3402119698457754
P 2.960016973268493 1.5284790941604292 11.568699811215579 0.9124194630303835 2.241984216029487 -1.0239235791496624
Ni 7.524809367358999 9.485054610119748 2.346287825596307 0.6788722789337147 -0.8887100352285855 1.4547270833317656
Ni 5.091919600977774 5.840642756624791 11.181490343384022 0.9806693964467174 -0.571605597934551 -0.16513090030579947
Ni 2.351647268542682 8.417523139499691 3.4190609286583364 -0.806704699899372 1.17294291860558 0.11569295738964591
Ni 3.0248034006506144 1.8798535985651255 2.292041698342323 0.4168912649763853 -0.7100322494762868 1.353331002180766
Ni 7.356648897382455 4.155485041647186 2.023041046620047 -1.5303910498239834 0.41857173800260167 2.0807233402020553
Ni 3.7615678550966303 3.8388085358014514 10.100068453292339 1.1704684889231582 -0.3308912066654817 -2.281480988572529
Ni 7.608221074484978 4.84264753372314 9.933347889480734 1.1388783728217031 1.808031110474809 1.7606276814901807
Ni 7.980100216679975 2.239474838278096 1.0854442773134731 0.8093552501483415 -1.597449276925062 -0.32035636857242894
Ni 7.138989315476205 2.070744015859598 7.956260419610239 1.5647528151333052 -0.2529255886232805 -1.3105871834553364
Ni 7.126778163194338 5.772069563029685 4.942882767878798 0.9932240931832765 0.20448214840991236 -1.4636704085679824
Ni 4.9881061065018475 7.330655786093338 0.4721358814427298 2.1245020279499025 0.4851867069186741 -0.3241785705319965
Ni 5.779063392973665 1.5282172930395315 1.8173598009988639 -1.2594325149583923 -1.7217698280827185 -0.040858942997890925
Ni 3.978638384480862 4.661013656060403 6.842473365947592 -1.1196231241365169 -0.6196996252283005 0.8614383439968261
Ni 6.3159520416544 3.124895579193783 9.65386490787852 -1.5340738979922095 -2.2153139058271525 1.9842756041952667
Ni 4.90270284084904 7.71360537568629 3.2596062809556425 0.172499939076361 1.6464958979400677 1.6012293127927844
Ni 9.377342148950454 7.911919724766216 3.1466662124044245 -0.3972927740191674 1.320197967072223 -0.6801596302865704
Ni 1.7088039662186776 2.747771064540802 10.229198116159063 0.2504298187846203 0.47198872017116134 -0.10898160680774134
Ni 1.4951368514061143 3.304650098810076 6.8589228913759905 0.6314878761124803 -0.19631041123239737 1.2353798448845628
Ni 4.938064692250279 3.232869841483976 12.00186285579669 -0.10228928238923028 -0.05590683846994888 1.1227218176664988
Ni 4.998381800497078 3.51945791850655 1.3290240401965923 0.9935799338607986 -0.42556796681477677 -1.439326175395663
Ni 8.875796651590893 5.005067079119998 6.821481591071621 -0.8363942565440047 0.8379600583692279 -1.4841489881373084
Ni 4.962243895773178 0.6643390443577032 12.188659825565127 -0.16872401697369652 0.1735566624756495 0.6114258152552825
Ni 7.7325392067512055 6.816609285210917 0.9693055600672885 -1.5393647140775037 0.9529531614783718 -1.3029132118498463
Ni 3.4840773670252467 6.061752503302872 8.977975759069217 1.314589105525878 -0.08961142981124567 1.9818857638068512
P 5.052079080401181 8.839200594905423 5.453186447736387 0.10020668882858871 -1.7648707730372506 0.9888251927846325
P 7.8342863423800475 6.996550805627851 7.62097078907269 -2.0045639221306573 -0.39877732898449386 -0.06283673282056275
P 6.236607601942366 0.3341938058457919 9.089191680238523 -0.6569471967258492 1.9025803439073041 2.9804502953664347
P 6.91517740722886 3.1899064075366743 6.142199312734685 0.6194024057028558 1.1602308703555502 0.4309541708273546
P 8.011011449025954 1.900021634914272 3.731538331525673 -1.1861573604133249 -2.4479576042729456 -0.788915494236751
P 3.243603687440777 2.083245019382458 8.36996322587263 0.09289267166567874 0.5488392507723129 -0.12347080156285187
P 5.680916022757163 4.964011053339237 9.040651882416103 -2.1794495878303755 1.2989565411949435 -0.217511985010677
P 7.776101043260558 5.7612328666325325 12.209049457863033 -0.6866285258403658 0.062069258526918906 -0.026315755076393388
Ni 3.260181308417614 4.204591451895547 2.383099868206518 -1.550878628254374 0.6310885837915324 1.0339133433725225
Ni 0.19984308062516704 4.5320298538181785 11.719615067356994 -0.40416096189391043 -1.2061906249151162 -0.7121397827375929
Ni 8.348276743022277 1.0231094304277566 5.8763729996032925 1.1382111715513494 1.3523120739979484 0.06552456406537102
Ni 5.426146131963679 5.480254813629192 2.5365059750124748 0.08794715473494531 1.0129639948143652 0.40422446814199414
Ni 9.201075194266119 8.781033995865997 0.5024926564148088 -1.3341924815791022 1.1968037843835775 -1.1993304074601732
Ni 2.007762146203663 9.245011032376754 1.2300585414772867 -1.0421827824701664 0.7437975188521899 -0.7971407103600208
Ni 7.5561881017065815 2.559367757894857 11.672621766155878 -0.08713494324629509 2.335816625900616 1.6888856757601882
Ni 3.0721052531727904 6.8403957870524685 12.85193109535117 -0.34024719395908504 -0.20095125243851844 0.7648741370168312
Ni 2.725489919144411 7.0957734304480375 5.171554826934806 0.25191771618405645 0.9818816715872637 2.828312721996509
Ni 4.793241922193751 6.085894306665642 5.305747536478889 0.5000304567997259 0.33284498795774287 -2.6630026158003686
Ni 8.52857356496043 3.7608105018540336 4.18997640432144 -1.279120737415939 2.2019418553956207 3.5638418301923203
Ni 5.587378222276468 1.0853993971213192 4.129846296875282 2.241955933894713 -0.061860227839906363 -0.3003950949591536
Ni 6.213326002262545 5.542058578241088 7.001107080135472 0.6187837982822504 -0.2563389851802037 1.655866026301058
Ni 1.4149509080911948 7.303980121881879 10.622920821876953 1.4702388058141196 0.38518622056362056 -0.8121649516829949
Ni 0.6779695327164356 1.7119549297094807 12.324206420905853 -0.35584761950050325 0.08602191268777443 0.3072049187921354
Ni 4.16719129176732 -0.10697567801476882 8.373015078939094 -0.3836844392071134 1.907417103174315 0.04497039406310319
Ni 7.580170954388808 7.474693152787173 10.424410121956353 1.252867460146365 -1.4009966836878451 1.2081446633176933
Ni 8.342320767521857 9.005481706835521 8.94079438987774 1.0139417853466022 0.43503888241968947 -0.36781301939249555
Ni 0.20154104789498856 6.592591676082867 5.031245321201752 -0.15892374305382306 -0.45398894115963107 0.030745765823288987
Ni 6.430620932607546 7.950339039257937 12.341928486782614 -0.5795287094363697 -0.9724745193407509 -0.16235847976698492
Ni 0.4595329624835204 6.669551855586727 12.644935234101478 -0.5162430620038464 0.5827461879324028 1.5499836272439307
Ni 4.127060919949733 7.34030502740642 7.132275051729184 0.9586532971869425 -0.23235110690603855 -1.045139036885013
Ni 0.608488450234218 1.1207612485225582 2.914614113876828 -0.13248226103284283 -0.6362194772601946 0.08845751871246055
Ni 1.6539285812705358 5.985456176641287 7.707540004717496 0.10666658552131952 -1.1093014304955349 -0.49751026148103356
P 4.125265712263578 2.6382727457253847 4.249217322960549 -2.138499113559943 0.4162487462963799 -0.6719297861776106
P 6.932577831728518 7.120438836052604 3.1228413753987403 1.5218123070160372 -0.48812573494233996 0.24078561082663694
P 6.228127115633291 2.2534250980059247 13.530446670405478 -0.4336895674806466 0.5968821131131526 -1.889881665393713
P 0.17369382366751365 8.818695957115121 11.539031199189859 -1.8362808493491216 0.7949647857546245 0.008170708736250443
P 1.7043907473235467 5.19677094989726 5.782454652493291 0.05580707966729098 -1.152952334416266 -1.9436082083828916
P 4.010793172151105 9.278727276732349 1.1132886965289384 1.9982765464600492 0.39770723584876666 0.2296751027357722
P 0.8341900015720415 9.291031929414537 4.96535371908784 0.3149215707101028 -0.5704396026509079 -0.3208101682803959
P 0.7392870952466644 2.4261109873579825 0.7673905105710176 1.7226620008796845 -0.242095330776996 -1.0211426739704155
