# total energy = -340888.13487625157 ev
CRYSTAL
PRIMVEC
9.11056043361388 0.00000000000000 0.00000000000000

0.00000000000000 9.11056043361388 0.00000000000000

0.00000000000000 0.00000000000000 13.33422610415916

PRIMCOORD
 96 1
Ni 6.199535890773445 2.288955405273502 11.274368550165526 1.0617403928871199 -0.738285073674393 0.567326768053539
Ni 5.025257545208165 0.37502255126521755 5.900435283189245 -0.04709489660527373 0.709402843422404 -0.37244820417166175
Ni 2.951557349495155 1.9479653522227514 4.719488918498501 0.8356874602849673 -1.2349471282225184 -0.9366929908657675
Ni 3.633419018312011 4.683957733105268 4.932503841267147 -0.7724066979484504 -0.5992534415588067 -0.004855014099456155
Ni 3.5349156397295407 2.985202648894439 2.519622038734299 -0.9362358487236908 -1.8626943063456436 0.227037408002609
Ni 5.245851543137998 4.216494881175323 2.5843999449863415 1.4474128090585396 2.7186747125516924 0.8101828882559595
Ni 5.070974337080791 4.804982416890834 11.38713542204329 0.49358033029900805 -0.8057991573659672 -0.21245899596780182
Ni 5.761645917763098 7.8573936695406275 12.336572426440192 -0.25067021693020053 0.8210208594117279 1.2532865499616543
Ni 1.7122751557809721 6.56680991045483 0.20777361739512673 1.0731933719190678 -0.17103106784031835 0.07370221478015694
Ni 2.928799169722771 1.6572655923439616 -0.05303986028777542 -1.726921033266355 -0.4571596255781288 2.910252494195111
Ni 8.26190254940205 8.949977620382542 6.819216163040073 -0.2056985373155167 -0.7895852666102661 -0.4901615344254462
Ni 8.585628090575833 2.3022659339554283 1.6474972495289295 1.2693780562068782 0.721543592549996 -1.1884777810163853
Ni 7.296210483215762 0.4930635265337878 4.729316479955855 -0.6284223498132789 0.1849019122851396 -0.234979288557505
Ni 1.0405170984002938 7.466031328274701 2.523955932296238 0.24546501858017725 0.20224014645327107 -0.5938032170775128
Ni 7.913970249359083 3.9210394087900537 3.447631005170974 -0.5708365809790105 0.24017728781867667 0.8340848916845378
Ni 7.6658988013918155 3.9904436575915025 12.443473008503933 0.12107067676179151 -0.6877284437727639 0.12001163936965784
Ni 8.547172415307925 7.537121030742239 9.020484246987218 -0.9501059218375638 0.1500629502290835 0.9029184655184836
Ni 6.93641623358767 1.0367726580934684 0.38802240983896225 -0.5062998347482055 -1.0502632454854557 -0.8623438865302311
Ni 2.072124068771208 6.590898232039372 9.174747899180135 -0.38745727598598434 1.260465584208597 -0.34401694541416233
Ni 0.044381183724255244 4.850425891952743 1.1326931928146617 0.38302649390814036 -0.43401378358928483 0.08842178037851868
Ni 6.7511438781628526 1.9216540539110445 7.1842544512097914 -1.2530325249693195 0.1284245460237014 0.18005075484042538
Ni 3.396899760877723 4.188352360231811 13.396896794113161 -0.31382576654276273 1.3384877665203463 -0.27226876903658265
Ni 6.006865760338549 5.694100223274527 4.640136848842983 1.0135489207835577 0.21124055017966845 -0.15276080877622078
Ni 5.349001307502661 3.191556840985908 9.178427654508424 0.18674127948672356 -0.35306542876967584 -0.7112077578416268
P 0.12288232704240717 5.565613990556382 12.23752605846043 0.9460680043227643 -0.38297507184491464 0.05696176209702447
P 3.997367683463004 6.290349956414405 12.646259505159506 -0.7574091960983537 -0.24712338011920668 0.1428335223601798
P 2.284536783500241 8.720464383862971 1.1898665143365168 0.9204389909007502 -0.16585929383139178 0.4213554713953259
P 6.431235661778754 7.832558282006793 5.6978483078054944 0.7749055531109041 -1.3912838272754555 -0.2900674877809004
P 4.8637728628760994 1.172009816036328 12.662087281668137 1.118015927550397 -0.8763252884109874 0.12232511799418289
P 4.159863637994723 6.468370305794861 7.997108667899069 0.42855533157787484 0.37484215832513507 -0.1571378547979939
P 5.432900457832478 1.119924742473991 3.7387972257400546 -2.980815649125654 -1.5609961763043503 2.047515485991519
P 0.3584431535271136 5.51885859480303 3.3459708174247202 0.12552125633397737 0.28265782558039065 0.684207575103699
Ni 0.9501312290961234 0.01997763675135421 4.839190748920196 0.028455427127215507 0.64267243197439 -0.5152637288097126
Ni 1.80389095073337 6.6945672983443965 4.668486179506605 1.4646363720256776 -1.2244043197096655 -1.1081758015315237
Ni 6.133630097149176 6.01260541336361 9.089168761520444 -0.8187947982946867 -0.23189833563933612 -0.37491697742712854
Ni 8.904060396182057 2.4649532102546496 9.958106676712852 -0.4564217189708398 0.6140467978178973 0.2665395798622893
Ni 2.3972890784814336 5.535503588575706 7.053645457928409 -0.08586404695367147 -0.6240188214289446 -1.0725907053380626
Ni 1.2481923217435622 8.839475633809588 8.44067178684387 0.8708987180787775 1.1998137748544948 0.7971682211638464
Ni 1.5334712982097947 1.412382840501728 11.275008111502606 0.3591167771700783 -1.147113616247302 -0.5631232714951527
Ni 4.1865758009621485 7.15434994789319 1.3441565871544705 -0.43345688264455023 0.3586727476541242 0.4370266022736796
Ni 6.107072813707823 8.334431720406032 8.021830173428437 -0.7655199981309462 -0.5515594779169534 -0.982379951379921
Ni 5.11031373670335 2.728375952423865 5.163372729167876 1.512986481194291 0.8319884141668251 0.009500740401583638
Ni 0.9091911040187973 7.439300944186561 6.5389844370117505 0.08379276624693957 -0.4615685532791019 1.6736369771312338
Ni 5.192709644574221 4.82750372209393 6.8515786955410585 1.2151149239879397 0.5953913875002391 0.44225545477278677
Ni 0.8753317064511178 7.391634492397485 11.250833239594671 -0.40824978725130334 0.6939841948744887 -0.27455627951917877
Ni 4.764531528904692 0.28785088765508104 10.61376364077418 0.12147819661285529 0.7978631903483421 -0.7620235549419134
Ni 8.513162693494351 7.298834324598646 4.436976819212763 -0.7917771320552622 -0.3747974211301287 0.9741614201248707
Ni 7.647659459556622 6.453602087455776 6.884060576382723 -1.402283777930385 -0.21959432146100247 -0.6449774259584827
Ni 2.3968699927050006 5.222346297416322 2.3296623000056824 -0.3333216704838453 0.5196736849519501 0.5170192780482387
Ni 2.4949087327092516 5.401223039470356 11.189975607464348 -0.49496589779262495 -0.46938933487510126 1.6531859083657334
Ni 1.1341007743898552 3.1537480155033655 3.7478513006230787 -0.6580237176194796 1.540898891333843 -1.2189016447238814
Ni 1.618600374187838 1.2992205703044595 2.4316960207265836 0.5105974336822949 -1.0481431138186594 -0.610685080434516
Ni 0.9726889765406477 3.517760454576859 7.78310798249977 -0.7887213759480739 0.23335846512463035 0.9600931149572627
Ni 3.5937880807580203 3.2803119199861324 7.188001624684724 -0.604220812866411 -0.8606670130484402 -0.3969050516624455
Ni 4.254148827131792 7.138570457354452 5.622083065762621 -0.41142972764118174 -0.4993097765836175 0.18659498371684638
Ni 0.39717032349366616 0.26113325835144124 0.21028357677354612 0.32227569708232884 0.10722348646605404 0.1379309428522399
P 0.06456016385950444 5.718033665332994 8.13887809761807 2.064024539390136 -0.27462698485611414 -0.9833428295138226
P 8.861459415951607 1.335161730913768 8.07024733539095 1.1707433398510998 1.8891247326230303 0.11327766307993394
P 1.9907849859017759 3.5457389854339403 9.853806248575069 0.15310482237920087 -0.5732966124837288 1.018268180636098
P 4.143145759739189 6.0874122244569016 3.3994279413768567 0.3163469903027197 1.22580865625636 -0.1427946987024444
P 7.0281777975057835 4.021073361512541 10.239258569337254 -0.0027292260057049773 1.4173255027548557 0.6686184624161905
P 6.54239360869743 7.904713920036128 10.151173116523287 -0.34414987144760084 0.9317297333232213 0.20180023070237502
P 2.9158439528947766 8.893710799616233 5.862179129193162 -1.8361538368529537 0.021412918458137316 -1.493589564724918
P 7.037734775320526 4.165175094682994 1.3079129559413012 0.5500800651579494 -0.3244104840371445 0.8116340188801893
Ni 5.36807882089072 3.0528303384262263 0.4353508598387844 0.09835909409688867 -0.31883864637632187 -0.8877625837136517
Ni 1.910557391395927 1.5200605533639386 6.75823918256907 -0.9811453076418715 -0.970310936030529 1.3233318847155144
Ni 7.185754049444593 0.7873492029691869 9.296102385250634 -0.34190401283621763 0.3327974225492591 1.3872104285370304
Ni 3.2299396317709568 1.9159417325670556 9.194789309853991 -1.212148642270764 -1.446331917289535 0.4131693360401078
Ni 6.405735203338841 2.133583908941144 2.4141745910475407 1.5508590878703483 1.4107730463483186 -0.8770207718161153
Ni 4.189892044932185 7.0812650327074165 10.624004821671752 0.09898412927539726 -0.35679481390512097 -1.345675028297405
Ni 8.447803533491516 7.175832649215559 13.259767372784102 -1.1042011331544919 1.0484351911377814 1.276329290713731
Ni 7.476089386909093 4.206218169092357 8.149238626856322 0.8892507382234041 -0.5151027777518161 -1.0505548085839456
Ni 2.9340377419281833 8.462025118209166 12.420338562588794 1.028971425986215 -0.37311926209675744 1.020673704753797
Ni 0.33160799799486534 4.884936694585965 10.150813249389177 -1.2372060994600242 0.31917160423570834 -0.3088473394915649
Ni 8.44947076603689 2.2928820567874717 5.8414708255011565 2.6661589020411633 1.0247033947384805 -1.1795118300723493
Ni 3.7367054410820324 2.6669434439350006 11.500036219158307 0.17779846847113895 1.4670390679298992 -2.0340825004150647
Ni 1.0614531661012296 3.5503762606557756 12.340332354699626 0.16646453151555848 -0.26067849309582203 0.3452366767538764
Ni 3.6859049565300666 8.63100779171524 7.818443290845322 -0.9147424547366053 -0.3154633021461858 1.6160563505032877
Ni 5.885203337327977 8.050792644804103 3.348064424194814 -0.6966465721980003 -0.8491304731637505 0.3234537765508301
Ni 3.238248462816759 8.539811082539275 3.596720770137016 0.2340506060956485 -0.1336953075043375 -0.27613133731578254
Ni 3.731421316074834 4.810712959355538 9.27590062871449 0.009825727841170175 -0.43866953719374124 -0.41121786874069177
Ni 7.238048665895146 6.236552097504908 11.245779611764512 1.0431088938288615 -1.240633122863702 0.26031622466039683
Ni 8.162788763275644 8.71479761532077 2.479792490964521 0.06608712143706037 1.3693232638439643 -0.6670117800507029
Ni 4.741317821114446 0.48840894124727424 1.7492366991502917 -0.7393140291595396 0.21352728933131615 -1.1294820192084678
Ni 5.915177080903294 5.71362415412009 0.2460097281584241 0.6459431323058618 0.16342934423366048 0.398473681701146
Ni 7.859571093466007 9.048207682154297 11.67330176708832 -0.21694968474930376 -1.7578020391159277 -1.16540572968827
Ni 0.19397658479012359 4.9936530113289015 5.793028153969645 -0.5339124542591515 -0.43583952394411396 -0.5777554195860307
Ni 7.50547094406119 6.270261170826693 2.458031006495219 -0.38283957470831487 -0.8086692798249104 -0.7218559815840923
P 8.830319520650564 1.4756374610620402 3.619615608314758 0.02992866923863233 0.18306691595892988 -0.07412001904386589
P 1.8430663602694988 3.358352980006244 1.287232894986404 -1.2652056699967436 -0.9679720034847071 -0.3785651157026771
P 4.871516839179753 1.374564904458828 8.021896680519047 0.9010446455345387 -0.16240295985167513 -0.34099615630996755
P 8.555144155620509 1.763494726109371 12.192002410467378 0.572631210985588 2.0462939548795918 0.5887101188253216
P 6.671025610381291 7.852100433973071 1.1180789429456144 -1.0080994676332122 0.2461126794665052 0.004659610259198426
P 1.7462393247927601 3.4487844021122007 5.683047291449124 1.351461553072195 0.6578236857935316 2.164813840195072
P 7.010020450713805 3.9758940927009916 5.77019982288251 -0.2753615490292935 0.3138913296733755 0.043416419312422
P 2.5855588082637824 8.674929803197491 10.357212994282431 -0.8859371004691386 0.2831206241494221 -2.083134263636393
