# total energy = -340890.4815692612 ev
CRYSTAL
PRIMVEC
9.09093477392003 0.00000000000000 0.00000000000000
0.00000000000000 9.09093477392003 0.00000000000000
0.00000000000000 0.00000000000000 13.30550196739936
PRIMCOORD
 96 1
Ni 6.248254007608861 1.964723729853107 11.58600544411829 1.3063435776876342 0.4885545949496425 -0.5218845765603399
Ni 4.728531534361188 0.244848873228419 5.988087818399759 -1.2494849168273772 -0.2894594218832563 0.5739782119317857
Ni 2.7417804695794805 1.2981218474864067 4.8612319090837515 0.4758713430550191 1.8729298680307227 -0.027364250945565775
Ni 3.4286369545961692 4.138875323821011 4.78344805307216 0.47027533702448043 0.8354439768155933 -0.12375902222723204
Ni 5.265069413086337 4.514121837996751 2.752415954157677 -0.28071535714203916 -0.3194929921308691 -0.05430324142825486
Ni 7.55073041284632 6.305626896892557 2.6646129789447603 -1.3018737148417383 -0.8134121938265345 -1.2827179678488942
Ni 4.885450159290021 4.2714756982611926 11.765829588273744 2.3905181312085535 2.825548014767179 -0.5332964179417072
Ni 5.5742975590196115 7.903613227507262 12.673477605857872 -0.5462077266867367 -0.11173911494822046 -0.47661490608926305
Ni 1.689041133192029 6.744773591511189 0.298408115379408 1.3449186097473547 0.0064490980594534095 0.03792120052580566
Ni 2.4199704699354414 1.7114321055111137 0.19961601822604938 1.238363352992919 -0.8334536858584419 2.0648128396193854
Ni 0.6504927459682361 0.15882135757454335 4.630687621703517 -0.9949292487998415 -0.7152176503319683 0.3776536596320012
Ni 8.521214971506174 2.3541702841272674 1.1765605951278597 1.0431292055438357 0.466049728978907 0.8214502336396626
Ni 6.697573458226298 0.8022722654760467 4.883371971603402 1.4839764671151863 -0.07335537296369947 -0.7815999344119443
Ni 0.7842403963753954 7.0730745185753765 2.4623560441703174 1.159854460852738 0.24183050715138352 0.5122773924878791
Ni 7.504657555471931 3.872501844356338 3.9337320172595978 0.9557379233123603 -0.22191345651248232 -0.08812224686022889
Ni 7.657439805084002 3.893520085526343 12.651815726506708 -0.6346775866943715 -0.07868578403767738 -0.8880798578437544
Ni 7.8179129855048215 8.947752539609754 7.048536267465482 1.5355150013141103 -0.4689884998922568 -0.7372792581176979
Ni 6.940928690873301 0.665778243677253 0.26191073958995276 -1.5062134241365157 -0.5661414894961863 1.3075581668210254
Ni 2.0903059026569366 6.462681885842821 9.264208887772385 0.47590785271990943 0.4000243140177175 -0.8765294340019938
Ni 0.2014742052914253 4.930632105057722 1.157265995188751 -0.7598610000729559 -0.05056382899048067 0.5386980485732529
Ni 6.479500115152731 1.9168508673958198 7.0850063704506505 -1.1047657474087103 1.0224140844836713 1.0630989637975432
Ni 3.2059545075982103 4.153639001874684 0.2528788959037934 -0.606654104898252 0.6125360176003257 0.11767887747142312
Ni 6.247563096566941 5.835625569691312 4.709468753258513 -0.27667075475902025 -0.05549109108876894 0.7259216670130336
Ni 5.253369380047497 2.6427620081505454 9.528642361758823 -0.5026092732704956 0.022856849993515473 -0.46565557886428194
P 0.19213145163640175 5.639806834915397 12.329450270748705 0.03655620185747897 -0.23434345474571897 -0.002453603746815129
P 4.132838943138969 6.051980726094841 12.930938332881771 -0.11195174517965881 0.5048649020738919 -0.6800837827433127
P 2.3628703086946095 8.617497061571713 1.4173285477415662 -0.12202815557905436 -0.3374691169933156 -0.2387094450238986
P 6.434327260319791 7.910258700818366 5.739221661099961 0.08565013117065248 -1.760194450607504 -0.1728717205934829
P 4.688240511495502 1.1928579138758997 12.807583439094659 -0.05359824494143028 -2.009292180844262 0.3669547851572583
P 4.233730137128899 6.36599979464775 8.155022119260021 -1.2630978796251215 -0.1865733864502916 0.4987063386716637
P 4.741940663135304 1.1376850308046358 3.856054525184723 -0.7112326975422913 0.05767575744491358 -1.1487400961071312
P 0.11601305487322927 5.395969782726003 3.773773383746314 0.9671212254486378 -1.5089747889317366 -0.4939420845138009
Ni 1.1534487116821397 1.0393756622871453 2.474530624003739 0.8441535887744495 0.7908553915719412 -0.4923102053373328
Ni 1.886150780704164 6.326763320214469 4.8091808530097975 0.02680220779450868 0.12945838660485445 -0.7476256343490286
Ni 6.1544446517986175 5.634488638079562 9.331001803656582 -0.6625537442793492 1.4328469954292227 -0.7970129265329048
Ni 8.65376080033778 2.3937703959510315 10.195500608485816 -0.21032240924077328 -0.11633110519427707 0.8657842796703477
Ni 2.3075065159933414 5.28952402759642 6.842660231562242 0.08786822186789384 -0.7570050186813996 1.286427041269365
Ni 0.4099520667235824 9.00357996998389 9.337282730483725 0.6465056896775511 1.5447712298050558 -1.115170230571486
Ni 1.4602495780339304 1.086003066682023 11.50365793885612 -0.35169245968154916 1.0354292657964168 -3.2624869424230587
Ni 4.36473959798571 6.889219453946404 1.6790211048972281 -0.47567748187665815 0.23614476962051587 -0.36739624357005113
Ni 5.786661795062572 8.045859083730045 7.994518029661011 -1.6095604583662988 -0.20678097174641805 0.14342924696264978
Ni 5.440351726234638 2.869662648878125 4.91793934194286 0.009812358104731488 0.9336796579607403 0.4830154102989681
Ni 0.7128083764820923 7.398375437168068 7.123167387301572 0.3810058639336858 1.053000956131593 -0.8676488436829122
Ni 5.0824507155850105 4.652585865358495 7.148301094638387 0.319826721321204 0.23158748926713663 -0.49733002714942737
Ni 8.3455417481631 7.081765452207957 9.302048994626205 -1.382333302950387 -0.2877596655833302 0.547027908595187
Ni 4.703086007962033 0.2739898646083723 10.534152473870146 0.07737349298415706 0.4194207162664583 -0.12619565669318267
Ni 8.466369362086345 7.076438164437359 4.715270587823694 -0.4659062614225073 1.575613669107209 1.78573167564666
Ni 7.294566053119499 6.352254301287434 7.214868555340483 0.4208919014953461 -0.5179813848511917 -1.0956591571217518
Ni 2.400270414305943 4.933750295681127 2.495207046026689 -0.26496272229347273 1.4913815013300058 0.531732158778381
Ni 2.5313162389018022 5.634743184252901 11.479455143238946 -0.4625535429001905 -1.02414289424932 0.8320334084721477
Ni 1.1152849675507892 3.2187909074823136 3.9030628397461333 -0.9969635056210507 0.13987881060723006 -0.025299397996737073
Ni 3.3792731788378956 2.7307531657130375 2.771150552515439 0.6867020593907787 -1.0441684454416276 -0.5081901097923829
Ni 0.9395935623381927 3.431082416047177 8.370717273799821 2.120461796442258 -0.6213592723189105 -1.2546782881028584
Ni 3.545264556659317 3.1307270224417247 7.658899809206798 -1.3276030012870426 -1.2126770039704082 -0.493488284805834
Ni 4.316103097008406 6.655127883821993 5.913723062952197 -0.7535821090427797 1.0755682999091476 -0.1531197347775363
Ni 0.8717715526389246 7.489284784789198 11.283930954749325 -0.17790671191422908 0.03803458617521837 0.30381543349461226
P 0.3656828508059968 5.6132067598014554 8.1216647523374 -0.047192341415086464 -0.7517003186390344 -0.48193169031648614
P 8.741542866400744 1.6231136742971854 8.00965898150731 -1.542452608974208 0.08354748300535288 1.9490854294473787
P 2.017505697081935 3.246227348594371 10.314957309446934 -0.7059467665530035 0.5925672877878827 0.099233526282042
P 4.007138588183232 6.0759444301277705 3.658161239096094 -0.04265460144573299 0.22103748166543224 1.263829101364191
P 6.729791731023227 3.9616930053074286 10.38348023021636 0.8711429728790997 -0.7740750867898089 1.976487475609415
P 6.222035751754928 7.718376340794446 10.254324410957546 2.3219786915762595 0.7537425458800437 0.5009578537100018
P 2.302906503003712 8.319568947547744 5.778619045078531 0.22533919436457964 0.07524256268408332 1.2465240344268405
P 6.978119704985106 3.9454747776918193 1.4605713971245093 0.5859672659728619 0.5200048430391238 0.9355434506423564
Ni 5.238642065732874 3.0653268377630836 0.4824977261252445 0.22392714450840143 -0.5905492289165893 0.5485240335247392
Ni 1.3335037655805506 1.0629393651905423 6.888683997888914 1.2133534612121428 -0.1804770437445666 0.539873814048909
Ni 7.062474488642753 0.5303151338804828 9.217239664230453 -0.5571827376410017 0.9074834591813468 0.5239998231311298
Ni 2.87476266327967 1.4546404712857068 9.33164089637036 -0.9348268841913061 0.21012726251083166 -0.04411421671039499
Ni 6.481936485668976 2.0798695095500306 2.495792502225369 -0.8590824421701397 -0.8328373924306818 0.532575737725599
Ni 4.296575769139387 6.983965176037145 10.500835107060478 -1.1023324553768692 -0.3662701003854079 0.14181099463293642
Ni 8.363896345447808 7.382975393681048 -0.011069122166348831 -1.183146598611459 -0.38499261649557565 1.125891473643732
Ni 7.79195836675899 3.9901203583085567 8.468020275839145 -0.8287647650232051 -0.1342568364347623 -0.5268113244379959
Ni 3.063508650810661 8.613115231016373 12.331765731832615 0.42850159552180395 -0.6297336124255348 0.48868289299739065
Ni 9.389935606438934 4.955195810784953 10.204096087303395 0.10283409914910677 -0.4883782172727783 1.203115071313586
Ni 8.491733070072641 2.2349154019178683 5.962408654977218 0.7468851566385781 0.688068343610686 -1.68341513956392
Ni 3.583873756594011 2.586225484864965 11.663949300581695 -1.2265025969995909 -1.0891390966150467 -1.432841596112584
Ni 0.928757168101754 3.4912462223028413 12.477713416690529 0.701804719360172 -0.19671741686282895 -0.773959644257867
Ni 3.1891180964187766 8.507387659732998 7.927684204570385 0.038008875143605514 -0.6110316651406573 -0.4834296150182514
Ni 5.396578875355064 8.105550161378078 3.6762703811422233 0.8544333734339026 -0.7635186514302013 -0.2647920010435633
Ni 2.9970175539605663 8.33779627174578 3.7525905966571145 0.10960921308941121 -0.7002196342612392 -1.76003067133613
Ni 3.8533472448125656 4.669595004298409 9.570301570306208 -0.7567293964225096 -0.3529404731560373 -0.19274891913338416
Ni 7.172402071786225 6.108571794988995 11.589863636831332 -0.04298781641543564 -0.33237858984428564 -1.1330391404321065
Ni 0.6009089695887192 0.1599268152416163 -0.011043667549014915 -0.14853134407590549 -1.0173814071557703 2.094594955977825
Ni 4.5857038583136305 0.2830998903334858 1.5529252942793395 -0.262501919457806 0.6723090238939002 0.10824832818614259
Ni 6.237553977393854 5.717861600782901 0.5127605388548426 -0.20280836025191523 0.4135958820545651 -0.05693090885908905
Ni 8.028931763202989 8.933116134642752 11.312537399165263 -0.7681245256333287 -0.4189520041601558 0.3244583065559444
Ni -0.16029590719295808 4.701967822986293 6.06338348556696 2.059155127112976 0.537368788238868 -0.4849375670223455
Ni 8.238750537512558 8.693233639074876 2.435079603510073 -0.7951355070045338 0.8210725385852697 -0.04821409781138148
P 8.286214307905551 1.4958224057580787 3.5856728525834334 1.070010860426028 1.168338072843717 0.08148931492474353
P 1.5899953989588076 3.231609125496893 1.4288249438417344 -0.25922093471368907 -0.6839427514780866 0.8161925847851493
P 4.658376790801961 1.147612331564863 8.088667386431359 0.47635908132471505 -0.5336059787623262 -0.40573627680083024
P 8.356396324269063 1.6491046567820666 12.44764333177789 1.296432232111193 1.4881218567421275 -2.0196899791388185
P 6.466663715268628 7.9488133551444875 1.4204421928975899 -0.09278699932574987 -1.110285648785675 0.470764360845757
P 1.9557418863081393 3.133790667456557 5.98017143240891 -0.6681312383671267 -0.04893657779970282 1.065341737085133
P 6.980210619980392 4.233566500303182 6.451199126144797 -1.098322819996844 -1.4136832780165784 -2.113709565320089
P 2.354079374779646 8.505751291475818 10.015530100280694 1.3766689055757582 0.1914947350113089 1.4810199555900236
