# total energy = -340893.75388388796 ev
CRYSTAL
PRIMVEC
9.05202319535708 0.00000000000000 0.00000000000000

0.00000000000000 9.05202319535708 0.00000000000000

0.00000000000000 0.00000000000000 13.24855093893586

PRIMCOORD
 96 1
Ni 6.381540648708455 2.0300882142814336 11.298390605501078 0.3034382526608516 -0.8955085462076577 1.4962925654783779
Ni 4.565958230653104 0.19542956231601535 5.98181325684586 0.602233350122737 0.9803580358538859 -0.1665771458340228
Ni 2.6422584462592145 1.7029390400650004 4.730938596980374 0.45341892758877395 0.20504136334749204 1.4003533936768915
Ni 3.2130880878093238 4.328025798117231 4.937906773401524 0.749569902559593 0.8851927661039465 -0.18649753890703363
Ni 5.052975188434918 4.706653828861399 2.6935761767721442 1.1814391290020492 0.1345363153483941 -0.7523510648491559
Ni 7.402346368681933 6.134755337381636 2.8890980697258564 -1.029315439589195 -0.5793657014959441 -1.5840139773557622
Ni 5.186030878974952 4.474369858866991 11.502577095161026 -0.01746241845082154 0.38391429582973235 0.0944157931784245
Ni 5.926513541281664 8.077536786899573 12.235090356151222 -0.8994788437093154 0.18764965023360586 1.2541761516554595
Ni 1.988774779923674 6.417223724571358 0.3568832603641919 -1.0759822475181147 0.22540167217139892 -0.3997422640009245
Ni 2.73794738460187 1.4525329194167285 0.24993813104347437 0.27245337424356303 -0.08907998278780788 0.8293136955481395
Ni 0.5092650206574721 0.1635673454895738 4.885469307605936 0.688768197891188 -1.1622952090837466 -0.06040601189188306
Ni 8.74615543619878 2.357536105266887 1.4075126815161327 -0.36358561157470926 0.5688696870606268 0.08832896355439626
Ni 6.703312921082533 0.7858351094625515 4.808375940735924 0.1698085082871269 0.47114951209931755 0.8372254941960483
Ni 0.47939515416015915 7.373171697574337 2.017277790902139 0.44579843492903876 -0.4514011258277968 0.7578920492720431
Ni 7.743272722366489 3.68995772746777 3.835363093400944 -0.8514997447268755 0.9135414924499685 0.05237825649140011
Ni 7.644397471820955 3.7865609201640926 12.5230071561674 0.4180346345522091 -0.480681877069785 0.6892590214846775
Ni 7.787700052740695 8.856581068479743 6.812537349871105 -0.182035389370622 -0.42684631930656813 0.11978126852640662
Ni 7.049869633261946 0.7751147982640644 0.5367768350841898 -1.237665812705262 -0.7815030038227637 -0.42945213236053137
Ni 1.9797499126899565 6.269440392116322 9.191327605854912 -0.12533459424446802 0.9208544811716141 -0.006844790835975309
Ni -0.08938148850468737 4.766650639317849 1.2936852988776666 2.0134470835529004 1.1759045723370651 0.5926153674169987
Ni 6.382835088040874 2.0228284915919237 7.130741314658893 0.8378595282356215 0.45233417916502744 -0.6475050774763429
Ni 3.536544036517877 4.223411564797199 0.6228724391296602 0.10154417669308964 1.3582726624567574 -1.487472910304219
Ni 5.846466499207677 5.390796698126329 4.899208468576183 0.5505078967239874 0.7105618967275118 -0.4936016704552467
Ni 5.248535099886505 2.880661584006875 9.418858358412585 0.1495567000166263 -1.0756451758936703 -1.2139463576011351
P 0.0936974932158574 5.502082272621136 12.549172934728869 1.4025079781260492 0.5205550591156389 -1.4231112561986974
P 4.172837910599827 6.130039233240445 12.695411086805978 -0.3777379918156914 -0.5194883084140215 -0.10396255632659517
P 2.344256787080464 8.536094183414779 1.34296632414728 -0.3135231477006794 -0.010395998522343386 0.24162610445006127
P 6.320158878686552 7.735659970768136 5.512072990741351 -0.13781575743061425 -0.6100626163591687 0.8556135097849329
P 4.814200917731808 1.0931313861694671 12.612965258556528 0.27511215202264877 -0.8212512302549791 0.5591578590895016
P 4.0367407402297735 6.23268917750359 8.232159828162832 -0.3564821677607086 -0.5759901001554919 -0.38212532225010964
P 4.6949948228463265 1.254411285370214 3.8905161661876213 -0.2984441418803699 0.564291323661325 -0.7395654830487133
P 0.34338488321382127 5.471359705528621 3.575665070831498 -0.3937037711163284 1.083780660516611 0.09049820329157317
Ni 1.3255601885367332 1.126216531344229 2.597458172524896 0.9528312911885267 -0.1454928143598978 -0.18360016275458058
Ni 1.8790461534370906 6.523268177573366 4.797260961321398 0.45046035918108224 0.6221365168045673 -0.394492585566211
Ni 5.939657079118533 5.372665495449161 9.139089284572002 -0.23647001417041857 1.2294578229731727 -0.3091679560557772
Ni 8.560136357309217 2.328488162485544 10.1269673645762 0.8551429979064177 -0.2631349250561146 0.19830533017523913
Ni 2.4109973548981163 5.32373930949305 7.0784486812361616 -0.3991069444097707 -0.1602188077161628 -0.635248371596177
Ni 0.7899193823771488 -0.08382626180325063 9.169242479398719 -0.37790074264580076 0.40660222434555143 -0.43684379683891217
Ni 1.4042494271151746 1.0380226682969775 11.542787087878072 0.161316925876348 0.14640041377583174 -1.208099411902055
Ni 4.016509468146165 7.089110154283175 1.440422217438804 1.2787975497485653 -0.3703375855865622 1.1430823836007216
Ni 5.6038994307403485 7.78025023756181 8.049554267261065 -0.11931332775105259 0.48000773382089595 -0.12865645952884938
Ni 5.21973156173436 3.0214295984015997 5.085005772894807 0.12207314988437687 -0.6403193583611811 -0.532777826434076
Ni 0.7278378909538741 7.512500440263786 6.846626364430239 0.5422014337408211 -0.3287448497464403 0.4760510631659931
Ni 4.845855843224596 4.478678621959519 7.016763668433587 0.8736086608107729 0.842043227299666 0.16742535276693102
Ni 8.126644013321757 7.369623304439315 8.924091963480533 -0.8539536055840068 -0.2463916441595047 0.04633410717984923
Ni 4.601016716908056 0.11139329357212052 10.125815042009647 0.3202676655133645 0.0778144371763176 0.7494323485404641
Ni 8.291562825890562 7.105105079460687 4.790199477942237 0.3763760784711582 -0.010202394454298557 0.9390486355821377
Ni 7.0710332637458295 6.114225348529006 6.944347482004559 0.3461247357857845 -0.33324016651363253 0.05221653410255523
Ni 2.2657757450380056 5.24118485696396 2.421332049903869 -0.5888535863817214 0.6662144809603882 1.0822385128404717
Ni 2.3311132492435953 5.273029874946124 11.584745026295051 0.04075224221669756 -0.844580906119855 -0.6427588210406091
Ni 1.0854914785012049 3.4288340112280027 3.919967829208307 0.011251404544103203 -0.19324668470540912 -0.4548610593519392
Ni 3.40614964082911 3.1361911498450006 2.8779296833738397 1.3590326805512336 -1.9858856289948636 0.5468016515169938
Ni 1.335553622263939 3.466064983075826 8.464804068684725 -0.4245616370374495 -0.12460105851255315 -0.8485853992935579
Ni 3.5597172161751653 2.6297666541002074 7.324448276940228 -0.5787938881528741 -0.37435544849670366 -0.4677086047385687
Ni 4.182885656466854 6.876523386997462 5.89344559495118 -0.12252926358518898 -0.16732045175795054 0.18189063626264157
Ni 0.6485177263511697 7.213530214591548 10.92572242690002 1.6305666283043208 -1.329685080627052 1.281023867975923
P 0.10123330261612803 5.675265582466155 8.031854846095483 0.8680851598893823 0.2951071070873369 0.6526256865323599
P 8.517854356457969 1.4652872202515408 7.9675728078070955 0.17225491294509043 0.6694047057629116 0.7461637050915214
P 1.8612408235988536 3.225679452224671 10.565361379182573 -0.025486574306878687 -0.16515918244057362 -0.21874740007967491
P 3.8891746563340237 6.26387339778459 3.677135536458181 -0.11613647268496773 0.15715996628518095 0.37510106841347657
P 7.001721921309947 3.930316102249015 10.282836869448367 0.2906493284262995 -0.9223310657171404 -0.10172903901038609
P 6.301864739589918 7.6123895174193255 10.236347488165594 0.6994336480248341 -0.16126087582743195 -1.3483173510162585
P 2.5361958892106 8.591139537124144 5.823798422450732 -1.685580522646355 -0.6552086167681876 -0.5280472537276261
P 7.08872091728112 4.035917006109144 1.6765913158351293 -2.7458677280267163 -1.192111778224547 0.4877994619511728
Ni 5.320199968381331 2.876153676401668 0.6484516465810531 1.1742639514098487 -0.6790496850518435 -0.22482497373232246
Ni 1.4380496821309232 1.0955844844847504 6.9835626573605385 0.011045973401516461 0.7984028649018959 0.5547016230903609
Ni 6.803183894191466 0.7493672231792239 9.252616140036787 0.26788220993311285 -0.701674621540211 -0.8505085844581998
Ni 2.7496878588266758 1.5152543888875694 9.37663519571281 0.08458106647618982 0.44440026902993146 0.08886272457067922
Ni 6.462601517392448 1.8671880029093375 2.668708458352416 -0.005926392786763987 0.9474106343935877 -0.24464303689951417
Ni 4.157042129934995 6.65093791424774 10.512977320324476 0.14160556349034967 0.7081885113993287 -0.09509893528837816
Ni 8.121058914943418 7.305661707775877 13.107599493948348 -0.4653840703704502 0.05628119109023211 1.0952884040458943
Ni 7.901076644618641 3.815174365826862 8.140850258694472 0.1285998952593011 -0.1902102118719305 0.47678099935348206
Ni 3.2928635691842008 8.2073337490503 12.470012990938638 0.31380674037936923 0.5991554825283617 -0.2037460415748362
Ni 0.13541012180130735 4.883258803515189 10.261121970745293 0.6701402983773556 -0.9977893439564558 -0.44341553651915894
Ni 8.644745619128232 2.2588237911408195 5.711423889552498 -0.109726712503882 1.1567436831378983 1.6121901826796623
Ni 3.76582273477548 2.6956201236341033 11.586904839055295 -0.6909785752789455 -0.23228888620953544 -0.40079333097325814
Ni 1.2018552380693477 3.2391579149237733 12.70045849500008 -0.6599726138157344 0.7262510253279945 -0.4293662575149444
Ni 3.007616210840263 8.425659499110512 8.025203419371977 0.8859779810094032 -0.4275240620998831 -0.014853777183380872
Ni 5.442438491073529 8.187871898947499 3.460972314765205 0.34783760471183317 -1.6161075154561972 0.8539386931856714
Ni 3.1051879700300735 8.729789378065819 3.579493171486602 -0.6026277573476783 -1.476036386332503 -0.04662027096170036
Ni 3.5028071456652534 4.287355057414029 9.398919466681683 -0.41746230698850684 0.6937252847861471 0.1657086271861404
Ni 7.293142759546959 5.816341365653202 11.248417100448739 -0.6062841231533429 2.028041179316991 0.3547075923587891
Ni 0.43724802845613503 0.15646965401719878 0.3309609812295913 0.4221221743580214 -0.6053942643492219 0.5557467765254235
Ni 4.546433016387177 0.49538283771902764 1.7035781129102365 0.2283486706148648 0.5534659509110469 -1.0403053629417955
Ni 6.144875499435091 5.523897648782881 0.3093682848411161 -0.24191792465886724 1.0664316277152022 0.8556919284313521
Ni 8.146504152449918 8.677115654462005 11.064037342979463 -1.5778284173703407 2.422359186978551 0.7548800019185967
Ni 0.1007028540505354 5.020514632868107 5.960522898035726 -0.21576414908163488 -0.9021085680226787 -0.5523043265027778
Ni 7.860369695822224 8.715432869106266 3.0143237601082515 0.2211328695927159 0.017525153367956913 -0.8306473267578985
P 8.551491675054251 1.616302125025973 3.671875405716442 -0.6349519234016806 0.5353458442715684 -1.0020514616669194
P 1.91481974953303 3.199410480597541 1.5019216637636552 -2.0950497841270566 -0.8012115379952847 0.01802651848440766
P 4.836613727431592 0.9704221582654807 8.042837665969774 -1.0780026203822533 -0.3701930895888979 1.6148780139244705
P 8.526001177431233 1.7014092481266871 12.42608080623914 -0.5372523172656619 -0.2937739900982102 -0.654977217483672
P 6.475663587019583 7.825836226918882 1.55801614697391 0.20390647841210047 -0.32391554667859696 -1.4089287940507282
P 1.6917054791451975 3.3933772359476904 6.106124692874588 0.2843128446853104 -1.3217863946052657 0.5563736114761451
P 7.028552118381901 3.93671588272468 6.198639086644662 -1.0900209849993678 0.5928753059466048 -1.7458402387683611
P 2.5137106633243875 8.506068622116645 10.376755232032833 -0.3885173418193825 -0.648752833840515 0.06349904899491
