# total energy = -340889.5797558361 ev
CRYSTAL
PRIMVEC
9.08969889189967 0.00000000000000 0.00000000000000

0.00000000000000 9.08969889189967 0.00000000000000

0.00000000000000 0.00000000000000 13.30369312914315

PRIMCOORD
 96 1
Ni 6.739602478543242 2.147959408051895 11.334294233946421 -1.7990453620364306 -1.079415955790012 -0.31403865388451724
Ni 4.6048867613576 0.506014431594667 5.762361709851728 0.20344933627002382 -0.8223079536542678 0.0382803836374373
Ni 2.9119849345254827 1.715207947206712 4.291572122231284 0.5118927554549506 -1.0062670424101638 2.338335535667728
Ni 3.5223400163972367 4.151410787694945 4.400462166659751 -0.014871260684877612 0.27583720311413135 1.1377748553448792
Ni 3.9590545858338313 2.761177744983958 2.446056982744997 -1.4311624086379482 -0.8269619074865114 -1.3779868530562334
Ni 5.012096169125109 4.7553303629549575 2.4438618205320934 0.9420989923726871 0.28486408920309003 -0.7487633474978975
Ni 5.092903589716041 4.761365922828117 11.245012487346838 0.2777387910122185 0.45563933227886044 -0.31978404100872665
Ni 5.558277978851534 8.072806752211765 12.201016084219606 0.5969489617953462 0.624417342418944 0.01409195931669186
Ni 1.7458584108999204 6.664403401991073 0.231633698499525 0.7252089572167253 1.5001109107832034 -0.2898222045393138
Ni 2.6512832888597324 1.7138172233202764 -0.08512502742790522 0.6772074896367821 0.23450234892108646 2.327206772744418
Ni 8.16642155813595 -0.09550455426398903 7.206171254075321 -0.20402063539246154 0.8890229384833142 -1.3360238783608862
Ni 8.37509376899152 2.658727752016535 1.304071789642208 1.3544630589026803 -0.6193728380165011 0.09721958117580676
Ni 7.003176468967905 0.5159312927717993 4.541654273017801 -1.01114262533491 0.04443123373018154 1.2147850514523466
Ni 1.2594322797972062 7.674705222445619 2.7721835520538685 -0.4054123178025082 -0.5691795049915617 -0.053746597593836466
Ni 7.810787100248413 4.0194010948668115 3.4572168707477733 0.5687257052835947 -0.11530163548849819 0.0446412928584586
Ni 7.600387846658053 3.9342760674389066 12.455209505684783 1.6475747328265433 1.0362245080042025 0.618814908630502
Ni 8.439367027821497 7.434228156174111 9.158089496451979 0.42764104729372154 0.3914627976009516 0.6541583211268025
Ni 7.0409350769695624 0.7378826443181791 0.19452409497820455 -1.0826411475955289 0.011835044961715103 0.4351538107309989
Ni 1.9057734784428073 6.447632269679202 9.43157307629489 0.6905178335924431 -0.07973556545843043 -1.6545051413977894
Ni 0.42299730527306506 4.95862147223687 1.0203077606779976 -0.934714526983158 -1.7454805414360972 1.259268478576702
Ni 6.602929770331178 1.9862718492811982 6.775557690341835 -0.04047404885464643 -0.3665233540467946 0.98906841914369
Ni 3.4358788032745213 4.532460042879698 0.3292861485436757 -0.1918634312046373 0.20558386611452337 -0.3465307129749516
Ni 5.995037996781149 5.725764765331681 4.769959323888485 -0.21309560111053621 0.6640879215356885 -0.29634046527380575
Ni 5.454310006217217 2.9370361438785317 9.199157663715408 -0.8317588146545224 -0.8492268895322987 -0.683987488673093
P 0.09049885724268125 5.707930776670331 12.425462558032827 0.5999931479383086 0.034708092905146676 -1.586886413807551
P 4.025809332382741 6.505006447268624 12.414141338421352 -0.3373027666187804 -0.6463131140507707 -0.3422575395208944
P 2.5265089961205063 8.632714006830463 1.3008540363363372 -0.6192391406521142 0.972390444267377 -0.11787402420136472
P 6.623936063805378 7.892385324617906 5.858839770836222 -1.536296102454509 0.1333158126777317 0.17835794051903478
P 4.83361993703254 1.274675704356373 12.464868219421557 0.9451660613337851 0.23155869291173026 0.4044988048493034
P 4.528905970725474 6.041022782019566 8.064685106508954 -1.1692492718040766 1.649766084050907 -0.41763688489315814
P 4.864079517055061 0.9661713337313753 3.5632482049652334 0.17395955434102298 -0.5094172973312646 -0.8088148042638394
P 0.2812689066973701 5.745598487685947 3.550249935961293 0.7322591791952873 -0.6407124800345417 -0.7521497474716272
Ni 0.4374144762291142 0.047477313749218854 4.853999041303053 0.8218824360810748 -0.06907885707553264 0.18645897235961437
Ni 2.0769779516520543 6.369224529519767 4.866424659294933 0.3208456495040216 0.8096833229117217 -0.15320123874774905
Ni 6.3044876960609795 6.020634588050448 9.250922588296206 1.0006157576616574 -1.760359772540775 -0.8811857018270823
Ni 8.878226766128671 2.6188694236373182 10.289222498391267 0.22714205190127335 0.1416860390192979 -0.9268832038641973
Ni 2.8240875490233104 5.257199891986131 6.932035033872631 -0.5751652902613514 -0.35978346421979973 -0.2360118435870774
Ni 0.8656901694816118 0.3670311219974265 9.177392380407762 -0.3679662571409082 -0.23022686147418414 -0.6902465822089274
Ni 1.2256186009897523 0.9844870764187462 11.424373147113592 0.5984291458852984 -0.1939624798255111 0.24106328996805576
Ni 3.8950540179619804 6.899435738798692 1.3152921135991762 0.9879512748201114 0.4114940052202139 0.827201534301143
Ni 6.011135853009107 8.075388226615344 7.9458036653748 -1.2290307627380834 0.2351700644120724 0.2898291465178492
Ni 5.620633311276033 2.679234112067507 4.641964550933806 -0.2682251950948284 1.1490450289420597 0.33779076199879243
Ni 0.8988057594362668 7.6619251062081775 7.317483703181796 1.3889603213486015 0.19043646895012362 -1.7301390259830203
Ni 5.636222144382158 4.604950389247828 6.987724890310703 -1.1451819464422277 -0.21813444908602433 -0.055783425518207155
Ni 0.814471535786923 7.542950041178401 11.15014421198514 -0.030723911446418055 -0.3253461084775365 1.4238494199163025
Ni 4.603459678676748 0.6370169858174598 10.312011281761743 0.012878912845197175 -0.21606625370308596 -0.3470408198421507
Ni 8.164440003840244 7.18337065409666 4.684309820851119 0.8633335041370099 -0.32590300942227096 -0.9683880079762032
Ni 7.72181713031095 6.278682041723785 7.086251769360573 -2.7629138848757258 0.7611190408497731 -2.074450619819466
Ni 2.294067223415072 5.217777869139914 2.412611436731011 0.07587633961334028 0.08006749487655243 0.962045096477311
Ni 2.433939505535798 5.400144492235062 11.486128559430217 -0.20278599165441202 -0.059795117780761534 -0.4738900509589322
Ni 1.1925775465636512 3.1896388680879806 3.836585440660618 -0.9099188080957168 1.34199809366645 -0.11542016334423348
Ni 1.438472073203234 1.1898779060782172 2.6312041446431556 -0.19233728551726229 -0.5031412345145657 -1.3944928211310565
Ni 1.113706231775404 3.6382973014904336 7.859741490020807 -0.6790250024614951 0.12469284689541105 0.62838841125155
Ni 4.294673527395021 2.707057679494824 6.626383010669617 -1.875839328368034 0.3230529415679856 0.5907829421939502
Ni 4.318533986230927 7.259542328399474 6.21569770215588 0.23283113186625062 -1.0887500887067443 -1.0682296001558893
Ni 0.48183310639803517 0.37212226218561334 0.5171793083901497 0.8999609255520564 -0.27341136728145815 -0.47280016032886313
P 0.3026415150253181 5.800036692626227 7.975404268879228 2.6351657960937582 -2.453993268944064 1.0240724460227009
P 8.703150081314055 1.8712598928428334 8.153925949464819 0.12194073807157063 0.4663600611304743 -1.7321115763283588
P 1.9193989366504347 3.5431917849951673 10.152207108541825 -0.6417658609997204 -0.3073463294660062 0.0703402402864595
P 4.06462234542248 6.144445372737634 3.6885815141686153 -0.3823526077695673 1.2370328071069534 0.6303609615968886
P 6.950365320077769 4.106162268043465 10.074154775597814 0.7317958664056236 -0.1423655815848258 1.9481927424297805
P 6.670802549808399 7.872587961058057 10.213071730395244 -1.7271897135467094 1.3423840162509593 0.10523885193585748
P 2.4185870045933817 8.501576925068328 5.848330261310099 0.19495518275608362 0.06916344636953894 -0.3496895703189074
P 6.854187219147212 4.218629108872666 1.3940807121301253 0.7142360031449893 -0.057173363887198306 -0.1385202396968066
Ni 5.435530688901034 3.370878368556214 0.05317110095486112 -0.4851147160301581 -1.7697463559619975 4.705118785153187e-05
Ni 1.5466667556884828 1.249815378674011 6.822945016074873 0.16262124651006832 -0.109188837722541 0.03238484408860874
Ni 7.101754250329959 0.8874863577645135 9.13649691741781 -1.0530780892264313 -0.3158250563609787 0.9085129288871256
Ni 2.8660455977800865 2.1073102758941173 8.711418071164394 0.7903617397649744 -0.6916293214890669 0.6997565785818916
Ni 6.341255526914783 2.221404172773462 2.460172375707388 0.521003202396651 -0.6079831081223207 -0.6783403176896446
Ni 4.394996530889073 7.221620105822942 9.915694059831592 -0.49416577048883276 -0.031788605265506545 1.5712291668862683
Ni 8.263217758571589 7.466951071149068 -0.013344586520758959 -0.0009428235292435375 0.3799627673811521 0.9834289614697257
Ni 7.595597575493663 4.011202186725865 7.993124636308028 1.8052232087123685 -0.8000265165482481 0.28496487644701246
Ni 3.1721957364666085 8.783693900645467 12.385019762033362 0.32930457890465226 -1.846047184707266 -0.32014965187826155
Ni -0.0178530770284195 5.086004508475488 10.080553923415138 0.20164493607143338 -0.3813143963130401 0.5550654341876827
Ni 8.713366902545124 2.4354847542985048 5.755509895043917 0.33221789589670525 -0.07307306583659028 -0.2848306648619933
Ni 3.766898357342009 2.852102000121314 11.43443089861909 -0.4482348122846732 0.2703288717013925 -1.1743917352369646
Ni 1.3415395272885322 3.3899758253235417 12.236204125456007 -1.3487603520909481 0.6451903133002372 0.6279268982340992
Ni 3.1012779079569963 8.226786246566139 8.155190326540659 0.6198240666213068 1.1770973070935855 -0.8334883957511194
Ni 6.010581381394253 7.856299221159413 3.2872231453925997 -1.2412077644202493 -0.4011982797211607 -0.21262843166613057
Ni 3.4699106348484747 8.291541259422134 3.690004960970026 -0.008733523218255925 0.034304429708824795 0.09771786096846398
Ni 3.5516997428886556 4.494365116029687 9.210905190191417 0.6951036531909126 0.11503424075972446 0.10736746824308604
Ni 7.267941209909712 6.192675313531277 11.514784743249672 0.3993648260568477 0.010027045218698861 -1.6475330809553304
Ni 8.234721553447566 8.62290622203658 2.2706212548355165 -1.030981000217076 0.7026475269764416 0.7053083616380562
Ni 4.676440868769503 0.4833583578238123 1.2993051516941896 -0.25220696528970116 -0.7289465698822866 -0.04657039156037141
Ni 5.958079282256658 5.82746031331496 -0.000965325991761189 -0.4776235498594354 0.3254880333720394 1.9229812761611593
Ni 8.040283810606102 8.948499226037388 11.388094342044692 0.01888398138869651 0.9863232522983851 -0.10516943215050274
Ni 0.20445186379366193 4.860080049669233 5.662157781409391 0.142328043478671 0.06294651892554966 0.13220920987711424
Ni 7.573927734021359 6.132256086909463 2.1112824741841325 -0.1374329201698988 0.5845025085018771 0.5365542627573727
P 8.48606989924964 1.5292599828615272 3.5581525199277446 1.4563389079035758 1.6364361997112202 -1.4847004897654041
P 1.9158630438934188 3.2169261432976515 1.2871349542330872 -0.3363946529822142 0.0942944371092118 1.1512919159947075
P 4.784253783913377 0.9047622389315692 8.006095636216155 0.477194689852133 1.568335133167925 0.18311473847772977
P 8.664309799178502 1.8807313587883625 12.489280422962734 -0.5832395826290535 0.11976069970111633 -0.18980911977876988
P 6.294725359760117 7.830348131644553 1.0854990790669923 0.8979924889717761 -0.002969109930652951 0.48362836129261877
P 2.1427964592447357 3.241377432542827 5.9530435892299565 0.06490004310749467 0.16207154465418536 -0.6085338384194681
P 7.135167982398831 4.067494690181392 5.532912265926781 0.6786138830660055 -0.7068137425389892 1.1472313727720886
P 2.5380620030463867 8.587492756274795 10.266352816703215 0.21425953951165033 -0.2702905622642893 -0.3062127300821952
