# total energy = -340871.8898760058 ev
CRYSTAL
PRIMVEC
9.21281025865778 0.00000000000000 0.00000000000000
0.00000000000000 9.21281025865778 0.00000000000000
0.00000000000000 0.00000000000000 13.48387905867589
PRIMCOORD
 96 1
Ni 2.167497830849764 4.522264452483237 5.757117272667257 1.9473355366358074 -3.7796735992870967 1.2428219029849046
Ni 1.275679388116229 5.909455693979011 10.035835562625685 1.483374057644497 -0.46758262068366563 1.839911504123173
Ni 3.7851659424707917 2.0781519985567347 8.99957223426906 -0.1386853045197612 -0.17788434331672587 2.1337631415368543
Ni 1.249082005374429 0.39864105661673205 12.480610417597955 -0.7259473780446466 0.138011161270872 0.8433827720466959
Ni 2.612163322853822 3.944823941402345 10.60809110418559 -0.35367657999111346 -0.47294439921621123 0.10207305261336615
Ni 8.46590915419353 9.083803114397819 9.107268141707609 -0.830352678335615 0.27995919570230493 -1.0608214806172762
Ni 5.2366257471833295 6.918129419946696 12.502522165125873 -1.5698983638899866 -1.7085088493077543 -0.03900286362575864
Ni 3.154023961351122 5.990860083970887 12.139023372613261 0.674520172612606 -1.1227938085550146 -0.5110674313401778
Ni 6.762128906622519 4.300327857315256 6.118431707906547 0.9460901158099512 -0.5176931641868117 2.0461070356797664
Ni 3.663566062038157 4.238887626797396 0.4539658237940985 1.466596581075842 -0.16508127801478667 0.2505115798651492
Ni 7.579756589667896 9.268639723316673 5.768780690246447 -0.16306296203317724 -0.32447399028522833 -0.4292716409186091
Ni 0.7629349146404684 4.1333825255992345 3.8386039261408778 0.7913403016281597 -0.6613311847261577 -1.1582624337752696
Ni 1.9649818393602436 2.4187956517877884 7.566802457394517 -1.060299032454903 -0.5775394469204828 -0.6691033724724089
Ni 7.2883830448203355 8.41613234125486 2.115701569938456 -0.9746766691983924 0.9256884122251477 -1.1881543362386957
Ni 3.0929614560471217 -0.015002139957307587 7.918906846382688 -1.6773432223382274 1.3807675011251639 1.0136566500060156
Ni 4.079634991509986 7.856343574314352 2.6231542052961387 -0.3563145318345928 -0.1917598157472375 -0.20354755241078493
Ni 5.191317147140319 8.90139868734382 4.550216118308876 0.008899359372158867 -1.00263253098137 0.4626101071697387
Ni 3.910589139092498 3.250196485923914 3.7282657847673266 -1.1644343669139365 -0.5508197715374513 0.3621349951711118
Ni 3.020862004250334 0.7910496472047742 3.4483667948920256 -0.5697451476870445 0.11614110067065804 -1.8812450727646373
Ni 8.653518818950724 4.852331799726211 13.465890976174585 -0.22177101739734706 0.5505220377913745 0.2808184583788067
Ni 2.7856681753568764 2.404727690774027 12.523341273376625 0.7417002700035291 0.4124864510404702 -1.3923235813938797
Ni 0.5910100590685601 2.5515522452444346 13.259412555063573 0.7760396667153473 0.44776712861963525 -0.6240972400753638
Ni 8.204421965291381 7.373306728268175 3.9210714744176176 0.3596009158953484 -0.6253339406959424 1.131567955203219
Ni 7.871673690311011 2.280898310298609 8.767366119689134 0.6203843100001509 0.21812545022495983 -0.005126522593287945
P 6.555043361326302 5.052323481249935 12.624200354444309 0.006708265258111027 -0.22084104938391 -0.04637755882327496
P 1.2102868620679794 4.91934578035103 12.120429158000245 -0.6317269887064798 -0.6309541150961973 -0.44886473255918824
P 8.876855761253015 3.200935590350514 1.5355442011607996 0.6259432921451672 1.3494159833970758 1.2932342939991857
P 4.525599489737318 4.809326402206737 5.740936814298909 -0.06773828388723818 -1.1722520631861424 -0.053950486074526446
P 5.6410312590759695 9.1058677945733 0.5950839636921915 0.46501357440490876 0.24468186055724958 -1.1309187516549941
P 3.209263970675622 7.632969780771684 10.653531447412949 0.8878127202252968 -1.9224308029743278 -0.2775711550861026
P 5.3171917714566375 3.8168948604350312 2.0946392435012187 -0.7174023166881128 -0.4068778466044412 -0.7485946831305172
P 6.590669297960366 7.839106406628204 10.363817129663344 0.403438481905589 0.0762686899557525 -1.0851569720388472
Ni 4.927674160676139 2.0825557217817368 13.379446257780202 1.321643698379814 -0.5953718471162134 0.3861832943695671
Ni 1.7607799036234941 5.598873440085156 0.7088133404613975 -1.1227195036736535 0.010575461523001142 -0.22952649297304986
Ni 5.827627514722805 1.8969636624351627 5.04816205493041 -1.00186017159172 0.34677239667211246 -0.6060640367227368
Ni 7.8038489823979065 2.9042278284584437 4.1998778250157525 2.0860622359164656 -0.7568373827552837 0.04856736738574216
Ni 9.10655875533036 6.792586456793766 1.7140433180158907 0.14390670081970056 -0.3419610913263981 0.914291997462748
Ni 7.739202693967283 0.3621868883552052 13.144044219378618 -1.440093906799623 0.5199423652323046 0.40007213653651746
Ni 8.524751372264843 8.400525840955376 11.397100113954513 -0.061432139163552266 -0.4451836841631752 -1.9253119811768646
Ni 3.521099166742281 8.761290271432046 13.056547398071483 -0.5500882926880655 -0.12762210472706406 0.8274108220984718
Ni 4.646840070576281 7.711601114925221 8.991064204147117 0.7098322176503389 -0.010726385278568625 0.37577186922825606
Ni 2.770301208119841 0.41475702531442193 10.623111669763087 0.45469830852182985 1.8188662534170996 0.15292433093727859
Ni 1.4214997462863739 8.026338346171537 9.359511196961295 -0.25469707870140657 0.7962009721545708 -0.5541244104306522
Ni 4.693972807017933 4.222055822755391 11.637571961750906 1.0197568493664824 -0.4536562404105607 1.25641686806052
Ni 7.532669917276714 2.7049915973624388 13.01857680126846 -2.034528843923864 1.3937014355780128 -0.32876001925509185
Ni 0.48216899933530816 1.1446455901471881 6.32245583640848 -1.2082439078997191 -0.11562867981061375 1.0348543671295534
Ni 8.50945810750856 6.689172663486976 9.032674782218336 -1.9481621463021612 -0.2979227221592611 0.45860432844445537
Ni 0.5297190760742246 0.6594262293897083 3.954807863701371 -0.7172061415169068 -0.6916300928200154 -0.42151667956353855
Ni 1.0355106417719329 2.288019812501384 10.815769954451872 -1.0368305170193177 -0.15861546778478489 -0.43148278963731496
Ni 5.92418697731955 3.4220246069898335 9.64585454749745 -0.7080548140349419 -1.1306634411110785 -0.21390678415792191
Ni 8.99587605485929 3.969993338579552 6.645233087023956 0.7008248719454059 -0.8167098907411999 -0.2323271956466386
Ni 1.4066855476549869 7.302985348819558 11.884057010695747 -1.3928223754071691 0.9737071061962713 0.4962483640494744
Ni 3.1959146088492045 5.370884028685322 2.5981276066753907 0.0774259434886473 -0.0438535068498406 -0.1530855391054912
Ni 3.299890383571738 6.009239640108708 7.320748567962081 0.15185732312534492 1.0772153485942675 -0.6065492038892715
Ni 5.9932462017852695 4.212723246130021 4.166194870030545 -1.7142321249447767 1.8810262718856121 -2.6112326823169285
Ni 5.470400803322288 5.3316927345448235 7.7304155156994865 -0.7200150717206116 1.0587440292629573 0.04331306096533831
P 8.272587547177968 5.154401417093076 4.5348040083023795 -1.405228976601638 0.4579330134090435 0.6071163892466511
P 7.169722050807733 2.022921202042329 6.659755239575358 1.0558142572106721 0.6486039669674766 1.1630446856552616
P 1.3898261051826994 7.604308728568795 3.7977478772163678 0.2188150200928167 0.6188591316048762 -1.4740016152906614
P 3.5043871292315 6.823384880938497 0.7350376043943845 0.3220188438765164 -0.11208775653689085 0.1597909761501248
P 0.061922981766793915 7.936172573780127 0.011791475639497655 0.7178756567801056 1.0312321969959337 -0.050933039404441306
P 1.1196420235516755 0.9960061120882342 9.044419272526355 0.6038503169008697 0.13901774815851542 -0.4211752370637198
P 2.508620550205714 1.4132819196823958 0.8546659434668722 -0.07551818494297316 -1.2051598696577568 0.8789272448102088
P 5.973982215878411 6.976013505768217 3.2843631134390643 0.4485065778888211 0.290324598097029 1.235798677589536
Ni 0.8723112386401903 6.1316963118800984 5.351171378926876 -1.3700112910499245 2.635783117962783 -1.1131609134509408
Ni 4.142042567087731 2.941742391161806 7.055777094282324 1.028174384006216 2.9015444248981512 -2.2775492576182903
Ni 1.8621668787095726 8.611351787149816 1.6529209294462783 -0.44919100555035546 -0.48595829497737597 -0.1373097643284732
Ni 3.3523573370579003 6.265134653283711 4.74567786110931 -0.23971808879407103 2.04003666111597 -0.0609315453780499
Ni 3.4164508568828755 1.1289653873669514 5.550746641434346 0.38468099879242784 1.108444481811878 1.6978896790310112
Ni 2.0748169613026537 8.458253309005297 5.717016674170467 -0.3481556501728843 -0.8657382569237605 0.24780652222916033
Ni 5.311627234159773 0.880649753056402 2.423120144845981 -0.999135316461389 0.04570778644975999 0.8997056150081408
Ni 0.18168398530463736 4.3280492028885424 9.067058832051709 -1.6452661392980246 -2.57525292178821 -0.4462334655839283
Ni 5.74811175080023 6.773257981216248 5.695617158883785 -2.110210551027895 -0.43121436646727673 -1.4553626600332354
Ni 1.9835640773201364 3.270501519371412 1.8426532256491615 -0.6785742880773217 -0.1653694986791668 0.38512708519091093
Ni 6.9746315842540945 2.2711695828391907 1.789687859136906 -0.2714246758687326 0.40077430480986465 0.25350794348931177
Ni 6.563620487523952 8.136689385479219 7.5441085422896075 -0.5589814814126374 0.0560554482326712 1.5604305336088675
Ni 7.462320899397815 4.855519432018785 2.292690707219116 1.015819204874973 -0.10255384890452661 0.3801861962458678
Ni 6.230061485255297 5.599186675628357 10.359529487845528 -0.4620025554927269 2.849453617740183 -0.14757257970706197
Ni 5.266963530823353 0.9777923865321073 7.2610421883039376 0.6745769939924704 -0.9172148275364979 0.0769070948706998
Ni 7.287756573733934 7.16382585234748 13.153173192900908 1.3552529017938273 -0.4662500179151712 1.5385905549156405
Ni 8.997313253233974 0.9514621752830377 1.5148872383677052 1.2584745219204971 -0.003009990470917397 0.8928006603581914
Ni 5.871351511429622 0.8613093008257611 9.632882910884893 0.3339022255776637 -0.5668770821106301 0.11996124574769661
Ni 5.510679209053895 6.025527888355159 1.3926820763118848 -0.1433127759894435 -0.48038825708876615 -0.4907981395681806
Ni 7.843058702158593 6.703148496399796 6.2761927892397145 2.2793127772766164 -1.2569894527345384 0.5171594031705288
Ni 5.499098706765554 9.001127356612951 11.844333216131808 0.5606138748097377 2.5638716765344616 -0.7189503779015232
Ni 1.0174719596075947 5.926351987691675 7.6775450411312 -0.3506617044241896 1.4582638928404303 -0.9958833851829946
Ni 8.04614588787395 4.501259245468584 11.02060296768007 1.5276016600043048 -1.4140895123160613 0.7013344645919729
Ni 4.057819057207047 5.397398496136274 9.545844887520447 -1.1413705431159376 0.3749414029071607 0.5708610064590427
P 0.08950152878362042 8.238583065120475 6.817880226907245 -0.31689952037208 -1.0693310607501842 0.8629833198864427
P 2.2843807525141964 4.268995090185066 8.433599829193362 1.2040000450217005 1.3487467252441934 0.254448195915394
P 7.413778603011759 0.8109677426283182 3.7414391819209465 -0.31489945922291573 -0.6003083651858823 -1.5484602486208687
P 1.6142962231265703 2.3445772536693474 4.983250437569075 0.9861059940812565 0.8806180022490704 -0.6811153093316206
P 7.206140289109893 4.7179537516929955 8.508138833103079 3.180247122485536 -0.647813095635065 0.4502243319108762
P 4.503507171131556 2.1199228795235934 11.059625667395844 0.40926640144127585 -0.7468039097786816 0.2567904708953255
P 4.243530883084846 8.132156682912898 6.630926514228755 1.5505245873490652 -0.4954124984117404 -1.2527715579984489
P 8.199023258576212 1.748913804222234 11.26370415147733 0.028383693349015634 -0.5731847694962128 -0.5690892592706005
