# total energy = -381164.6468329787 ev
CRYSTAL
PRIMVEC
9.30932935989683 0.00000000000000 0.00000000000000

0.00000000000000 9.30932935989683 0.00000000000000

0.00000000000000 0.00000000000000 13.62514451964957

PRIMCOORD
 96 1
Ni 9.043426996238097 7.987488384337072 8.937359290183007 -0.3332813041642131 1.2905207517227646 0.6379706556233464
Ni 1.9675546905624457 1.8698905161306154 11.733443363837193 -2.4162083368858065 -0.6971062854432382 1.3651362223458103
Ni 7.823802446005658 2.9017831302661814 7.1223668202864925 0.04337373899994466 -0.996828265594767 -0.6694664122387826
Ni 1.061822108063536 0.33767451147778554 0.1026223232548588 -0.9523615506409598 1.79705635663086 0.4491766073726522
Ni 4.7328258149313465 6.795614944959776 5.140235581794834 0.06864434064127534 -0.1908020798196585 0.3133827654680732
Ni 4.385252693533309 4.175988278601166 5.2573441524840065 2.004316582006542 0.43188670994395295 0.36641716748623343
Ni 5.737172123457936 7.299165879969987 7.609043664878713 -0.09813669367343744 0.12123908401885573 -0.2662351612479931
Ni 7.368967231594223 2.266160739468688 2.0903829132171983 0.47954236414870316 -0.011203324914987158 -0.525121852550715
Ni 5.203067969451892 2.460288184843481 6.664889618199549 2.1673281219764933 0.6532754043012168 3.1146582808411325
Ni 3.77793066402385 1.3543212369023603 11.08484562976231 4.172677001902291 -0.30052236456563725 -3.140609967709888
Ni 0.7906990613265484 2.7831077994438598 13.308223484240399 -1.3362069409059698 0.7633103920741371 1.1675808829627181
Ni 0.8165920300392253 7.255142061374226 7.108864568966701 0.890484353520189 -0.3218599497011489 -1.151280860251114
Ni 3.6073185846403635 5.848772363958248 0.6349288457593493 -0.6865092266536822 0.22086238954014864 0.34351583740802777
Ni 6.309630714472761 5.073016638138131 6.691485441279741 0.6858440822658575 -0.8838743044028392 -0.09419544963750229
Ni 2.1220057741577647 4.024525489733959 1.2216902904198774 0.21378285698554794 -0.6440608276814843 1.6054199538353642
Ni 1.6180452286552265 7.515356435954201 1.4643900927211333 1.3091111131304423 0.8379790845326214 1.1144143262420678
Ni 2.7559059390216114 4.243657793799429 3.780500969863201 -1.513074155812091 0.16957068124470798 -0.7217587938845956
Ni 2.1322739644540483 3.7589675600949928 10.28440900991363 -0.33733619095987705 0.40153792244876657 0.1424015770290838
Ni 9.122407346622202 4.924253554788532 7.099395119130455 -0.8394214734061027 0.3758099215550431 1.6354283272719965
Ni 6.219032321033569 2.699491403032965 4.49234628768509 1.0566182411692062 1.32728572715694 -1.1787590110667248
Ni 7.859857478659788 4.708184020086142 2.2610378155157913 1.1647542121472003 -0.422801202702917 1.5153326128289646
Ni 6.127233024105509 1.7604500400443892 10.838312245626051 -0.02159109590721443 0.466333578767913 0.0002445119106382886
Ni 4.214193766340013 1.7392247690783638 4.95434782384637 -2.628713098489879 -0.47272328434434074 -1.130094455981486
Ni 8.02921279857818 1.4358709621928791 12.888419276252279 -0.12102285424299157 0.5642442724734734 -0.30299422314489755
P 9.50175320916368 4.784325025012072 9.545763063765383 -0.6041336524692434 -0.8237300308127748 -1.4878737452870634
Ni 7.814167290106607 6.855855615319929 11.564382218726925 -0.8416411067652408 -2.154095168225987 -2.2034032704324957
P 2.4746897173805165 5.50556531803524 12.163316542473057 1.2977802614986553 -0.08530997422241436 0.10145907317845107
Ni 8.559407034248377 2.0591864195618266 4.360155672481858 -0.4840441086737986 -0.60482656477121 -1.0339285128811744
P 4.646100102510517 1.4064627907096885 8.928257558856917 0.36592325856895047 0.539180130415994 0.03175595225535821
P 2.6822877623552395 6.110187642027091 5.01681900952383 -0.31835219365820655 -0.09906434769402939 -0.31284334802483543
P 9.262773414879101 1.1543196046944257 8.750258526617491 -1.1805531268526699 -1.1945057323780202 0.009069052180803736
Ni 0.15958052407877552 0.550941938039486 2.5723455134159128 1.067089315903859 -0.09160583453345514 -0.3638643191573927
Ni 0.9697156032662309 7.654419198099153 13.026128461906678 -0.010206251109040488 -0.06973448838166055 -2.9611166280348296
Ni 3.3555663904586854 0.008250858621573839 12.759593983616687 -0.5213379600282505 -0.45797980748657907 1.0151962265789936
Ni 5.704961843834054 5.020726135060865 3.3824554574140664 -0.36538435534634495 0.09019866977328338 -0.6324322423036205
Ni 3.228400951249954 0.18596130165049607 3.199320468160625 0.12738839144970318 0.060553850323657 -2.294979794389912
Ni 1.8197318494793235 9.355317458156845 7.138322079895557 -0.1779113398999194 1.6759496844248103 0.8747435457461645
Ni 3.9986734820705148 7.157831641458497 2.616041643617812 -0.19495286876323845 -0.20398129751409388 0.362759259018672
Ni 0.9256266193648728 8.93083996682445 11.041299379763284 0.7382076834692384 0.48647148716836863 -0.5750789011951322
Ni 8.118414792611713 4.390009760841923 -0.05755120510485347 0.030422063935283086 -0.3575476329107455 0.06137377512179107
Ni 4.917941829474951 1.6562600257234432 13.169124415710902 1.1400842202043462 -0.46380001371278196 -0.25139192558757345
Ni 0.8762685550394925 5.687097240770983 0.0361183360938533 -0.17936966961300077 -3.062271282598984 0.7393736787528815
Ni 5.548108953261001 0.6260598476675368 2.1442299361653054 -1.7075917368101234 0.9089852405378539 -0.5964074874695793
Ni 3.095677842406698 8.632475960481857 5.295671592437613 0.46728771515106615 0.7971422530219175 0.39903623907283536
Ni 7.678483814523352 5.893587475550549 9.044943485992642 0.45110647740551335 -0.45656621496850397 -0.6501314593555965
Ni 3.159884287078925 7.639598745740418 11.458637546401013 -0.284018196263027 -1.4254594447158997 -0.15831387738396605
Ni 4.071667933669026 8.395320794754006 9.310687602219028 1.0703795566193566 1.1992789853969474 0.5726119277118783
Ni 1.031026846504057 5.552735689958419 2.6892083178096877 -0.5597348146388941 -0.2844347149751553 -0.19313252772504805
Ni 8.669275739485672 6.889248179773935 1.6076578789429934 -1.1006316706356787 0.6925479766485944 0.10428240155985911
Ni 6.9061818498999 0.775801341534035 5.599239513898632 -1.6182991237908773 0.9564259505183206 0.6795585063674618
Ni 2.1865752826754634 1.3893801713137865 9.29063158302201 1.3739463644382726 -2.031594186775572 1.758306746666488
Ni 7.401912948238418 0.09298158175818515 3.464874674067843 0.3489184964808378 -0.024016417519255415 0.18915066025916458
Ni 5.248106504949099 9.165258189717207 4.437681905618204 0.22960876827421103 -1.925692247334419 -0.5285100522966575
Ni 5.5174254036539745 8.27861904175835 11.39778804589999 0.2612248525175953 1.5097245226135676 -2.204082555887707
Ni 0.03055414992876847 4.406366252546882 11.642740705909043 0.06591305775304132 0.27360651401139974 0.29770906348655823
Ni 7.137388354159641 6.440948114580987 4.717774491204211 0.07458307472321349 -0.3687409305234037 -1.482762649312743
P 2.1072411777752578 7.695696764530449 9.084823722085343 -2.6192835776458634 0.6798708954015582 0.6724128964616162
Ni 6.2779510666230305 5.425700581360883 0.8322847665600275 -1.1122551138072199 0.8624166487496953 0.48229010209716944
P 8.280518144950047 8.29384910460941 12.758953501755958 -0.038312779537269505 3.742833804750928 2.1289230398357333
Ni 4.9675512456933495 5.459158311120486 12.499435465012938 -0.2718756473632221 -0.3809397865824407 -1.6895636756638193
P 6.43703819624514 3.127180612998378 13.257211152085782 0.5392760325639099 0.1892049105358677 -0.38555260276410375
P 6.56340303312796 7.99455416532971 9.425303134502629 1.368216918153663 0.46480814326232206 1.0730738156220678
P 2.338568703316822 1.9538792857163527 6.071010260301906 0.6255733104002581 0.4089085038812248 3.631916928593687
Ni 3.7965493227659777 2.4854885394509503 2.6986917316399905 0.10915978425681845 -0.3147441645919741 0.7713803135664651
Ni 3.5932521879606862 3.363376917801008 8.229723651102713 0.776189047809018 0.2020174889195037 0.9889635181347097
Ni 7.9112542861174315 7.1052711678294695 6.715029666192099 0.00865253346867542 0.8574083969018266 0.8069147590276491
Ni 3.2046342333656286 5.979829102844085 9.836917925443027 2.6262350692630316 -1.1195488192551557 0.34803275144177476
Ni 0.5170541172629396 3.5843524690819493 5.338017869880707 1.737707839469214 -0.3169051767990349 -0.2288883451684187
Ni 9.31966272666567 2.273813008211702 10.756520477771884 -1.1593407544411132 -0.8272796958372461 -1.323230840361276
Ni 5.598779633027701 6.103112551705082 10.016483717815602 -1.437624362213208 0.6345037801206684 -0.27159102624326775
Ni 1.792632391680157 1.7344304644522661 4.243360826192492 -1.5335133975030493 -0.037009487344813685 -3.6367110075482207
Ni 6.790206224595187 4.62836583005864 11.190985017653556 1.3698873638775502 -1.7604343345324522 1.5019865305393616
Ni 3.2354574229132207 7.465011582715488 7.262692858427096 0.7009544555447348 -1.8929929573291848 -0.49950929418893325
Ni 0.34293614443831083 6.0388874883741135 5.021846978317142 0.1935153649857635 0.32183269600763925 -0.051501510313401624
Ni 4.570917958509805 3.821721749385334 10.711721192039514 -0.11546567187018823 -0.16685096832069976 -0.37157968552377946
Ni 7.518782269162752 9.220620771486924 1.029319515497404 0.7494896841409608 -0.33832837966981727 -0.7773316460538935
Ni 6.961991279479427 0.3284210380829482 7.847511446047883 1.1611433548674905 -0.06956119602858987 1.7471790121844426
Ni 3.1906981672971457 3.55198393085876 12.870434582840321 0.2710312970850558 0.9318420905313693 -1.7580151835679982
Ni 6.548331228876208 3.510287444605766 9.122279808809818 -0.5714055661086029 0.0396536098358801 -0.8010472445032786
Ni 1.8561685646376673 5.436173576903331 8.20150614284608 -0.8281484715954446 -0.3787700326246315 0.44248274029224444
Ni 2.426458081909035 4.301952814321031 6.397563846913019 -0.10594461975363045 0.1524227087105117 -1.0109829598285942
Ni 4.757113855260453 0.08691562273999998 7.048655550326409 -0.5227132431092223 0.7855231807257504 -0.49077191431593536
Ni 4.751193121780456 3.5359253376936755 1.0081761666298439 0.8437594386598244 0.9869256617690745 0.026813777758734468
Ni 8.892662407073718 0.23415849260330465 6.147842017467169 1.6298436340953673 -0.9612184868109576 0.28884235712454776
Ni 1.0868735134010685 6.329170996822624 10.75875471682094 -1.1052038633873933 1.7855918076346862 -0.27407188368359253
Ni 2.804174811810577 1.7539055814965314 0.6358802592210719 0.20264123854643165 -0.49793295084074896 1.1659711152734369
Ni 5.577200607545575 7.543042381503745 -0.26001701679730854 0.02786664450328104 0.05226898460704547 3.0130022611605267
Ni 6.244083726371102 7.735447600944891 2.3110019171832277 0.1338871118001694 -1.9194580934992493 0.29230126220742564
P 7.895977676619515 4.313989777197817 5.140849066600388 -1.7736130380062554 0.25388563854370466 0.26564432174152963
Ni 1.22585249158168 2.653782595821042 7.892201812626612 -1.5212744322346963 2.6144753576239426 -2.0160863209479603
P 3.4966678957358996 8.6507036273904 1.0675668952184196 0.5964067161386309 -0.13220381056047553 1.4103670691591519
Ni 1.799791265966505 7.655108088472611 3.7751192465537886 -1.7138919679965385 -0.009264456021061466 -0.0321326188684866
P 8.744625451415061 7.855109720680545 4.104356712822579 0.6704362323512195 0.1303914399420851 -0.14036346355313245
P 0.566562992724131 3.316644084358268 2.636861027823259 -0.43961698870867516 -0.4904955207260972 0.43252254375573895
P 4.4241936182924695 5.600483240302606 7.603171339911445 -0.7981863780157157 -1.427149430823813 0.667004066741219
Ni 7.900706815940016 0.1379074743700019 10.684674797417761 -0.6085176404695519 -0.5399378345176249 -0.25579108309653364
