# total energy = -340870.18857239455 ev
CRYSTAL
PRIMVEC
9.23618225334372 0.00000000000000 0.00000000000000
0.00000000000000 9.23618225334372 0.00000000000000
0.00000000000000 0.00000000000000 13.51808633537777
PRIMCOORD
 96 1
Ni 7.108960181977908 1.0065406707561115 10.87123128344912 -0.5823996032262615 1.8837418710445621 0.11298609998144413
Ni 0.2106726993485981 0.36008641983182976 11.090170365923916 0.9003211371049528 0.37067851386574874 -0.8786526509925835
Ni 4.710609969691312 0.956665286531011 0.9568453920851572 2.6031501624191105 -2.5332485523319663 -0.7111645633085172
Ni 8.735664310844088 5.764578436372587 9.268918988323694 -0.9575132700452283 0.6600631166470116 0.6542051152043378
Ni 6.178922808913742 0.7324532676017509 8.371007828028077 -0.36922558346930606 1.4378457341953947 -0.1350595348417158
Ni 3.702582273590711 6.431846424028585 10.43348889037881 0.7767382354442687 -0.025297855334840302 -0.5467332601729036
Ni 6.887966048949393 1.6140505591646273 2.4123698133449816 0.5817159468956756 -0.8437087879275469 -0.27062043479988235
Ni 2.0537851967492635 5.015995100065149 6.656332757571084 1.0637563948758841 -0.35180610244127797 -0.8716181127433054
Ni 8.650968519484056 3.512353863683272 3.1484159558473923 -2.4671272352228604 -0.558744939921799 2.466787335384939
Ni 2.799126633082071 9.059392499194047 1.7806020158385394 -0.8379975964753825 -0.6301933256707728 -0.8449349470251643
Ni 8.494655370849685 6.192740137580548 3.9092012125436795 -0.5758546030188921 -0.8220552142135132 0.36725740399934165
Ni 1.3441231325019305 4.96390303209671 4.0972369527816666 -0.7162815728201083 1.1049171853849102 0.4667215582349511
Ni 6.324586639397827 2.517746340412129 6.262848302672964 -0.04907747425294129 -0.4090861671096696 2.1326927912908107
Ni 9.073782471161215 7.079099604718696 1.973938401077783 0.5002963088666029 2.7395564410967075 -1.1633182510316222
Ni 7.140649523325375 7.994830131456068 10.769507666467348 0.5789000747134352 -1.4624090253570556 0.6201868492773642
Ni 7.095641607153354 8.098718709560499 0.9619945636972856 -1.5794248153231831 0.4699549775705842 0.4765681120117277
Ni 1.7531382278768104 4.033450030830669 13.325629420567788 0.5575450060764269 -0.5634814261655198 1.8197396571609887
Ni 9.158118051412954 1.2469123141743044 7.148878038104289 0.7218292421112149 1.2568979214619966 1.2768720505910784
Ni 3.3338184605219396 5.709124398060086 12.83854549460723 1.0642783288176252 1.3967163111449366 1.4882797224762303
Ni 1.8336130839422364 2.6643153167580773 7.711000403249737 -0.3303610451936246 -1.2557195848831795 0.43647972863127404
Ni 4.037107559007176 8.855005021876037 4.807342353777668 -0.13334795146724776 -1.1551470280747396 -0.3232979676992561
Ni 4.600773290208923 3.8944547239411254 7.033797977950681 0.3341207693463729 0.09079902236144362 -0.05559367810490426
Ni 3.862728437864603 1.5840237306246638 7.646357287202876 1.3700735117464276 0.19470629997007113 -0.07844487167146491
Ni 0.4913140974374275 6.259573152442182 12.912408167789923 -0.06710630673019409 0.004684807070179029 0.576068261691595
P 2.8815687959697094 4.33241601453109 11.405101090667504 -0.11180133564472358 -0.8703976100726429 -1.199854141174127
P 8.947098995229458 0.24770147766282968 1.7852662878818126 0.733530332598227 0.32818486347791226 -0.906250358105194
P 5.504515252367744 6.0118033270305995 11.889832561005441 0.3266702266055987 0.9274437043533575 -0.9028513597259741
P 7.798884524727271 2.5471543447404104 8.158084271061764 -1.9154805969087396 1.1814424714361589 -0.6539366920342995
P 1.4386739303375515 3.3258661075927156 2.7119583157299907 2.610683237571362 -1.7253467468006995 -0.19355881662918922
P 1.9822140203862442 6.589295623081417 1.0599017901676107 0.5345272050250149 0.041023493600213214 0.8057137967410124
P 9.271464480155625 7.582000492806195 11.13626722798485 0.160845128446252 -2.152189209452526 0.1088499663258835
P 7.308406301784726 7.239005628253725 8.364897169842276 0.8657840225600315 0.2417312625693579 -0.5936605208520614
Ni 0.35530115380089927 4.933922384468066 1.7020085701002712 0.7302570611635939 0.4560365677172791 -1.2649246484212149
Ni 8.006384595468216 8.961673690841906 3.538061853396632 0.04475236451502615 -1.057275672247547 1.2682382861754804
Ni 1.4752492121026255 5.872567879402195 10.650386776573281 -1.6148906123299607 1.0726207872450495 -1.6595956685468192
Ni 8.292466104910487 9.182584698230045 8.80464011999095 0.40773273840556873 -0.970406838178445 1.0313244995994237
Ni 2.890574073677019 1.4827859368299738 3.421157647245902 -0.9441803003817482 1.239747377824639 -0.1908416748083423
Ni 0.21310273890223216 4.209750277884136 7.7271951252312725 -2.266257229644239 -0.2570411534535509 0.03852129600364979
Ni 2.9869536356008934 2.298257705092631 0.9332035363442331 -2.807262329084114 0.3111034825155932 1.2380224247137321
Ni 2.921755424999971 0.06418223055189322 10.992893970702216 1.5568438446988737 3.367605209620652 -3.3755010674289605
Ni 2.8115677705915543 6.950688962703589 3.3724783486239778 1.110230112957391 -1.424406063750721 -1.4605992258418263
Ni 6.365521399191465 7.139495000542386 4.058927115987432 -0.3856199656669294 1.7200777850922762 0.10407697041727236
Ni 2.152464568056851 7.248426534162911 5.56496329443034 -0.39421927730016626 -0.22290898765653222 0.8845710733595474
Ni 1.612489644362027 8.759779982735152 3.7438476887093963 -2.431187583903458 1.1419099605591752 0.9209714663654526
Ni 6.629463779747151 5.021758477797827 7.72635647988171 0.7367372695712989 -0.6964604243291231 0.8242277963847999
Ni 1.6238132038175774 0.07598514786694062 8.766870599859152 -0.2699414064549867 -0.08949624438962006 0.6935777034646894
Ni 7.234581496949313 3.5986659869394875 1.0414562105683611 -1.7396065991538232 1.6977721796165406 -0.1932628826553252
Ni 4.857566865692343 2.836634769255799 2.3881728630499968 0.20356195058848814 1.3310611350389723 0.4093558758312885
Ni 5.6236065864785685 7.338922647984677 6.804626129145704 -1.97843971423978 1.7146008211381052 0.721587558414054
Ni -0.04042492253267035 2.466014483551983 1.1352893570420766 1.624768533565305 -1.5277307293830014 0.11659772859210242
Ni 5.455969878388647 5.585165595896185 0.4067808628852405 1.3344529343293403 -1.4658684446605659 1.116134137146652
Ni 4.892932207580846 1.8216984088217956 4.5076467116783965 0.16122616593475458 -0.3704707687303168 0.47267674737712145
Ni 7.522713438854172 6.6322808153376425 6.1214488175401245 2.7137405084748685 0.3851666801795947 0.1011446272618258
Ni 9.12487703144515 2.3103663400406136 9.756206110294057 1.143418683894218 -0.1521465722309896 0.15917108317793877
Ni 1.4005007890408219 1.3816959219515064 12.897349496226848 0.8280466559102577 -0.050564343211112917 0.06634114642939543
Ni 4.375401206787316 7.400278606763814 1.4032993522667858 -0.000601895250057028 0.7142640281694473 -0.10495988724285794
P 7.149350007017976 5.841368055714715 1.9764931290919798 -0.09312561361209123 0.5633045342680234 0.4138879593736872
P 5.376714198382056 9.140606249840586 10.180322363670426 -1.7119505279994516 -0.20291454681247637 0.9749782595992111
P 0.20991810325763688 0.2580238349609727 5.395351890572395 0.8966971671991202 -0.6540395361607511 -2.7157577960152133
P 4.943703501485545 4.29691212990863 9.14403933878808 0.6729831671427894 0.23278485200934748 0.2714925529921905
P 5.63545660832316 9.069118199117941 3.0447056360606544 -0.15079237219594033 -0.0853462267769885 -0.21157067982557756
P 2.122317669147457 2.033253163576597 9.892805551504344 0.1503722539393862 -0.5989173983756266 -0.10245177610902355
P 4.190104918208804 6.511453078961204 5.313418641327498 0.2728238702091043 -0.6278816468184606 -0.7418995304985287
P 8.78549351415787 4.37744240306764 13.184311213838871 -1.0848854635450154 -1.6334282661228319 0.4365013258978289
Ni 2.242249495844296 0.294260148836961 6.54428124158181 -0.6512696867250977 -0.0714941513852446 -1.5345734633364474
Ni 8.562033320464892 2.1199809150346884 12.407724696525491 -1.6050142337565132 0.7301794138481231 0.0035044136088326744
Ni 0.8232329322190185 2.62903310050995 5.406707776665869 1.4625463222658683 0.3802414749638355 -0.4611093542544962
Ni 7.312368623975943 -0.02686066525989579 6.311351190213648 0.9410402120908695 -1.4389633927396057 -0.2612593052999565
Ni 5.93803393928877 6.275690290492701 9.75423233814426 -0.18415963480247638 -1.4913249370604573 -0.7327471745752993
Ni 4.8666183243109735 8.11654454132984 12.344540897276326 0.5511689273467539 0.2709148261118495 -0.17175971847622676
Ni 0.6986506877523022 3.9233732106094195 11.427568104024456 -1.846289382625059 -1.676454391975371 -2.3390248484252685
Ni 7.908591897657963 1.7717029542272644 4.778805321436873 0.5566790585317059 -0.27910044724643546 -0.8428716367382322
Ni 3.9108027665482417 5.908524336955587 7.838043166671559 0.4450736409478722 1.5340376454376354 0.40671072489895765
Ni 7.947503933535805 3.991536235717057 5.6678903859610985 2.8465068764070334 0.06783084360104447 0.0638219795519675
Ni 2.2188265376230265 7.539163079466191 11.897619586272143 -1.247753278848251 0.32861783725027277 2.173561761591031
Ni 6.133028219244386 2.8411420262005858 12.462918274498149 0.4272037026459869 -0.12390197556299952 -0.9304562659274362
Ni 2.4755185151015437 4.3669131552867855 9.176861036081101 0.7066221953534734 -0.2789374393060099 0.4422652249647996
Ni 3.197751023410055 4.749780618672543 1.7815219395920245 -0.7152299916271424 0.1226087106728727 -0.764883907208844
Ni 4.472963000040972 2.271408123251452 9.923654400265793 0.5864604035591965 -0.25540181807791495 -0.5424482596443045
Ni 7.561034359067125 5.22048417538806 11.589312127830004 -0.11839775791531867 0.6140118308149038 0.33187053985961557
Ni 9.066384289167825 8.602081406761194 13.309420844312855 0.41151817358993 0.664238845291256 -0.5908451628904533
Ni 6.142301346237349 5.071790877121414 5.3633281994269755 -4.207367097085308 0.059896162135000076 -1.6549717966215625
Ni 7.014834248526427 3.4616287506898917 10.115300564150745 -0.5688144083426591 -0.11954986924189089 -0.9535982512615384
Ni 0.16893346807977372 7.93486883619878 6.875041859107507 0.703218568988563 -0.7866506094619743 1.225472870183496
Ni 3.3543966746059257 3.9177021946993804 4.046315109106065 0.686396612335218 -0.5357942446628966 0.7660025941943195
Ni 4.993939096818938 5.720928238993361 3.0497070287565604 0.08846934578700247 -1.473820609628107 0.32035996811685474
Ni 4.04531852503979 8.665303074357642 8.508743319656825 -0.28858498969810303 -1.3302041863553153 0.2087041569110599
Ni 3.577921521574751 2.373237032711032 11.996990747631298 -0.4411827905338982 0.19078588186974238 1.1662338820165206
P 3.106340527544162 2.9206932640396213 6.020914820833944 -1.3980154895723342 -0.7464629814994951 -1.863720947837945
P 0.1437935035756439 5.671071327132789 5.848951884971609 1.5030100867078697 0.15812001620560512 0.45368632231754763
P 6.68569365736982 0.8156546446714824 13.191462789765815 0.5509879216841995 -0.4286422348647263 -0.42486554143111344
P 6.42216690501601 3.284672734695688 3.952566935509178 0.2779730185102116 0.5158036604735826 0.17790671191422908
P 2.2958378253394875 7.08712584710603 8.67021672332204 -0.5091833269435877 0.48287657072825874 0.2902310099419582
P 3.037540205860315 -0.036633469713336315 13.042182070307183 0.5828053233051124 0.6231369330446236 2.761053177517903
P 4.670284797927091 3.336173686999236 0.33164821464125854 0.2434808982706129 1.6689732531069772 -0.1235286513839808
P 5.340563781001123 0.5128537980950862 6.3543252990511565 -2.0973504072357754 -0.2078783185756549 -0.3206150215504543
