# total energy = -381168.5404105745 ev
CRYSTAL
PRIMVEC
9.22812035256729 0.00000000000000 0.00000000000000
0.00000000000000 9.22812035256729 0.00000000000000
0.00000000000000 0.00000000000000 13.50628692867870
PRIMCOORD
 96 1
Ni 5.394113129228771 8.745646438152539 0.010415779325202323 -0.726166436033988 0.25209923606724327 -0.17496819811119546
Ni 9.057178549643195 8.173973616838675 2.073120284269527 0.5087189857126594 -0.6669292476392257 -1.5612460875316274
Ni 4.761608539232587 0.19794041090794032 7.22557939697019 -1.3181385134400332 -0.4770519936266816 -0.25549129246792773
Ni 0.7438889242153071 7.337592166178279 13.2449133608825 -0.6868583824629848 1.609880817820195 0.30780218605650217
Ni 5.307553361291855 4.392216113779833 2.3168146381847197 3.0871719024954056 3.180023179400188 -1.5930064106623598
Ni 3.2343915504812064 4.746991196757953 2.9632795284937994 -0.31416823748384604 0.37303930078844144 -0.24696500016447143
Ni 0.4800689628487688 9.080507237633016 7.632091936125103 -0.10440221496717504 1.661526824131261 -1.1646346558502008
Ni 1.5167523003888583 7.379294041584134 5.745088072288295 1.0148822948830005 0.14273144956467676 0.6907062954541653
Ni 8.100942273186995 1.784903018588317 6.703602771634009 2.127919538271884 1.0320778328256806 0.05923076063685928
Ni 2.1300162596655885 7.281974285436723 8.120277030732987 0.9331214714644253 3.4489525996508927 -0.5573292905211951
Ni 7.262770567198267 1.1847983587868578 8.831275088756318 0.5847966427035283 -1.6687133145773712 1.6403872139391686
Ni 1.588104126155195 1.4207521654370732 5.587577901815879 -0.5122079727025243 -0.24583757142824758 0.3869463977878368
Ni 1.7050797784332712 2.2879739939700876 10.699099227467315 -0.40248100308832624 -1.630976976368862 -0.2580577676435233
Ni 7.31627520840277 8.330731695510785 3.454935319127386 -1.3620272444031833 -0.4145312493846409 0.3069303249745101
Ni 8.831034234817814 0.18982612477287308 -0.40724709752674426 0.08161889852407234 0.3670874540803807 -0.536822685927411
Ni 7.282214216563201 4.111339817756813 11.474400673010688 0.8732145106961477 0.1588484097311974 0.9319765592267046
Ni 2.180097268257662 2.5102148139300837 3.3273685532393737 -0.5950982817398525 1.617586413994569 1.0556350513203303
Ni 2.738841493102483 1.2827179427504636 8.418428367862395 -4.888419157279161 -1.9253153236109746 -1.3751123597219157
Ni 5.159884981065145 3.953751208262279 13.371250941153326 -0.546898324995858 -0.4537683405083927 -0.6245217292072921
Ni 8.981360313676277 5.644573540910631 12.320542706458598 -1.7864317870374782 -0.893989795570286 -1.8888653083140567
Ni 2.2734120202169477 8.9232785248282 11.666892801723538 -0.9719415296554164 0.061079383809823834 -0.3853219748105364
Ni 3.5237208046524375 6.163692217405654 9.578294191360131 0.08693619697192768 -1.2079500308083841 0.32327765598428193
Ni 4.23055790325543 1.1713899000648598 12.040220097650524 -0.2737697790621414 -0.27391864593517984 -0.8372517194482936
Ni 5.517880678010212 4.867436622249704 10.089857805807183 0.5261698341992551 -1.2793750195185902 -0.7707593921530146
P 7.003192772710258 5.873071026399543 2.16796136731802 0.37888444671530874 0.39854901502377166 -0.4388466862015539
Ni 7.209007538626787 0.4700564523784538 1.0793209443392076 0.5136300498610316 -1.9452989658217528 1.447842183286474
P 0.2210033290345866 1.1676248270032115 9.222511397650806 0.8116599870221183 0.9278617657273828 1.4289913691285583
Ni 5.5509727172236225 6.440729615405032 3.7669842053519953 -0.14666189496733453 0.13740412381449238 0.2694647239288843
P 5.533642307395741 7.74300194496342 5.72838056057723 0.35267770641295393 0.3450487291127864 -1.298008061238745
P 3.681300186026722 5.5784448312053065 12.016840654999333 0.3475234159055241 0.6433681724898339 0.6461555054269839
P 1.9224850633827186 8.732745526044242 1.1152940026943983 -1.0223251243142908 1.1016472563843867 0.8149990786976802
Ni -0.11717590248748253 2.8431007956772474 4.595473767575327 -0.20003516838215227 -0.31143309794087004 1.2955176907167236
Ni 7.477748856522191 6.613304692184167 5.418871253045184 -0.3910794461196039 0.44404777078651914 0.129757405902512
Ni 6.453159893380622 0.7476060110516598 5.512604038851755 -0.39626973207129174 -2.4289478959396624 0.0222572687363036
Ni 3.7766451244408183 1.1678186175284433 4.758345475912492 0.4352589688502955 -0.8548982288854632 0.526623376796906
Ni 2.4860371388773417 5.416297530307699 7.001537247937562 0.06905725980897784 -2.475323140770092 0.5355487043109937
Ni 7.421494235483444 4.54751614945258 3.9559511921296737 -0.6802768725907252 0.6878775677561185 0.4948581685701671
Ni 6.945295546267165 5.854725523344257 7.815116013462336 -0.6799302878845838 -1.529503505012708 -0.4155913152180391
Ni 7.27697264426169 7.136363776025571 0.23211490862657394 0.7739861266204283 0.7799184329444633 0.8502584161206067
Ni 4.211261903814481 7.715566743462732 11.661665994414426 0.4482067872602152 -1.0579747551971006 -0.20387331118131985
Ni 2.9725344102916598 4.9354940090870985 0.5925615943098136 -0.5473492964903476 -0.8724208111502587 0.33395519030278614
Ni 1.6913298792620552 4.0724894315079405 12.165126396470711 0.06061838501300528 0.07546059223216037 1.6710368205042254
Ni 8.687786124190442 -0.04000297846798932 5.164466742768841 0.3259035236429032 0.14733680954717207 0.8567123992760665
Ni 8.85079164027122 2.5649744794884697 0.1470334855535693 0.5541156686799037 0.6093316517304151 -0.7137667768180546
Ni 2.658704496858967 3.773110754385398 9.175806958257892 -0.25756694405003383 2.3121244244899986 0.40201023409949477
Ni 6.465691680678952 2.3426967470474773 1.826833751376351 0.7782729269212403 2.588033875602962 -1.048236444863414
Ni 4.272628903471251 2.3171533101978627 9.124577048694801 4.058994390074454 0.9242038572598212 0.7248060653513516
Ni 4.557408694359657 2.7255714561842224 3.0135358713706064 -3.635876170351751 -2.111790493920505 1.8200790427782783
Ni 3.5544227607213204 5.687096719018661 4.99801452377501 -0.542037397359131 0.5150369575108872 -0.4796081843896321
Ni 0.6308998198848584 8.092618508722271 9.873514677498411 -0.34125120974356715 0.7082296490499093 0.20280553203843782
Ni 8.935201256190085 7.012337839877153 7.467004556116119 0.307953881143018 -1.1872199973498845 0.8656773217788382
Ni 9.071306801744626 5.57862016549004 1.0087655053503715 1.1931386768271646 -0.052720470322167264 2.6190125833726636
Ni 3.4974114338221445 8.57140107160831 9.587707796826276 -0.46280114013462237 0.16218261631075293 -0.11687155107877935
Ni 7.805494775290584 3.5215060557926443 9.12160559397458 -0.21364401741483852 0.9552123898261937 -0.8093956164679738
Ni 3.998452222749105 1.9882723326388254 0.6386800480669069 0.21856279487269456 0.2829946400945191 0.3543360679519833
Ni 8.22391620362701 2.0705410246598923 10.901302107118333 1.0280527708266876 -0.9568242143980037 0.7627576048944605
P 4.559540390137207 4.5896056059089 8.120560334024637 -0.3588596668539497 -0.2773204725278772 -0.2928944157067343
Ni 1.7926638677178421 6.796741266496537 2.3153289108246082 0.6695378889066663 -0.2738605390037348 -0.19107641652696772
P 1.0893980516512667 5.73711313076899 8.817443982126909 -0.3104879604187814 0.45435763735295936 -1.7062074548680872
Ni 3.151716821169177 0.7040926556408983 2.451228669297592 0.4021017653720365 -1.3517541446119494 -0.6786452505245733
P 0.08614542533773031 6.847892737037509 4.213677825695706 0.06129869890948152 0.5677250319332222 -1.2410110750284111
P 8.07678305437475 4.072461747147194 6.942893466566313 -0.525014123328257 -0.7677365461662906 0.04725893298696377
P 5.418180066838524 0.09731606489931215 9.36269300391939 1.0349646674551722 0.5434196224186383 -0.08848991461229277
Ni 5.821790362175082 7.004198637817413 9.609249920735865 -0.4705195918248025 2.6317487999924096 -0.24009629806909616
Ni 0.4789477462384985 1.2955634861372638 2.1464727665058767 -0.027251379516785326 -1.0247741000754158 -0.42730346144864473
Ni 5.005544669898307 8.314130307182586 2.174998731820013 0.33598790446209875 -0.5581772403437871 -0.10786112005005295
Ni 3.4892076349206604 7.877557166316105 3.8403643719490925 0.4641669101338973 -0.3143870383628714 0.8647303844845365
Ni 6.975286937076863 8.283086910664483 7.37720110391163 -0.46170327908475317 0.4798123299806383 0.1810455146535269
Ni 2.9418601385835244 7.24056770987884 0.08327455712822342 1.7684929431708705 -0.09079053772101138 -0.1787718881280018
Ni 5.390929427742818 4.89929209334973 6.0707521271284834 1.1446826382083062 -0.24151066191811954 0.12922595887907423
Ni 3.7487762012884205 2.6525493406527914 6.573280489039605 -0.49084441942508367 1.2381705202558224 0.24939906352726077
Ni 6.003261346874385 2.2251489513139546 7.441545095160771 -1.2046942428752478 1.7073279416257756 -0.2994376161418908
Ni 7.2565969547515925 4.317459111641565 0.5607365760066106 -0.3015515771611 0.08750235388804285 -0.470776445030615
Ni 6.671866343285198 1.8607950795172297 12.85237957828098 -0.704148022781368 0.4017927187720499 -0.31975344488110735
Ni 1.349714095759207 8.738088607668494 3.884516313281095 0.17535849157107863 1.2382962472004093 -1.0367037616334662
Ni 7.9238915580870275 6.113325137085858 9.898231274773703 1.0765255216160945 0.35309448223539835 1.0597971531178199
Ni 8.753813324573025 3.4274622823336767 2.4215824101852106 -0.727537862460218 -0.1698676436598365 -1.8366369471369595
Ni 1.0014263813162319 4.83942927729357 3.4634842497261875 -0.6545005349575695 0.5777446209527534 1.2707422835442566
Ni 0.5779054937301323 4.625336887513563 10.277203411857089 -1.8505152477809488 -3.1873009440085234 1.563598646924204
Ni 1.7591196506122246 6.4563251386260765 11.190404349531436 0.5535094025544725 -0.024476130764493332 0.6098260748683304
Ni 6.11040905108713 6.052105787353074 12.105333714128443 -0.8092824879288771 0.32702760994501745 -0.48349080727349
Ni 4.514359513397427 6.7242174694585595 7.286317961637993 -0.20953230923931013 0.9306514126573778 0.9825972095970495
Ni 0.28100179845840867 5.36467542563402 5.935999424002467 0.1679619419966914 -1.9771899009930785 -0.823866042170007
Ni 6.240525546599979 8.829077873324996 11.356275196949571 1.4117238402973622 0.7090158923966305 -0.3973118001825609
Ni 5.82780709657752 2.835764440079182 5.206363331511954 -0.006179903558466777 0.7128455505553659 -1.6870252255126814
Ni 5.737832924148423 2.6071839015080283 10.731973483042845 2.4916643011322765 -1.874268384336488 0.3079207139122374
Ni 4.997064027389349 6.171194679168203 0.9306706921179894 0.6107395878215353 1.3383970065787532 -0.3582675417959056
Ni 3.907084604162387 3.619222621110769 11.36689122648418 -1.5471656981791613 -0.8030848437585976 -0.22649901900063574
P 8.392329398173782 8.119629216691498 11.487839584529508 -0.11521910307702092 -1.481568371894326 -0.0610007080530885
Ni 1.6955563583361606 1.2415512983190578 13.231744833286978 0.6229965508120173 1.0775241380839378 0.789247166544557
P 7.811280806686794 1.3568751170725384 3.411215253823044 0.5524318532195777 -0.1211534662835849 0.2891712012188762
Ni 5.65369092371678 0.9655289935470841 3.328435323940174 0.4819149781459378 -2.4177972786394815 0.6945241265383587
P 2.1893807572282946 3.8178763657139676 5.297624826715807 -0.346855443304222 -0.18186158279691908 -0.00134520117398478
P 2.5215654018365234 9.077074376900338 6.7767116314957825 0.9295625504685733 0.36018147098916675 -0.8092079259372
P 1.5404962537898907 3.347454479773648 1.3424681757395835 -0.314714082684987 0.02407195334753919 -0.5732462188617675
Ni 1.3811266170872736 3.192357462746382 7.444219404408972 -1.9939794617465916 -0.3499178842796296 -1.5259623246286687
