# total energy = -381178.0683585376 ev
CRYSTAL
PRIMVEC
9.11370151901614 0.00000000000000 0.00000000000000

0.00000000000000 9.11370151901614 0.00000000000000

0.00000000000000 0.00000000000000 13.33882340014713

PRIMCOORD
 96 1
Ni 7.2797696170111585 5.762493241338414 10.375951040999341 0.34835902443294203 -0.01738142870124103 1.230077458835043
Ni 2.265183179930283 4.774777608112891 6.83777423045674 -0.03886839493042338 0.23235804888457404 0.8689343952635551
Ni 8.404108750219924 8.781962816613442 2.493386621340489 -0.40374521451273043 0.27708958746399376 0.44650985917376645
Ni 8.145589491963326 1.9709473252868992 8.406219483499633 0.02816000737398376 -0.43697132355571194 -0.918522747714644
Ni 3.1794879471451996 7.893677667332763 0.004195948195069353 0.19165671451046992 -0.15616829179587297 0.9260259980702247
Ni 1.9341826532215 7.0173679218929195 11.391782443516327 1.1913964973250775 -1.4906955310065748 -0.7431244040445654
Ni 5.1014217854792685 7.873490818392539 3.0561513126562923 0.10043551700994315 0.15387846732043178 -1.0590451054431438
Ni 1.9071787555195225 1.5666635243892526 0.0696569323408657 0.2544386828336973 -0.34952579104753356 1.3052043218768683
Ni 0.5386316096030677 5.444005826862103 5.338997757566732 -1.0279560973478232 -0.8896312614912743 0.4008460385880645
Ni 8.98892586518388 6.998128897914224 12.695144750444047 -1.45890281197601 0.5279868328033358 -0.9408643486346377
Ni 7.368181635778247 0.22731941235955003 6.727168525667425 0.302025431473725 1.2757587629222416 0.08950215792689102
Ni 8.759616020405122 4.4448524981873785 8.068374566924435 0.49385466700631714 0.08584424945932959 -1.332466242916615
Ni 4.961061667859235 2.9543157228715717 2.417515055910531 1.5372196427100429 -1.0382914178355602 0.5075982418446547
Ni 2.6210367707745013 6.235785990396497 4.664666777317911 -1.5804722827510909 -1.1210917382622434 1.063284340335472
Ni 5.892372602172327 5.116322687518666 2.3356949774768343 0.6629157556044583 1.1150342192142537 0.5101467192981214
Ni 8.257560429245304 4.554964240352513 3.2786158561984804 0.018383644713510273 1.0385883802506886 0.3112011844357221
Ni 6.58371977459103 4.186524627663398 8.698993500413891 -0.442350071369122 0.7164258117074565 -0.7054847393149205
Ni 6.183482457182982 1.90057132189349 13.054546305302905 0.9374915755076629 0.6689079686321512 -0.03258101925981486
Ni 2.3546159332713246 3.8145671261747673 12.921318570518364 0.034287460427960305 -2.771680318214446 -1.1432047681111988
Ni 8.926733965785198 0.3969572962190709 4.684808057750368 0.16844299539816796 0.21884458777917148 0.6597664113421992
Ni 8.960135681977485 7.652857217492379 10.425424769880607 -0.6586369257234463 0.11753849523881693 -0.5809577285734123
Ni 1.7745652842196653 0.06044480281094367 2.745877166019678 0.10406591467367883 1.6948280093865522 0.8885058896375794
Ni 6.89473395379376 8.852621344754999 9.620893626503202 1.546165281939105 0.10094819498030357 -0.7283631865749908
Ni 7.235103365699179 4.932772738238264 5.79759921972114 -0.3844843094005895 0.7731960266189651 0.29651658584035384
P 7.070591938963304 3.8191422043544474 11.876514710763923 -0.5910912174629884 0.7473754660114355 -0.06664453660242717
Ni 3.4178568112677867 6.999413929833218 6.787407358823267 0.729867281924343 0.08087816370330587 0.45849479944978455
P 5.511110011397932 6.109980454156843 7.708546490832889 -1.136882682547913 -0.7746983221961046 1.165101311073974
Ni 1.071270049064785 8.218025191907747 0.9166497226245416 -0.9534799805161193 -0.970101391122884 0.03560823612191287
P 4.182469030472247 2.19369530494739 0.5243941850367398 -1.1138011181381011 1.1717388709951497 -1.289409778046773
P 4.67281351513627 6.55013578436768 1.2088441081200205 -0.5276294494639172 0.19964384648100456 -0.3325457115497692
P 3.378394483542656 8.707959560001878 11.400332006943337 0.4652449736894246 0.6743332534127805 -0.9995387225473946
Ni 0.3188957083058921 2.522636135105162 3.7331362027973896 0.614474115163303 -0.29462811056838933 -0.19438696895743943
Ni 6.723332568683705 2.1242762402170614 4.231047793860991 1.0078914653874642 1.5555096992684823 -0.12364177992307737
Ni 0.6069087275287868 7.292146023720333 3.832030801090909 -0.8967545027996168 -0.5318126343073293 -1.137364507280338
Ni 4.610229726570803 4.563777189754407 6.397246149852379 0.7186770696354784 0.4810953104581198 0.27850960773997196
Ni 3.4394107154409816 4.532945537400107 1.5002975496792286 -0.3996443049704795 1.1933880738338092 0.5035286997609716
Ni 2.716384316423536 2.446536727136376 2.706020215017296 -1.7372355278184857 -0.9967711871045866 -1.59420248785299
Ni 1.8255837855141879 3.2343433167935975 8.6351538437744 -0.31899316967631514 -0.6396354449202791 0.3349396657032425
Ni 3.4578841884892126 1.0446489268280397 9.625428604396047 -0.1695673388105983 -0.412331927740477 -0.4380360173748004
Ni 6.561682844235518 2.3111982590721274 10.260556086043847 -0.5449376017250614 -0.03135177483840407 0.5049849725915239
Ni 6.764152837940254 9.085904763410928 4.298449085067453 -0.7504926714841784 -2.1333484225969386 0.5400946718104633
Ni 1.6552487034858514 5.781331262448772 0.15125463645666595 -0.8570325016196467 1.520662252571994 1.7633360815602792
Ni 5.183545350174686 0.5075338371634159 6.234979427809044 -1.1272405314724587 -0.4774983371354809 -0.04676013897367431
Ni 6.395284881278141 0.9966288333445027 2.0375320288341987 -0.15173648127676448 -1.9790408381588886 0.2061276544331353
Ni 0.8706373775931631 1.3413910493985397 6.650803908983443 -0.40500325528954767 0.9708938051171925 0.19431137852449762
Ni 5.935589774937355 2.621774980600306 6.976030905758306 0.20274896776888957 -0.11949690451676839 -0.6207296091547116
Ni 4.238281338783725 3.497629040962491 8.535980366213355 -0.013986801197395267 -1.369396283173745 0.5313380086637558
Ni 2.294274115287932 7.979492281157205 9.155527975056046 -0.2298136851961655 -0.6124581131745388 0.4868309273903164
Ni 4.752622199637187 6.156059329209559 4.668641262565239 2.048802837344375 -1.191739996707425 -1.312987822477029
Ni 7.319241058437842 7.504978296090998 0.9531911090018885 0.27975453589066657 -1.3538341670694296 0.5952558903636394
Ni 4.842556206563652 7.334132846775686 10.312537905592537 -0.136443559673436 -0.8302418637893636 1.2675726275670234
Ni 8.08642334148029 2.8018981780967236 6.130323147393624 1.0065552630745438 -0.3451736847264249 -0.6048023964014939
Ni 3.388492464863544 5.574942377076181 8.97119880429285 1.4265709326125238 0.909969201717678 -0.00898806243122323
Ni 8.26070465628114 7.293394600833113 6.188960703186579 2.4556413460704483 -0.4323631353597393 -2.0915152886112365
Ni 3.695204976933187 3.5670298782897136 4.30945387969288 1.1557563795239645 1.297223874774553 0.9487959447768883
Ni 1.375521861715079 8.195660168296321 5.853062473263134 1.080569866888797 -0.8153456634038216 0.6685600983744292
P 1.386175778830709 0.9744005152563747 8.683467398447949 -0.5212392296668571 0.5737493837504312 1.5223167574562815
Ni 5.638473990603177 0.47681519470837513 11.359501712615078 -1.4391212584737085 -1.4448337354774536 0.183844931775535
P 0.13476886171717647 1.3269093776305874 1.4765809641274714 0.25502849389889626 1.3777264003059948 -0.10891707211839306
Ni 4.520441538869188 1.1554077418034476 4.159898948575876 0.07169032655645073 -0.3712516127603993 -0.8768330812853415
P 3.574010973679425 8.136958816592497 4.681993746710757 -0.13462398996619396 1.3807939834877252 0.14129446000783405
P 0.32257126414227666 6.140638946181632 1.8496147937695289 -0.5437222412607216 -0.04404865357978221 0.7172799321776355
P 0.7030810631683814 6.341632520234759 7.587162922586821 0.040110237757324474 0.5117626576349895 -1.2213989572244386
Ni 8.00116466345059 5.080432930802369 0.23550989594536417 0.7099779991995837 -0.97381612097031 1.3112176179504837
Ni 4.09724680724876 0.5839713634598238 1.7716625702749877 -1.6345911760826817 -0.7452280806511294 0.7912377146120244
Ni 1.0979549672124025 8.944113794647052 12.07350281298444 2.074094264921312 1.1601879329327567 -1.8468830503450002
Ni 5.441763856280029 8.52366228719412 0.3131476967363216 0.3342398114227405 -0.12693304907983946 -0.7432347043701845
Ni 3.394234096842027 2.3972953976447173 6.540519006488798 0.19847553720451624 0.0773719503222603 0.23387705663226172
Ni 3.7111539546511967 5.587346124890016 12.440293757062593 1.6535566614415909 1.2554575894710442 0.14255455766718028
Ni 1.207811525734049 5.596022368768613 9.535391612642034 -0.4844212895075592 0.3433065496106991 -0.6484245039668187
Ni 8.851600610181045 1.2330200242300564 10.557078568406917 -0.6602299812421791 -2.2543221687695496 -0.21465009008184968
Ni 5.090129909254918 4.5852672980167295 10.597989063308843 0.08029555172695849 -0.4399175506682295 0.5148454103253713
Ni 2.6804672186025793 7.029224847613565 2.5459143516122125 0.8675843089935639 -0.30895918247908083 -1.7228926288332522
Ni 0.7080170439295662 3.725781445643999 1.2784591174337419 0.06354121508675509 -0.5940150759780028 0.7966259755071312
Ni 0.009756217512644966 8.456330260119461 8.052688063811157 0.832292061450173 0.42380907514214106 0.7999511832256223
Ni 8.32465550007958 0.4315036933264338 12.905284835375914 -2.1383391909433107 -0.046016575939430426 1.124873831012495
Ni 5.005108187465601 8.406460085220637 8.303950992891139 -0.09133535448088786 -0.2520673543880433 -0.9462621226114414
Ni 0.46796487913011314 5.018733171287557 11.513325501539576 -0.10477759602872279 -0.5971178832730426 1.6635315132661155
Ni 7.47606052106286 2.929043428464692 1.8063165090606779 0.7343152903933676 0.44004353472313246 -0.9635304227735857
Ni 2.2765479657670586 1.0695566731727932 4.77257756055796 -0.05395948493559094 -0.034181016757083064 0.2868327828936867
Ni 6.122438884179997 5.861458926504049 12.586860305440318 -0.2229033312295774 2.4782536841533256 -1.1015153587922126
Ni 7.220421192497057 6.765538120576333 3.6382844425128464 0.3745035440387937 0.07748225064787947 0.6746862658768251
Ni 1.6992587682860032 2.2521870415154943 10.91794742921583 0.11239037537897417 0.8850626682839855 0.15313850383061367
Ni 8.607891116948315 3.4310990196245106 10.163075934231376 0.2787692891592618 1.309990687521918 0.19308496231656425
Ni 6.144721884477442 7.233781878973973 6.049542942307141 -1.6406852047955613 1.2664601112291352 0.06970826312941543
Ni 3.915054799499777 2.038379603078641 11.595452711715614 0.5103441800209082 1.3801087844952427 1.8501691772954394
Ni 7.494515766707985 6.693749493442186 8.270470898865494 -0.14298907410143763 -0.10706356384942207 0.5875891178470009
Ni 3.025311457970595 0.19167299147472214 7.40576836372374 -0.2944198512123252 0.4952608033252245 -1.4241641229432442
P 5.976665227837393 4.103735762754601 4.2884586454248925 -0.724478506808604 0.8290295886488174 0.38054512224718334
Ni 8.849267502583439 2.826067714615672 12.678698164621236 -0.09119214403480425 -0.38788999264802876 -0.48341547395086415
P 2.8540285509807304 4.383243875688098 10.900619548452832 -0.5364514186309213 -0.5551955320076438 -1.7507060515010946
Ni 5.419316809354625 4.097228579845654 0.36349269548606666 0.34317722312168636 -1.34368165201646 -0.9324660972686134
P 1.8452420397643285 3.3270205478875603 5.31373366549125 -1.9684517497891323 -0.12977591784527326 -0.7410086432531432
P 5.346306946212357 1.491147393319868 8.661778611491767 0.6971265971582123 -0.6957371730098534 -0.37800358677225226
P 6.883022847297965 7.879988887599934 11.773898988126252 0.8296214565965454 -0.7900454940761361 -0.20307986874574704
Ni 1.7335627409320524 4.629897094522496 3.1262867143286983 -0.6878739682116927 0.7590063653821444 1.2268381259621388
