# total energy = -381170.1992735428 ev
CRYSTAL
PRIMVEC
9.14872661171751 0.00000000000000 0.00000000000000
0.00000000000000 9.14872661171751 0.00000000000000
0.00000000000000 0.00000000000000 13.39008616370328
PRIMCOORD
 96 1
Ni 7.370616801059534 5.712730285918847 7.737086432979292 -0.305280448075913 0.20782226852673885 0.15807270790743747
Ni 6.146315892033477 1.661564303287841 3.5937250715569125 -0.8352555149538712 0.29226912341790956 -0.9422434883703515
Ni 4.007087417225561 2.813352404218514 8.027182494121828 -0.7517160023683183 -1.1840932787954448 -0.9360008498947493
Ni 0.22148152550859967 5.048157627218769 12.932546794472977 -0.8065442630621077 -0.9761383413455833 -2.474119607380294
Ni 3.422090383659681 6.135328271225686 1.3896366985667825 -1.5319745922610195 0.7657097455442491 0.4726268679757925
Ni 2.634879043087457 8.518443503314293 1.5633865720849647 0.7352522003853402 -0.7722904840855602 0.760515088717187
Ni 3.035831140941143 9.179740917843521 7.018694559519851 0.9182304132852056 0.7667530992070989 0.9779985344827737
Ni 7.289156538218088 9.126669154058343 9.386959578373482 -0.8671803886869258 1.6366760836361682 -0.06759661610305133
Ni 7.254528607529086 8.684584380807628 -0.11497753810491458 0.9057099122206919 -2.8905539873249184 2.1413116433080734
Ni 3.96731790211193 4.055886725625861 12.369025482042993 0.0354457424021196 1.3445134038891362 0.5122545096697435
Ni 7.700803497624071 6.483784975078449 0.9739277044908082 0.5106653108057528 -0.45652764842108473 0.37455625165360007
Ni 7.068004366871921 6.016413121134365 12.178685307464985 0.37651928891724185 0.2601989823562422 -0.35679969900112746
Ni 8.41550203010091 0.6193788635057316 11.58922643987083 -0.5706607175227785 -0.3227341247759861 0.751385615612093
Ni 1.6804655727207285 4.190766403868386 11.331226856729938 0.4205743702549273 1.2955449444102332 0.31821643941129063
Ni 2.6293898070469286 2.6846755627017864 4.792271399953483 1.4350139211735544 -0.08220331027263261 1.1536694150879485
Ni 2.9935365772488693 0.38860131676249654 4.521443472185877 0.840871832699384 0.280665220630394 -1.2356228141333043
Ni 4.418697781724607 7.945687466118792 9.258361415906668 1.181262751325185 -0.005192085723900735 0.2676155865352875
Ni 4.23102080149893 2.2049529276665134 0.23449101492465274 -0.33498543133951336 0.08815618542195786 0.5605979339701377
Ni 6.244664704426283 7.9215439762672 7.452989191956381 -0.2784643563243333 -0.3598569977702125 0.6135289776412143
Ni 8.442573112507452 4.206108818601663 10.684994650513941 0.5272103596486275 1.0162658054940885 -1.2584498393301489
Ni 6.88566109433229 8.202492225548195 2.391322554841871 -1.1751098443499117 0.5372266062340489 -0.0261126379266518
Ni 6.891479684535251 5.294990274507877 2.866630014355213 0.27254721950895 0.4375680765994464 -0.1366417917271711
Ni 8.477585289719292 2.8172040181736184 12.484260099369138 -0.3784540440461095 -0.2751409483780552 1.2876773687366982
Ni 8.034631387428826 1.1528676506853102 2.038506482700255 0.11198002731443296 -0.31826400481977446 0.00933798957147424
P 8.593042221105078 2.0231585787309365 10.075397605632432 -0.73443201847689 0.792826656365699 -0.10254922091883628
Ni 2.6706597133449703 4.0765719967719205 1.268580746419656 1.734846972981651 2.112422471077549 0.5702542261129792
P 9.176813325288572 5.2957770650070195 3.409932640702583 -0.1597567804780797 0.15714016879083903 -0.6117811417121721
Ni 3.2317511239543473 4.5477314235839685 6.229215249590215 0.30899697769555173 -0.5387075616549497 -1.1392907777687733
P 5.44627361978485 5.862623024732218 5.933241131520948 0.6033337822757674 0.04458498569922644 -0.42180747133108
P 4.904705592026286 4.6150752010745215 8.934748994373338 0.6678471314678046 -0.43547159908173394 0.6849166853555817
P 3.8415229095164807 1.4034146810285097 11.785847215351874 -0.6108740565168705 -0.884572101800812 -1.9764172844931125
Ni 0.5991986020754012 4.46932683547175 5.421110046902392 2.1512852095810175 0.5213001648117797 -1.0081395768425283
Ni 5.212423015731591 4.3774827677869705 1.4718252000562724 -0.09755613857961908 1.5802475683347945 -1.092042900525403
Ni 6.488167215184138 7.926996617400791 5.176982678108591 -1.0692886375480228 -0.46868793793270247 -0.452505157525253
Ni 3.956284537670468 7.649021704308417 5.696236046489732 0.6531455635915719 -0.9047079533187388 -0.5668917373986496
Ni 1.545906099913901 2.767965570890076 0.28302226563164057 -1.1154358255280468 -3.510167480597316 -2.961781772422654
Ni -0.005938438523178654 3.879920115619979 1.424102696792589 -0.7494356909745737 0.7391661907277657 1.263910605334404
Ni 4.692702147414333 0.5834170484588811 1.8051178893470747 0.7989919046361466 -1.0604615261746961 0.9716551087632491
Ni 6.04221253052485 8.709661040786111 11.365438520352534 0.22198544740099835 -0.7818030515616858 -1.831061252821395
Ni 2.523410956557787 4.6605260754901 8.592552764224797 1.0444705500630787 1.6514830667420137 0.15390237857983172
Ni 6.294012936430636 6.460592952807215 9.64418334948731 -0.305352696074745 0.29151656152260114 1.0125402770133851
Ni 0.9678438012125555 6.15250958003254 1.2201318342532759 1.1809678457925856 0.6718670512604751 2.2953469479213435
Ni 1.0936479425347396 0.5062905374714324 8.067045326248147 0.5816647819427659 0.47198383507515485 -0.5584945144738898
Ni 4.668979498992513 6.912668135651692 3.4364584589957645 0.12006846074952227 -1.1177809287214557 0.34354257688090517
Ni 5.7356386976613205 3.5465222159717325 6.715891831816165 1.045478679612619 1.5601435984960679 -0.2844372860783166
Ni 1.353499227966635 8.486541893192086 5.573824253040595 -1.512164499513628 -1.2842169209919239 0.5634274329991329
Ni 6.431856802135047 1.4546749969203137 13.247334354198484 -0.6097926505272336 1.832069382370935 -0.027393304411288306
Ni 1.1086244081986487 3.089012689447132 9.157801356262203 -0.6308289023722427 -1.0422030941851406 -0.5620009849652515
Ni 7.891792316927534 0.28883262198054027 4.06255248792441 1.473028709854431 0.1187821378379309 1.7023873097910487
Ni 0.306300285934176 8.406938821877686 1.3372895139389538 -0.960577510792849 -0.963365100840315 1.352878745134696
Ni 3.506652064864026 3.164791592986631 10.237202901526423 1.0164905199103849 -0.5384756481498016 0.5459981817790919
Ni 1.3125312296508225 6.435644375003012 10.732890979585575 -0.8438463419466757 -0.17731818640061076 -0.2694187011822973
Ni 7.103281857159051 3.0105349115210402 1.5103212124085001 -1.6720074119476107 1.168062707695143 0.37724048335398264
Ni 6.2351683260761686 2.123181608116104 10.959317391894016 1.2476676611129802 -1.5496316432211505 1.1474121213243271
Ni 5.04262264754457 0.9493084808490369 9.539900672934692 0.6938944633741598 0.6897562728360701 -0.4087472957130122
Ni 0.07539374214398856 7.317691416902103 12.601838620484589 0.0494885936484309 1.1189263551798083 -0.32414720307342887
P 1.3984011787781598 2.6023644682740588 6.807613306562707 0.27947685674924766 0.2132097580908973 0.15100937330275285
Ni 3.108993508634657 8.118817970837068 11.365598623070381 0.9691804219705115 -0.1682617326252973 -0.8862296920088931
P 6.044152060592503 0.9340118097494303 7.59832494998344 0.527893244648265 0.861312102831607 -0.6014748746901576
Ni 0.47903739540288065 1.7568391434979513 4.952256099227365 0.40704342564802803 -0.591352184433859 0.16858851983709675
P 4.980987675536166 8.970445496344896 3.8186785388611466 0.24996316356084688 0.2708050400068626 0.7979295248099032
P 0.4929251625854183 5.448981642898177 8.753996685412789 -0.8172727052232053 0.3817995634795748 -0.20420138394469992
P 0.8424266510312288 8.839444878237678 3.483644846872823 0.4994373033004173 0.1651643246468962 0.024855625591099127
Ni 7.376719001791256 1.9614595656353935 5.538434233414632 -1.0686018958936436 1.059776841402846 1.8282950029301674
Ni 1.058690657683306 8.860011215936192 10.625220529523277 0.06748605866711603 -0.6946362266361908 -1.4137480698162426
Ni 8.652207036895243 6.885368335076796 6.160631819627175 0.4188345047456851 -0.12662657358301418 0.6721509010494812
Ni 4.672538353692124 1.6068732148707066 5.9259303839876365 0.5291893377518693 -0.6916100382153573 -0.2824433955767394
Ni 8.430972527008468 3.8877880206114033 7.030866940439723 0.151791502884416 0.2965757212130634 0.46316957921763463
Ni 5.3193167388941545 7.022709020810824 1.243660529668329 2.0296170084445433 0.6499967335499451 -1.6152076293497475
Ni 8.385494206412687 9.165102955068779 6.680005951201208 -1.1816538161160166 -0.7019656704180685 -1.3194754870839018
Ni 8.513073200721308 1.9187624579668143 7.865617809740946 -0.8738596004793143 -1.1691963070789542 0.5433412037722191
Ni 2.888774507415379 0.8491344974727548 9.351341755451838 -0.8874244836479427 0.005428370104422909 0.8830168414985503
Ni 8.246964186203211 3.3150502808693707 3.7154543699916776 -0.7365704049761315 -0.7922831251574033 -0.3412134145270962
Ni 1.8365794457133653 1.4882233778546783 2.5936594547864535 -0.2183069701081466 -0.966109753464988 -0.5836026223954272
Ni 4.139862888319216 6.1913184788390785 7.634746031112348 0.8086399692488718 0.6765901677677574 0.8021312215960766
Ni 7.4093250638719965 5.001178915438578 5.2220401572745985 -1.1688219544586709 0.4646813878764706 0.24819527302714675
Ni 8.321151211290955 7.221364473117558 3.8935956323422825 1.6589117551059174 -1.490672391078123 -0.7201811649848306
Ni 8.934719718447788 7.925166872053948 8.622438909847457 0.8108783716610873 -3.5010179528875636 -0.12294938184174309
Ni 4.756889614181582 6.602764166256908 12.197324008440601 1.0794668636326055 0.5220869223791331 2.2442143909115866
Ni 1.7897654110143895 0.07761230837703559 12.870671210951464 0.1759840409702195 0.6080872378003527 0.5806453395393161
Ni 2.3039238534772464 7.525376662495507 8.87386421795714 -0.864287383409847 0.3459113342233978 -0.11459458211914458
Ni 2.2509710231396127 6.509611830649137 4.092131236328799 -0.4102606470337451 -0.6615327592140027 -0.19948700918816611
Ni 1.4852134467591218 3.6559867313466095 3.1634348368119474 -0.16817688622097487 1.5449131546995587 0.4744081282459313
Ni 4.68225430148386 8.825538813601671 13.069969818747612 -1.5880971462862004 0.3384170827288817 0.9249772450907361
Ni 5.354283172472322 3.793556135248994 4.321275735349976 0.22842014728274856 0.4399473754649004 0.31641769563965505
Ni 1.7395480499702858 6.292732114687847 6.977198679671473 -0.7276923857602113 0.3509242140569569 -0.6178844263964326
Ni 6.918038438244676 3.251823430409214 8.823303779660502 -1.1458951704591684 0.3619588746045637 0.6048509902512421
Ni 6.074022653379713 4.2406635594767925 10.898699758298457 -1.4791186248022528 2.201403209283331 -0.18823920418848872
P 6.5352740091386075 4.033088098604199 13.096790226041637 -0.30843159211038496 0.16410554436507865 -0.6812220101128138
Ni 1.6487469371332064 2.002546497398751 11.301594130837817 -0.2757119903901768 -1.8908363159974986 0.02084341910791249
P 0.14735945638066691 1.1095026859651336 0.4367336829838726 0.1296818154695702 1.491659951802373 -2.026233436684291
Ni 3.6661692642017902 5.829339956873146 10.601787895738934 -0.7720907093699283 -1.3908480252896176 -2.767753215245898
P 8.096540821239255 7.488864094099257 10.75169069815171 -0.24361125320089008 0.5030772140458497 -0.3107869797164389
P 2.4732393391473546 5.895320574080301 12.792352620870547 0.10435979176501382 -0.20975676654529038 -0.609827360419911
P 3.4995160580113387 4.56798670457352 3.6070081079023186 -0.6590992100718455 0.9671533642381537 0.018558479728477715
Ni 4.088081095003562 2.744974820606995 2.4338092417955637 -0.48923310907390577 -1.3893616705520782 2.5268729878229257
