# total energy = -381164.1670247152 ev
CRYSTAL
PRIMVEC
9.24892326497010 0.00000000000000 0.00000000000000

0.00000000000000 9.24892326497010 0.00000000000000

0.00000000000000 0.00000000000000 13.53673409377856

PRIMCOORD
 96 1
Ni 0.5358289701353337 7.5034387184855085 2.483963898153583 -1.7142382955923636 -2.2547939661996454 1.134905504216884
Ni 2.953643644215659 4.031836873664353 11.839254403699101 0.007175177592200547 -1.171697476234253 -0.5994879261671159
Ni 1.4388457431876809 5.5955893255263165 1.3114778960329656 -0.2092098929028849 -0.5583783006109997 -0.07877885797211594
Ni 0.5867637154400467 3.6969056155213074 13.268680118542852 -0.042352496824281896 0.8837547481058393 1.060422959627277
Ni 5.635156219247797 2.2882391089425997 7.670428028008958 0.7237791667487341 1.11846998436868 1.3876691133410037
Ni 6.7166050696852615 6.401854962103289 3.789879491735847 0.3680703868189403 -0.8718631388745759 -0.1299145003056666
Ni 5.480615960437089 4.5016544286830555 4.036220863291277 0.4120653043426516 -0.20134283144998227 -2.1780239111274424
Ni 7.995342702257576 4.168239993955233 11.514250939787154 -0.44409276509184165 0.21090065034174646 -1.4123298493124774
Ni 0.6153493625707098 8.611320991610206 4.653171214478909 1.1903014644886856 0.1682643037284586 0.6382344508076944
Ni 5.666537815881033 5.67486184681823 1.0882162875894066 2.3003125194567353 -0.23631651931168976 0.08932372336749778
Ni 4.6935695864017815 6.750465377753129 12.583828797215848 1.1769116734453409 -0.5860749951953197 1.265934063522336
Ni 8.747529884512552 1.4908246919288488 5.513213790479482 -0.46727048875988564 -0.20245509067755452 0.32253794960478
Ni 5.888678454825049 8.216558448875237 10.709681555736717 2.7173379960181396 -0.2953449341297559 0.14170815050648497
Ni 1.3961434644798565 0.8468221650876515 11.307991626978982 0.6025783921669815 0.747812296438538 -0.3925328907366788
Ni 6.2140370773903175 2.9117552707550276 10.8082297580022 -0.502405899010438 0.8678301064557828 -0.8110681190743904
Ni 7.760105587972368 1.2042838003007124 10.751415472178847 0.9410726079907018 0.6759504773012294 0.06943958284906104
Ni 6.0405180280428 1.122125614950571 12.283097282624441 0.44683896037841103 -0.39401641726074077 0.3932718257852324
Ni 8.946668451300113 6.322360466653051 5.322562960570885 -0.16702271801187363 1.330005182970632 -1.520300241246885
Ni 2.591132096900698 7.858699109961844 1.2904310462544242 0.09105561845693995 -2.258007073820305 0.3922348998802858
Ni 4.280753145456356 0.8273642803257887 6.362291767951115 -2.074385056688853 -0.7209165004889584 -0.4664027414429515
Ni 7.029699620003059 6.929080583818865 8.62735307519525 1.040550389073066 0.656986791714533 -0.269995913842006
Ni 7.045145321853193 0.41119695448197763 7.826709859070192 -1.5199757680279307 0.1745766190997316 0.7837370353596051
Ni 4.2853683581648685 8.863733356395834 12.830400466960539 -0.5709677072402359 1.5980959093701252 0.6370707695168963
Ni 6.150432232106864 0.34606696175236357 3.0284924055106144 -1.7750047761474592 -0.5939173740578739 -1.1383374127165686
P 4.164336948338014 2.2323756124307397 -0.1292795995932915 0.2080302707724869 0.7019556431157395 1.202658957612774
Ni 6.476253300835309 4.704464818006247 8.43817744854719 -1.5566170734000484 -1.7740287853874352 -0.3404857923324523
P 0.149551389602347 3.1674047586828964 10.256431596960017 2.307399508210503 -2.6803423926303966 0.052102377122194135
Ni 6.863320739415004 8.356744378780911 -0.060081005520040455 -0.06401918316443812 -0.4963779476488031 -0.7884465250201325
P 7.700792243083202 5.201418713880215 13.27715398203692 -1.433309279777622 -0.23110797852755685 1.6066782517224973
P 1.2849991536217398 7.390120910660457 6.681542401593132 0.6814966039304392 -1.385668280860891 -0.468808779781283
P 8.790962828158198 8.486858231252574 12.286575802663863 -0.2909689165492472 1.4299779014115437 -3.075891187375264
Ni -0.007072651619638999 6.610899125706115 13.133136223223158 0.9532562945410873 0.13299853854762902 0.41902656615183315
Ni 1.8038822465535915 8.68770784884389 13.076904619565406 -0.323379728779785 0.053532167590185226 -2.4910096982674133
Ni 8.619487790851926 5.139413932321355 7.169853178677309 -0.692323519342614 -0.9679568339760555 -0.17806920563402234
Ni 2.23659312143892 5.318870790404074 9.573800942108589 -3.012464643489502 -2.5092858708687817 -2.444131802768952
Ni 5.421663323555203 4.295597667294358 12.630435971325543 0.05121406097996986 -0.4286980278033262 -0.16821159611365225
Ni 3.2867991090921023 3.940540752129821 4.003502797246458 -1.2524231735200946 -1.360970778114211 2.2875089399341637
Ni 3.9642827381473613 1.7651292580793043 11.30990060474058 -1.3081934864121794 -0.002689373906705046 1.6422960009261072
Ni 8.04426025739851 1.613234191321973 1.5906205739425858 0.2895113581671143 0.5509167021266318 0.08813304549350628
Ni 1.561754684437037 0.9202095965069658 6.859726607834786 0.6022418347631693 -0.09573862575490609 -1.1416698195239112
Ni 8.82840246952906 8.484509004743632 7.145473016954584 0.6993346605531247 0.2419940293124413 -0.24139727626870683
Ni 3.41551637415097 0.6282978551396843 1.8592028312698814 1.157864941226535 1.2860542313109788 0.6311086383961905
Ni 3.181130160806009 7.8306471257034875 3.5681744770775445 -0.31242502954049417 1.2559658965660305 0.3040658589425215
Ni 9.086068222728384 1.4512300514375782 8.632036729935914 -2.8897235210038232 0.9570772109490743 -0.6469484336419246
Ni 9.091922791154214 8.920299771075724 0.7734486070532326 -0.2881005938625167 0.22971932571014633 1.6607020142371203
Ni 1.9533263486460812 5.642805078786755 3.665680325691226 -0.9034486269903409 1.1930967678456357 0.7414323610541231
Ni 0.4309027103873037 6.747228254610886 8.817178901148738 -0.1105803187534289 -0.18686700643131043 -0.8669441043064038
Ni 3.2424967666596833 2.6947292863757557 7.579867195873879 0.6068811333073936 0.49527571572355994 1.0530816887708574
Ni 5.998546414272796 1.5523115337849491 5.41921513356734 2.9710223171843153 0.2488326495008295 -0.9589348329831032
Ni 2.554534107546819 2.3973764034525256 9.808243573885457 -2.4293662144240034 1.2950266100129182 -0.6341980759547917
Ni 1.0159942205013 3.335596428230608 7.999018224362511 -0.47278267682736635 0.930575822224436 -0.018336079305026485
Ni 3.5898123330526266 6.17153827499429 10.767944222943143 0.6252645209105876 0.1350903880796512 1.6481367759776004
Ni 5.286277584823313 8.252157554516653 4.7107291137326515 -0.35963382601581284 -0.39032225623860517 1.1156610541649754
Ni 0.8720846740897202 5.087989918976 11.439704618282915 0.4323952741492553 1.014585332467872 -0.658210379708989
Ni 6.0587939004115805 3.2510982652947877 1.4500415647982114 -1.3363444949250987 0.17700913980062416 1.4226366305551241
Ni 4.953630810726366 7.948533901620734 1.4191233392204803 0.6250166665658397 0.4831401088022905 0.6473528681691947
P 9.169937458882284 5.242779898714824 3.2845941657860718 -0.06813500510502458 0.2999896319906188 0.5449252604298873
Ni 8.17147919688868 4.11463323471968 1.8567259696199017 -0.2964682491009217 0.3855765140235037 -1.1188376521207444
P 7.938008626946811 2.8705235708461077 7.263135044036526 -0.4118372474922456 0.15428290184770202 -0.2596739630907076
Ni 3.648321021617863 5.486914477179569 7.823636441869715 0.958418555468317 -0.042552528650229945 -1.1346939024267104
P 5.133457625739626 6.134376101321335 9.48535163915458 1.5139688997122185 0.17602569284143235 -1.8903904867093313
P 7.5547239979819105 1.7069442818282923 3.6462141168984257 0.7292404469736214 1.1718378584668592 1.4644728498646198
P 7.084804704807308 7.357499958309906 1.9019384061014546 -0.08555859989811071 0.9044120193448746 0.24780035158157324
Ni 3.8194538487633847 3.5009579272596727 1.988058830177702 -0.9398618755120524 -0.6356648903083053 -2.0541579310087013
Ni 4.982801914699611 7.633173365103367 7.680743352124799 -0.5854674435183078 0.29865985743560175 -0.5977593735117835
Ni 1.5607095561082553 4.9329872140021145 6.112553266880982 2.6112522227009545 1.230713292646829 1.223179446163629
Ni 5.7028860843067966 0.9964882413384666 0.9913994837588598 -0.7649101324610891 0.5262996749089001 -0.9639551690158302
Ni 8.469655233982365 8.549362454667666 9.854918265134978 0.7553428004876283 0.2157294391889575 -0.2448199287970106
Ni -0.07536022675143006 1.594939821106665 12.811151607864431 -1.167017040039448 -1.0068082596256145 0.23847418908464088
Ni 2.4686208593516747 1.0638481494669232 4.272666811847031 0.2913934056811756 -0.17478127891136994 -0.48303032269730356
Ni 1.0308387423393026 3.2667936880730375 2.5748354941103178 0.713287780299107 -0.02331862012128242 -0.10622409866726222
Ni 4.639925831473174 3.8625260844017513 6.067435169416717 -0.47398132512115787 -1.018825595801465 0.44069865180862816
Ni 3.4926893898620563 4.96577464697141 0.29880218919862855 0.29788621249437086 -0.3303970406378826 0.10419961203806571
Ni 7.835697037805387 6.614959403018815 10.851438877704869 0.4378467841821298 -0.7642393316463095 1.5308011407782087
Ni 7.2269791532146455 3.841900985524028 5.306576196709833 -1.1676420752179568 -1.463629785138034 0.6173054139645111
Ni 3.1658786863444104 8.057994908444885 5.813269208780322 -1.022173429227775 0.011386387460070714 1.4015996073791668
Ni 1.5318251687561792 0.39341589950779693 9.122770724915142 1.3315856400838746 -1.5602994073476417 0.9341949070342622
Ni 0.08839658409140805 3.805127266628141 5.033892041915152 1.150542953643825 -0.9686723719858413 -1.6594681418300194
Ni 6.159967871991586 5.62787731663938 6.26883417304989 0.3320482030880604 2.1300702660662996 -0.03680714152602048
Ni 8.482270765313851 4.716201701627695 9.346369919057821 0.5004444044086929 1.519642295947912 0.2904444115043449
Ni 4.417442982368406 3.82443901840244 9.625118592836413 -0.32116626606823395 0.9475340473453293 -0.2944504473399445
Ni 2.5970884034824264 7.825698951757486 8.434238332129242 0.12661937449416258 -2.090581463943057 -0.6708620070347284
Ni 2.022711770969256 1.9083395858921592 0.38116755042987366 0.3823217545316319 0.07308772112460961 -0.011726801518624964
Ni 7.366156950484591 3.015204477457868 13.249146392610228 0.1640572076256465 -1.4462149320956965 0.2574340180165954
Ni 7.565008800650982 8.496403120060561 4.115898487422133 2.5678337465060035 -0.6994855843086921 1.9759681127708357
Ni 4.045377297322195 5.955030230317779 5.0728096612235305 -0.4864761151540589 1.2047178970243315 0.08603271132105184
Ni 3.771063482248475 8.383455269166053 10.521237518918802 -2.01845327851824 1.6584903512977824 0.21124055017966845
Ni 4.902900466625777 2.1573668447633247 3.4654041413422485 -0.48276704173358786 0.3321271359551119 0.20528227571370453
P 6.879626591128647 7.856571857611227 6.504861145381805 -0.8882325813715348 -0.4181996993751636 -1.246187477023028
Ni 1.4904732328448336 7.7552221564892125 10.742156375099704 -0.6967733275838516 -0.9929286734300447 0.5843698395787549
P 1.4099151112192867 0.09039435151633549 2.468016904662565 0.44433264901678965 1.738028456033426 0.5613073013323365
Ni 3.837590987283212 0.5007774007511205 8.578701889044309 1.0305575395264124 1.1820726488209898 0.3753694915835148
P 2.465429980825749 6.349256335503463 12.661462409305457 -1.6453576705705661 1.0821043012554525 0.17810674374017715
P 2.477499825684686 2.650954132569359 5.664744449660229 -0.6533641073602812 0.9136636198501298 -0.3352625962603
P 5.398198805235569 1.029442154926506 10.085232177566997 1.7110488421207888 -0.9292653309431287 -2.219007038408024
Ni 3.784751888678534 6.11158675439994 2.2930957185482916 0.41966394262551593 -1.9808807195811047 1.133901745542718
