# total energy = -340893.6035955509 ev
CRYSTAL
PRIMVEC
9.04965456606535 0.00000000000000 0.00000000000000
0.00000000000000 9.04965456606535 0.00000000000000
0.00000000000000 0.00000000000000 13.24508421054173
PRIMCOORD
 96 1
Ni 6.465480556745234 1.9196218059855634 11.274520460712232 0.44653582731569547 0.23755347704258442 0.9020342631413174
Ni 4.511207622888698 0.4738073416724537 6.237917939496999 -0.0016969280864486905 -1.1290891546454234 -1.603092077033136
Ni 2.629187132208408 1.6090105074962933 4.823224332753878 0.556225773044371 -0.7261517807459688 0.13181454554185684
Ni 3.535691044152883 4.329798244643325 5.071940517878426 -0.2816334980809343 0.50476540038155 -0.5824559103854936
Ni 5.185316401971695 4.707865669314427 2.6045793111306463 -0.5709183420595394 -0.8386054052627107 0.3571362564049398
Ni 7.174140917497435 6.193285042484817 2.4954006568902254 0.6201719368790287 -0.1033100103442608 0.36103507723871375
Ni 5.280916954290568 4.546483176934415 11.31879861125992 0.28992530577608133 0.35002895593619715 0.13216447268210788
Ni 5.384671245499947 7.571782745298575 12.42848537067347 1.1935305129489444 0.5724121529962465 -0.23795225514289986
Ni 1.5536537696569765 6.287247607301824 0.4789783143717157 1.2191279018020744 1.2975851147687136 -0.6144165224524902
Ni 2.67702360698667 1.5873456341290668 0.44699140484631944 0.11078343590317048 0.27516460252713904 -0.13258767626245552
Ni 0.5373015290238046 -0.023307385696445984 4.726786687374661 0.666076155610311 0.016469201299616796 -0.015084405136948214
Ni 8.457065216956439 2.1368587672137465 1.28942104657276 1.9208806848783886 0.37369338943267255 -0.35898076581284627
Ni 6.799829099529506 0.7492462521796595 4.777501857315042 -0.744257489207744 -0.46103736336598017 -0.2875696610597112
Ni 0.8514838212602376 7.478906139046342 2.6196659904917583 -0.47969611611774804 0.1340886862880142 -0.007806640528612362
Ni 7.583547296416952 3.786520323651385 3.7947165959190117 -0.09989635667702151 0.2782764086832433 -0.49375130865923356
Ni 7.656125527162631 3.6875261508175963 12.70861833707691 -0.5385350406328274 0.8600178095002157 -1.0141757557342792
Ni 8.053504914977285 9.040351661405566 6.64301939767266 -0.4840327958198889 -0.12156175746559711 0.267022690146295
Ni 6.770942601706538 0.6024337038770219 0.22356085993704614 0.16588783307648206 -0.008532205840727242 -0.043023554749377524
Ni 1.7493254037197041 6.811964686490847 9.281850746901725 -0.1034745609465831 -1.9209331353828791 -0.7302364923383036
Ni -0.14003616685845252 4.929111627577566 1.4353829273329919 -0.0529662677843862 -1.3419186465787662 0.2507761463804455
Ni 6.449571263771306 1.9565172482237347 6.959152795463802 0.30552521709686736 0.467159417103318 0.5199523925346337
Ni 3.336082810292852 4.350060421531053 0.8567914437455669 0.1326208434932361 0.6489497803426695 -0.7056243502165783
Ni 6.021178709277669 5.723001636355053 4.728429199703879 -0.5030635871990949 -0.7786814752135686 0.3953541622355578
Ni 5.486814698171576 2.7927324920632604 9.320261101337756 0.8258673888707518 -0.25109753427560627 -1.3138242023353954
P 0.13531586696357142 5.463050304912455 12.404273019506382 -0.5662245361282958 1.2749079848861722 -0.4214356898139581
P 4.049874325263606 5.770458025635644 12.590829841348778 -0.22892614038488962 1.062534606653641 0.0972532626272196
P 2.322430986624083 8.586737719245072 1.3994757073887643 -0.15178507512651276 -0.49645328097142893 0.22070400958541345
P 6.198361898775133 7.76725528695776 5.753757792840373 0.1880319732736891 0.1814563769387004 0.7485108651674593
P 4.8432032554492945 1.0222218466757713 12.651200992860936 -1.086924091241599 -0.4375302813829755 -0.5109890126937586
P 3.7701766472515477 6.013857538620157 8.252522206384985 1.585947189822733 1.2310423938514736 1.250888482043123
P 4.6478121606824665 1.0695515407904723 3.6594577417800904 -0.2293125771900309 -0.35176393634943287 0.13742237864693752
P 0.2298901884387329 5.613654658537093 3.7492466058464844 -1.529637459487411 0.09071366173648893 -1.248849340125907
Ni 1.3932667392946732 1.153315144753316 2.6728716254073537 -0.16362089141917627 0.4073537577995952 -0.49819906001794195
Ni 1.7661487118189831 6.671170158567995 4.950072437808631 1.6866339036115339 0.20899597711986584 -0.7854817859648536
Ni 6.035685305772099 5.742585089139798 9.101108328208218 -0.5589681116761986 -0.16096468474325182 0.8919018026930058
Ni 8.560059337170475 2.144885810938362 10.10504534754962 0.6188017960043795 1.442577335343109 0.4254334981194415
Ni 2.2883047387260835 5.097399006498595 7.10894177519939 -0.0640898885013735 0.37652571667514506 -0.05922227599642703
Ni 0.7327867401995796 0.1139568719254228 9.01467055127962 -0.1297689758667378 -0.6232678021955331 0.5564520301225642
Ni 1.4431393863818849 1.267141701650966 11.557647052892563 0.45006209530139907 -0.44674048712733383 -0.8923933976174437
Ni 3.996137475616743 6.914162437090717 1.250484002232815 -0.04577334958037278 -0.6809245334770532 1.1954642396365478
Ni 5.670341695618258 7.89464727626037 7.986361906848295 -0.22475735371918068 0.2516264101958828 -0.43765189456250436
Ni 5.253279308817088 2.7526425217137147 4.858297174534171 0.00130149242024292 0.1764347553543929 -0.12005251990992227
Ni 0.7433169184159976 7.605972340779519 6.9338943042126475 0.1696118188952885 -0.5262433677496678 0.6971991022673605
Ni 5.196013093834712 4.489633246068536 7.288650723325421 0.10386331174456952 0.17966868891065832 -0.7040606052738843
Ni 8.08949539174481 7.177679332487654 8.947041576692895 0.8560166587606224 0.5612227120383302 1.148411509123119
Ni 4.8094118447754335 0.31234611729649553 10.53254379615826 -0.6088529123217837 -0.7002607719118198 -0.3928159691947364
Ni 7.922447815518566 7.2414431995492565 4.572971516260177 1.1079713988302016 0.4376259264205753 0.078587053676284
Ni 7.429522173313278 6.147548087598451 6.980795044694263 -1.4433612646969851 0.2754479380955127 -0.956652978927462
Ni 2.057972927137676 5.364400018957512 2.6652554360064107 1.2166028213873756 -0.5444040978190947 0.2521977093183205
Ni 2.346313025394388 5.280066286748162 11.366852277751137 -0.2435174079355032 0.2726048122197628 0.21353037465510968
Ni 1.044402550361265 3.5418719583173837 4.009962633111777 0.3050061113686037 -0.5805815761809162 -0.18216368741837013
Ni 3.312255069450785 2.8388223834831785 2.8770445051013147 0.7238714693522244 0.2378303848530549 -0.28380556603158863
Ni 1.2122555458563844 3.2680475062098076 8.487741736480341 0.1439457815877521 0.36620685124764024 0.011324166763567595
Ni 3.7521135364574856 2.7082630150333142 7.054279145876057 0.06161494459831969 -0.48329026122690966 0.4938981186497429
Ni 4.174442822297805 6.6630616679510215 6.108354938030314 -0.24581983081643474 0.89211803246887 0.1958345000372434
Ni 0.6489796978941449 7.470453761550524 11.355355596412071 0.4345855969323548 -0.8721783561221496 0.5746739524472296
P 0.3846085150929198 5.630577512838143 7.983872346838552 -1.0907853739692184 -0.20542137239473007 1.0963651820498408
P 8.74543246417727 1.7572710005519616 7.949514427780068 -0.47369207601551316 0.41292071036441147 -1.2995604933275295
P 2.0248873895309174 3.1771075260647543 10.68153821621062 0.11994761890094181 0.17919432037740105 -1.4409066325089053
P 3.8388273278546303 6.12566602251827 3.8245714067955694 0.5003459311576156 0.36489893106949417 -0.38104571603268567
P 7.153200016506724 3.9753413691013346 10.396663230741007 -0.28412823947833 -0.021147580611892612 -0.7659707125151195
P 6.213130935256048 7.748803041011321 10.169231833486014 1.0179393365417695 -0.8567234550196601 0.6308785246632554
P 2.527450913998567 8.461761987749084 5.993255094715466 -0.26664550931253433 0.5118187076839057 -0.6794425496148879
P 6.973944456081485 3.6758158976274586 1.5079530133894354 -2.038557762577599 1.2330126302039668 1.027630338577288
Ni 4.921111732817069 2.6744535050500398 0.7587393399667189 1.2381450663345257 0.5446743207613458 0.17416549970424197
Ni 1.6776159398258434 1.1686633591354447 7.064199377365261 -0.16433025878137505 0.3081071188914306 -0.29583652905419366
Ni 7.388681081623097 0.4652246491488624 8.908657466255514 -2.4410451934238284 -0.440034535862068 0.8834858107151686
Ni 3.0277701240990185 1.582495019206413 9.3620496918757 -0.8694653280663606 -0.00881708407099772 0.051690229285440016
Ni 6.479353677410213 1.6289468968145888 2.447731600724033 -1.3169668617294352 1.090178850733471 0.8526955648071894
Ni 4.012788840276599 6.888352821867939 10.399046909790682 0.1573517705810129 0.01371632114482799 -0.13636874057144258
Ni 8.122399936257441 7.259551558616851 0.1134491862963913 -0.7149389427492848 -0.6275872555064933 0.5995817714325029
Ni 7.623519621255314 4.023612227305506 8.178654399843637 0.8026595832957208 -0.8299112199228224 -0.06846616319219821
Ni 3.0820318537188554 8.319302323360244 12.66529402013528 -0.29660477467878593 0.24984720680827296 -1.6139315908508012
Ni 0.18233968274919465 4.936975777517465 10.149907200825874 0.07824818227962653 -0.7574174236284698 -0.22517412954162508
Ni 8.67629310222004 2.292069395083964 5.610816686821152 0.007408119538613047 0.39424935920715326 1.0819055549810852
Ni 4.124162940748803 2.5937305850685615 11.310056644813496 -1.49224590621283 -0.4364720153217903 1.1546783159684373
Ni 1.0571987621161765 3.534777029027532 12.564393085054846 0.10374118434440843 -0.6385185577070165 1.135391185604051
Ni 3.1653339252916703 8.399228873727557 8.284323597988898 0.6277206957605641 -0.022643448431128747 -0.9841681536285953
Ni 5.655744602576763 7.902828164114995 3.5129411171863536 -0.8825977516832606 0.3918651752456929 0.0305534473068248
Ni 3.0673623634397105 8.315356673908235 3.481974103746374 0.4240235051457923 0.11659618593020565 0.6886776950599107
Ni 3.623373148603617 4.144207925923576 9.455162494115772 -0.6498725492672549 0.8635463914787644 -0.6875294403880805
Ni 7.359143008661265 6.031558663225961 11.230056792243063 -0.22329928111641542 0.6054019776587057 0.8119548925547178
Ni 0.5664730909700262 0.004233428471674405 0.1614060214822489 0.05861421009878293 0.1534408655623809 0.6913393010524739
Ni 4.530420039830478 0.23740773660337577 1.5651984141659867 -0.06876878203428156 0.11814476136424816 -0.16080424790598757
Ni 5.984038926362424 5.512307575479629 0.4718987694948647 0.45243856595337567 -0.42503677690165503 -0.7024935178970805
Ni 7.896602001676961 8.863820047046968 11.368706552000488 -0.7386373148074893 -0.2119882269789704 -0.9028927544868708
Ni 0.18585275870623613 5.229161979024416 5.861810670035313 -0.7075128254885428 -2.1074113910162025 -0.3259636874568773
Ni 7.991967262973467 8.849575890539025 2.2921544618382046 0.7487363509147041 -0.7286521785703193 0.363999044963044
P 8.436323408369269 1.5741874361858974 3.5130334236643597 0.41926670718709724 0.18074032470828227 0.823338451801311
P 1.595816110934298 3.2282923730844 1.5317273612687337 -0.27151954957538404 -0.16117371543026435 0.8585067721723278
P 4.822642439956254 0.9413360329095767 8.256535728247293 0.7117142651644001 1.0476926565448021 0.7089068776225921
P 8.454549412948047 1.67762498948055 12.32231301172653 0.3856824434737487 -0.5800300745528204 0.3547011646008859
P 6.303935170580506 7.850665954387053 1.3585350694968126 -0.526025595311907 -1.3708726106089553 -0.45056628863132725
P 1.8726993463326524 3.255106499979593 6.141891148441453 -0.8443009129855911 -0.900897835544029 -0.86316149733552
P 6.836163463175878 3.9578574362084855 5.929122001741841 0.6114263294759147 0.31301355505411255 -0.006715978567594885
P 2.3076800494525798 8.552068492064684 10.386185540521884 1.1710148483449316 0.8801593174450971 1.0979320123163285
