# total energy = -381160.72319455905 ev
CRYSTAL
PRIMVEC
9.38943077415738 0.00000000000000 0.00000000000000
0.00000000000000 9.38943077415738 0.00000000000000
0.00000000000000 0.00000000000000 13.74238103619662
PRIMCOORD
 96 1
Ni 7.402035807194462 3.5676551214526833 7.439863946505474 0.5929125869424434 -1.765397592074998 0.6522389926169025
Ni 7.447452484579134 8.120458724996972 0.21747893803007962 -0.1667337260165451 0.5109399046233781 0.8166630966636645
Ni 0.1895463199710226 4.313551514142013 5.812161965315382 0.031073067255720684 1.439435447280018 1.72154459944579
Ni 1.9365607388693549 7.962613001715246 1.264980753009038 0.34097404482278054 0.015168223100006133 0.5312045684096852
Ni 9.214590331836124 4.323560647508161 13.493726764808397 -1.581702041393134 1.97475712318187 -1.8501519509042588
Ni 1.1728525957151252 2.583999558878167 10.105556249147407 1.7364492844717643 0.42016890728639256 0.9633080223501347
Ni 3.991785105770026 5.739881187110929 11.335292834236018 -0.6248747416713368 1.358235895681551 0.6817454867164517
Ni 2.049130626230286 0.747340487165609 4.647988959547412 -0.6021035094130921 -0.7279111866392368 -1.3116814449607797
Ni 4.635740446905629 6.4069720860459585 13.285350880060193 0.17907682096293032 0.3281609522185122 2.170244267182024
Ni 7.561609185766406 2.6528428664209436 13.571302243111509 -1.6219169230491228 0.661867516845602 0.5985124496277241
Ni 3.8093202946027076 2.3192363856524154 3.7101951333834164 0.4318131763935403 -0.7245435557185844 0.4706892846334475
Ni 5.563228433686243 8.284473304396483 11.2547221274678 -0.3332183121367616 -0.15033265895070239 -0.08306771515545695
Ni 6.775272514082704 3.9442182487035087 11.624639415509845 -0.5751724893502029 -0.17427657136080954 -0.03269491912985982
Ni 7.870267948566963 0.3239532068344409 9.28756874475831 1.706428826850274 -1.2210788548808582 -3.0852857412162864
Ni 4.187892760071502 2.533381136760995 10.43747638812179 0.6904232169961078 0.47568210986234855 0.6418957017093655
Ni 6.694936543087614 0.6387451459152692 1.729093751034701 0.8856987592060875 -0.5500682380834075 -1.9199525166371645
Ni 1.2425785097648605 6.395479422593646 5.82550528560303 1.8671862806787263 0.027126938123779087 0.5521333481425523
Ni 4.062046217382491 5.497643258674473 2.0062500341384824 -0.8068617943025266 -1.6915197709489256 -0.1286798565676171
Ni 3.0459595603927068 7.718713144005049 6.240264617857131 1.3415440368481668 -0.0055641243513388046 -0.24966645825603453
Ni 3.440343827539357 0.25604133083943353 10.59112973049546 -0.57181951371757 -0.3534315538598429 -0.44328723847141077
Ni 5.3333751646399845 0.4036544522989941 3.376956718307152 0.6445750483137415 -0.5558452497765007 1.6009871148749912
Ni 4.4544399251730225 0.8745231458752611 5.875637335198283 -0.1786019382090408 -0.30303664634705874 -0.4957693675305268
Ni 8.718894105007728 9.12674281610096 11.474641378595312 -0.5864825150463835 1.0277758630162173 0.08532205840727242
Ni 8.662388509700524 6.809431263788189 5.015803954005329 -2.1322022248076378 0.9260887329873599 -0.35112141766942756
P 3.7699034635791704 8.723494926161022 4.3857299475493825 1.2369207070091215 -2.1269335202095303 3.862406299700638
Ni 3.9347912600547157 2.8972685322629452 7.077037556698059 0.5946768779317178 0.9933688462912569 0.3063983637304401
P 8.411315126763554 2.3041475701557923 10.296327889854153 0.09470658494596594 1.157856456586103 0.6199513362277904
Ni 2.3850187387136117 2.9587129682367492 5.343464108168996 0.022227701049948815 0.3208695607634216 1.0941154667837156
P 2.866987617529523 4.115227954142214 11.155185709173992 -2.006153120994648 -1.6895593047884452 -0.1817685088624805
P 5.998146874136517 2.451026438117011 3.456621344991097 0.6735673217810336 1.1598565177352669 -1.2035722134556626
P 1.3439561954630816 3.2817281709217734 0.5512149929453741 2.2216843281298706 -0.5604259271686477 1.4435702953839977
Ni 6.146199420963372 6.3597432484927445 1.9807577291768568 0.945097927100011 1.3872780485501721 -1.3030073142255496
Ni 9.142939584446744 6.890555946980987 2.278665593568184 -1.2833702567209122 1.124474024470915 -0.32589503900247097
Ni 3.173092455118456 4.693701404006223 4.226455152880857 -1.4037259096935502 1.2461717932937442 -0.8696591892447215
Ni 6.92198237228727 5.074724510946467 6.059222305474964 0.3227996879065989 1.2145497955130888 -2.5912847784400923
Ni 9.103644816025232 4.4084129347782195 11.069227346940956 -0.22877495951900598 -0.2306258966848157 0.14734580840823655
Ni 3.2220020008072616 0.0066110983143574656 2.6575291313956573 -2.689511974944807 2.137671732562641 -3.3508261903901
Ni 6.7053118642598415 1.79866755630345 5.334489690090792 0.43588323269785567 -0.10507841509859323 1.3865167449041156
Ni 8.773118068600136 0.21683200623934074 4.579016077857869 0.22300411847349982 -0.09359483993902591 0.38434649827114453
Ni 8.771841105994323 7.34627197693034 9.301696082528204 -0.154826690166314 0.948484584184057 0.35850125507326647
Ni 6.760484160375683 6.27524775959784 12.41620036656027 -2.4463671198573738 -1.2787692676137914 -0.39186234703221545
Ni 3.4928776935652484 4.38709892657826 13.494344589363267 0.12760025035019318 -1.519256887584035 -0.014697197000858557
Ni 0.8094403054179841 2.944882336484088 3.3300536940070384 1.6590963603128976 -0.6503667152948541 -0.28487257384352227
Ni 3.6920744706410806 7.454954639888283 9.497854439756678 1.4321350569638625 -0.5328709003685146 1.3582860321931962
Ni 1.4470427575896696 5.6796855454501625 1.2609057399875478 1.2672851782335917 -1.2478162708757026 -0.12015947780143178
Ni 7.191205525202441 8.196006086220265 3.5379619850951713 -0.19218944708548838 -0.5700205128356183 -1.134511096991943
Ni 1.1880728632446997 7.803640546722509 10.698622752555195 0.5742430355573982 -0.2714028214918616 0.3657733632546475
Ni 2.131870291542199 1.215968862523149 0.3606142398814636 -1.474220930390319 -0.36022132308816673 -0.3412440106547155
Ni 0.23776198671446389 0.25346956570905077 2.3069606436609496 0.42164652027318356 0.35190277592014235 -0.32981777109564486
Ni 7.333042268756885 7.0878372801481 7.254699673947192 1.4911210485797675 0.24645257930442718 -0.02081050898744803
Ni 6.4018548461917835 4.073416818232778 1.3997575834509048 -0.3339251083957991 -0.42684040576929716 0.5328683292653532
Ni 0.4048281311646306 2.39703721029773 7.997626189634915 -0.9886025352508653 -0.6689768741968737 -0.7025775929704545
Ni 6.567756701207239 1.1538014403681132 10.662741042274954 -2.561114682614615 2.560658568913803 0.21670620127993
Ni 8.880063686836936 4.338874809346986 1.965834167664515 -0.8484007940865775 0.6338895435754374 0.4185635104724856
Ni 2.8797196858639484 7.6560668608728335 12.249917300649257 1.4331956370178929 0.987728617286344 0.19156081236255396
Ni 1.8530980873762097 4.036422460387914 7.501457674430986 0.8005029419640343 1.6957602913928345 0.31484263784305133
P 3.593673234546114 1.493492272376101 8.62645046283473 -0.18289388071617535 -1.6048928776873006 -0.3522910124974965
Ni 5.365768701331553 6.703912839052002 4.506415120058871 -0.7136559622718033 0.3827565280762053 0.0996796126805251
P 0.9413843445497507 8.233422968456757 3.679701078567994 -0.2225680593773457 -0.7976353906082522 0.6915244204800864
Ni 2.722193203233675 6.846500737080453 3.5057365192171623 -0.5104925326733144 1.2366972781444057 0.10243994903448164
P 7.839226489928608 6.015629994519038 0.5778368464472882 0.31921377032755344 -1.134679504249007 0.48855845160438444
P 8.00477154656891 1.422874362388482 7.341399801223309 -0.4626759274106677 -0.8582015822270833 -1.535256348336085
P 5.258719799354576 8.420272643866094 13.439306562109653 0.49213177077793957 -0.7472003738861518 -0.3155193521951018
Ni 4.749728138336248 8.752724224630835 7.753877501762612 -0.2765064612670141 0.3204862092820739 0.00798173265389593
Ni 7.130709421752071 5.397720934769642 3.57929895474289 1.0875133880861658 -0.2418387346814996 1.2295804645939663
Ni 5.652155733977792 5.780819105944332 7.781871151122682 -2.158214846821315 -0.6349002442281388 0.4650966210370183
Ni 0.39005010583162786 2.14164468913522 5.560854785548379 -2.0658945027193387 -1.830730094734221 1.1517248897670682
Ni 0.8681092256103305 0.27878910514165456 9.220780783645036 0.5463285685353172 0.4312591036622831 0.35464691432418277
Ni 3.5093091976841597 2.910545187591026 1.655407375020762 -0.7693529987237911 0.3669511856128325 -1.331278650366417
Ni 8.108290022518052 2.197915548669298 2.5116671388036265 -0.6483337440252253 -0.37532166906471487 -0.45125431583728737
Ni 3.9161907973921077 4.82969792152526 9.233657449215709 -1.075868861868702 -0.5489449231122417 -1.5252503861633089
Ni 1.5240548700372762 5.475315191934604 10.0141416886038 0.060596016415502094 0.08667214467726364 -1.0044490153648187
Ni 5.072724562159423 3.9922545773162805 4.943643360516718 2.026546082828703 -0.4609764282210578 0.6283680995365758
Ni 6.7677328010498545 8.763775584829668 5.77766801292587 -0.3957169448916153 0.4435793157905328 0.06520086217736513
Ni 0.1426911817686272 2.282457984718829 12.3742305492682 0.8946120025353173 -0.8794823459827306 -0.7237984500224438
Ni 1.8856136866698043 7.716065324484173 8.38797863514233 -1.844543860688862 -0.5491842928165573 -1.6021896198235246
Ni 5.7065674861887015 6.1652411868794585 10.161116328760455 2.7565419199111107 0.30539049129121604 -1.3864727790400575
Ni 6.032361960427553 3.863732046813617 9.372317748288193 0.3383458631713141 -0.7293368633421697 -0.21354734393597416
Ni 8.031362414948772 5.150177977860509 9.054634803425529 0.08591238369310365 0.006104570235841099 -0.26149199013605284
Ni 1.9916015829522458 0.5017862117264109 6.909944182898209 0.5551695638657148 0.6039482759313146 1.8439291099229986
Ni 5.82344712234425 1.6819757087664031 8.003782839492498 0.33751411129863806 -0.4505783728161853 0.13837394392692942
Ni 0.8808497444325883 8.348452886720063 13.090566196576061 -0.1262689331332793 1.0605414874830121 0.5196554301195051
Ni 9.252476685618872 8.581648793175654 6.929938976053193 -0.08268847743916727 0.4105969473272412 -0.033803578813006295
Ni 4.405474042898666 7.685897082921851 1.6687375501051156 -0.3095561926331314 1.593654328659004 -0.6772766523118207
Ni 8.7236733253486 6.8820021754082275 12.351665868869018 3.238592395193648 -0.9996785905593687 -1.1084367685023944
Ni 4.4134926169086945 0.6770728029514959 0.553591457912515 0.14375783394666208 1.581815941263179 0.5050860169457624
Ni 0.6079665913428168 5.34616356955996 3.7265073917295792 1.1425308819726259 -0.4779336249006866 0.2286924271075287
Ni 8.743635255495345 0.8109247744472412 0.275422994155009 0.3990177271300741 -0.9521514915126826 -0.0005512445177796959
P 0.13783778492344698 6.12678207781028 7.635280538690864 0.07689192536204821 -0.20038458130177103 0.25567358368206294
Ni 8.153894488521225 3.554040446611299 4.373774385152462 -1.283535835764499 -0.5774707984660764 -0.2882566598244068
P 3.783076835167075 5.204730571535295 6.617121634295912 -0.1474882475233718 0.05001052759017194 -0.18729535221798066
Ni 1.7232422576821838 5.528177688042874 12.521013645033982 -0.8833413147175045 0.6032957299489804 -0.5044506973546086
P 5.277198199415157 2.50698744643056 12.647360644391302 0.6456924497476364 0.13414910721230444 0.13388814024143394
P 6.396286913653204 8.105398077793124 8.955043926432353 -0.3876233692502034 -0.7192774222236387 0.9057487358784272
P 1.511304022841001 0.5922421113725648 11.673823132581663 -0.06253308553721489 -0.27405234329956674 0.15471998938512063
Ni 6.591756086651775 0.65740288410652 12.735930207364603 -0.5698312796429477 -0.34967080126583006 2.161983055614496
