# total energy = -340892.78515698964 ev
CRYSTAL
PRIMVEC
9.04522940133858 0.00000000000000 0.00000000000000
0.00000000000000 9.04522940133858 0.00000000000000
0.00000000000000 0.00000000000000 13.23860753466195
PRIMCOORD
 96 1
Ni 6.251393074317058 1.8268016244046612 11.366125562242797 1.1759603652756652 0.5073902395989068 0.6103562363401874
Ni 4.537150282045468 0.47956900681961906 5.929214673624752 -0.0031053783982011034 -0.30338734481825813 -0.061064985632120636
Ni 2.510693313565486 1.4587964745063944 4.681078873558217 0.9951043409251249 -1.2206708208091621 0.3877089869854742
Ni 3.4492353403221294 4.285593412835177 4.769671466409725 -1.1160230654900845 1.649789481089675 0.34591261977497845
Ni 5.225320364616686 4.619687998472202 2.7319323835517633 -0.2720386553036476 -1.0644667906793475 -1.2602354704756618
Ni 7.514749281554143 6.172111640401405 2.6491115514511487 -0.7507590377716876 0.3553166866976977 -0.6942834712824624
Ni 5.269678168600983 4.300255729364244 11.496578571297185 -0.9457013650119648 0.6045463145266299 0.5449692262939454
Ni 5.608467228191485 8.024809755998366 12.517605852151219 -0.13054827723492357 -0.2674687765447781 0.9309949120397257
Ni 1.8871423483808523 6.34095893383021 0.4088054652392059 0.504851275227137 0.44901719897665243 0.2983253569143185
Ni 2.767035109021228 1.7387734538550745 0.33230996191636847 0.06218161573506711 -1.5342657022880415 0.36543474896830613
Ni 0.5049200706913132 8.711170792730096 4.487424134532485 0.34315228342102194 0.8444986308186941 1.1685573879433746
Ni 8.896634172194616 2.2448540274524205 1.2965440576854501 -0.7516879773438603 0.6338095822671214 -0.585279752987534
Ni 7.216166265746307 0.6766310836840312 5.041314171575874 -0.6644455619854234 0.007558271963232144 -1.0666170042531309
Ni 0.7459482931157722 7.358501992397385 2.6095278194372664 1.1786865059575764 -0.7689814743169853 -0.6662234798214527
Ni 7.788593595506951 3.901180217172735 3.67649401033931 -0.12687211393491699 0.024356574467493536 0.5619667892932064
Ni 7.657528224435896 3.6822133087608573 12.70465486029405 0.7773563286442419 0.6719598680845976 -0.6266359473368176
Ni 7.780660929500788 8.694048173859322 7.284053424441931 0.1182782016183189 1.1244436854536117 -0.6896004639844963
Ni 7.017686801466654 0.799538562541906 0.5233198759247666 -0.794378060013219 -0.016842525478635507 -1.3508020651113253
Ni 1.7743392950594492 6.6160062632662795 9.148261594192649 -0.130543135028601 -0.355507205441949 0.13716244011733153
Ni 0.21595936970372537 4.773529256662437 1.49113045531852 -0.16391168318671767 -0.39080228119881727 -0.09147419405159729
Ni 6.181970940226626 1.939360456537733 7.021902782795586 0.8229592140850214 0.5519744539671849 0.17218035095341314
Ni 3.4793830892372313 4.045035542328986 0.3359841340163728 -0.19318754933269955 1.0959023834808095 0.17421846442936448
Ni 6.078412111145017 5.580155660803466 4.665523792907362 -1.1041108874335308 0.25421062598329125 1.0133512029504548
Ni 4.931006696990048 2.781154711798448 9.437432144497617 0.533995500891261 0.587605058686601 -0.14196088994723938
P 0.19004026543843144 5.5215787565207775 12.551854707984443 -0.5088513975254656 -1.170031915606372 -0.4752627629367428
P 3.9634928011139707 6.021300533992315 12.6885959603769 -0.8673593374669514 -0.49182915193585625 -0.8301935270499315
P 2.423967656020332 8.468758650238426 1.5612156047091246 -0.3157412383979208 -0.5153781429003899 -1.0508047198112225
P 6.184711644673453 7.967969535721589 5.85507816607661 0.673776352468046 -0.5364992411497213 -0.2558283640923723
P 4.70419757486398 0.9977159161663638 12.655513034587223 0.18745836015840617 0.8747000941027387 0.26647684494515395
P 4.042701873196043 6.341022250434592 8.033583628319894 0.7067661771305054 -0.0713473413947352 0.6882254380138405
P 4.847935312040664 1.0206546174110978 3.7533305188028914 -0.15615723605227944 0.23568865591970378 -0.18273961452649817
P 0.27705717936374313 5.556240074805407 3.7569449923901925 0.4900175526484141 0.007537446027625729 -0.4086025426050318
Ni 1.4025894202734381 1.0771963451243598 2.60053867066084 0.6163147679164676 -0.5587858204620634 -0.29500092052677584
Ni 1.8551493727094706 6.402366994851701 5.01120983976092 0.8747707994396741 0.8949953540166651 -0.7407273645672985
Ni 6.039725665867522 5.76958085065647 9.298532700418649 -1.1340058752207502 -0.6674889767974376 0.18036931452210872
Ni 8.594071255539903 2.619778777686737 10.07247507337761 0.3974375271271478 -1.0557083277604271 0.6526056319277019
Ni 2.5468290042093 5.129305256685752 7.028919167084049 -1.3610013742418303 -0.14869049536158907 -0.6484432730198961
Ni 0.27941346156967894 9.03565029973023 9.119255353202265 1.2990110485819626 0.5646775033561501 0.44072847660529907
Ni 1.3533200568349262 1.2444969043604013 11.129644376535897 -0.7712705274614782 -1.901904143775886 0.13846830341294863
Ni 4.069837560788394 6.724729918219633 1.489105228501211 -0.5445419089485396 2.045976423639173 1.0070453153370849
Ni 5.746922551516858 7.857744372721458 8.084764248687826 -2.385055051211454 1.17837745935759 0.9077071451563786
Ni 5.158340442409567 2.954407031846412 4.736217686222956 1.5883511712785352 -1.5977092154546677 0.7123516416380828
Ni 0.7493728168899267 7.672045817297803 6.897420529534434 0.3952230359743322 -1.6299763030184895 -0.0020401703584803574
Ni 4.930898154239679 4.408427625336552 7.025834743927717 1.0968102400070594 0.9265322482826817 0.155972373734983
Ni 8.052406750279788 7.0900576802754545 9.291358024619232 0.48749812866067005 -0.0731669111019772 -0.16623313223104275
Ni 4.463386437940261 0.26387104423970004 10.482725966242569 0.3023555611196341 0.0860936464659743 -0.2407622137878692
Ni 7.928306205690769 6.916244556017249 5.011871950538174 1.5220341932188561 1.2714393096112813 -0.6597782384167411
Ni 7.069452648163662 6.283440321363623 7.072527121567876 0.6673827902368764 -1.902154312113479 0.06239887395219576
Ni 2.383535481507729 5.311358584742835 2.678938194729741 -1.175818440381162 -1.0433292373697838 -0.523056485381254
Ni 2.1833283784513635 5.161705267671019 11.378993305299089 0.8937349992470027 0.5513784722543987 0.297128765503056
Ni 1.1575360708561138 3.3126614246698267 3.8006714393765066 -0.4983461271187676 0.47551344549496816 -0.2485418577332881
Ni 3.624559017856309 2.744096407776494 2.8730424816465865 0.3919176257501831 -0.4313753175251732 -0.8845551325199476
Ni 1.0971229850463429 3.2631749757305766 7.990333864912285 -0.28097375300974836 0.6461673325015259 0.2111042817121203
Ni 3.5869399096241135 2.5342651808540415 7.23967843452216 -0.6274921246895258 0.31931250068894684 -0.91544745122343
Ni 4.195991372405234 6.928328982225042 5.954394782664615 0.1272490376583615 0.06238164756101514 -0.9124366894215641
Ni 0.9495772063775332 7.32592107682817 11.57815477986023 -0.14551415451613647 0.005096697796617029 -0.8574454207873491
P 0.18063594064184235 5.602940593151843 7.987672758482394 -0.08914477458747228 0.40279262079147404 -0.3531813855222498
P 8.418141547649494 1.7383754637703868 8.042400917741569 -0.014633433642458669 -0.6280729368936602 -1.0791213073677284
P 2.0400429027345526 3.427155935851153 10.081146734609206 -2.226718291009352 -0.6315105018202996 0.026091040660097004
P 4.045279763517317 6.137341779366406 3.629509471796074 0.789257450957202 0.43787995141291036 1.7301814491851817
P 6.826696786962491 3.867550055016615 10.151258115164485 -0.250211275015911 0.3199208236969071 0.6471065564863436
P 6.289762936572641 7.774926254189604 10.455878821461615 -0.44635739275630226 0.22007717463469195 -1.1758392663167685
P 2.520416934952745 8.482959660078423 5.723023246931355 -1.5262634008088551 0.1300595105239631 0.029870819417503393
P 7.01763253009147 4.229160227872284 1.5602495742308367 0.586963311337544 -0.9088564282694735 -0.0996140495499123
Ni 5.578654152756689 2.9028763611085373 0.3931364147004627 -0.7377304867225036 -0.22262565208815852 -0.05561553248177518
Ni 1.3063843625293563 0.9929490803793075 6.941836222985596 -0.057934924643571195 0.49359549980765965 -0.30223266238852464
Ni 6.807394267855131 0.8290992760820936 9.250212181522949 -0.6375075999439989 -0.4414661261022719 0.2848517479079159
Ni 2.561265190008431 1.4683391913097046 9.178525122041478 0.11416855032531951 -0.624493447072518 -0.6188138801892376
Ni 6.3876594521766465 2.214597735786949 2.606323999255529 0.06752591076611597 -0.7058205253877844 0.02896193444998883
Ni 4.054478761611124 6.987222469529642 10.784964159169094 0.20293691540997955 -1.4228952835331494 -1.3485289528064324
Ni 8.505129516841375 7.390205520734448 0.3316831275329851 -0.691515421619022 -1.1369803844680417 0.2489303514209584
Ni 7.597178455230508 3.929654598686309 8.087570983307796 0.08448619276953837 0.04339970714187364 -0.8109231088560938
Ni 3.0183387118139904 8.44071843972633 12.477877396470175 0.5198243515972015 0.00546282288678414 0.6005194527554238
Ni -0.03938473697153823 4.961633843052615 10.193211697228097 0.0852958331550273 0.13860894275587096 0.18122754875734595
Ni 8.599489347829175 2.5890973602489855 5.832903786699061 -0.19368454357377612 -0.8004661751888278 0.27822370106843697
Ni 3.3638574219273956 2.415257100303187 11.367608075308258 2.0523363044189296 0.6079681957239852 0.5897912677046424
Ni 1.267173293958409 3.1503538319507784 12.390899377030413 -1.5763227793590917 1.46129830879138 0.854091930934084
Ni 3.0151819268240807 8.307816887128192 7.941192039205457 0.6987790451599707 0.5241887992134843 0.04946468238903094
Ni 5.710931584540202 7.970158481187371 3.4298052834830868 1.227902305560595 -0.22447273259922632 0.15925104448625474
Ni 3.4098252767088386 8.212136452677562 3.5902839308584107 -1.7137461864472936 0.7440204334962736 0.4531893280764711
Ni 3.4529348390638868 4.714997578525736 9.216876893838666 1.2876393164099116 -0.30242343824309204 0.8722511183416138
Ni 7.154278807577352 6.134022180250942 11.607783332619398 0.7304421805912066 -0.7153438914971874 0.28821552217382623
Ni 0.8349063132268566 9.158565919294382 -0.010925732347600255 0.1521198327581122 0.6146114120721158 1.084412894783971
Ni 4.436703011807782 0.5082432878984564 1.5749842525934834 0.7508621390084552 -0.7794034409812577 0.3668617112228198
Ni 5.812147699259672 5.700457209129556 0.5045202715607858 1.6953723119257964 -0.35797546447678347 -0.7757442469621156
Ni 8.108116316906884 8.635959711953296 11.328382534370595 -0.7390129529793531 1.2904050520805068 0.2278946137965817
Ni 9.22115890534074 4.868458937089679 5.846182183160917 -0.1802063065816832 0.12518932691585538 0.8251857894226949
Ni 8.097533398745867 8.871976877402368 2.380579500606002 0.273825057780109 0.92358962071459 1.2830771509605257
P 8.453779750687449 1.7408086304245007 3.4812373612227088 0.11040625506940986 -0.5704915389347659 1.07524536935209
P 1.8970921004980477 3.126890507412592 1.6713340340047242 -0.6292425317217292 1.4164469568046445 -0.5949789825531688
P 4.580268889629714 0.9696576151958729 8.373922135671918 0.9339583655434238 -0.7044452423068126 -1.162715584450617
P 8.51912248640983 1.6184809507581825 12.28360034567566 -0.2871605985467506 0.2233350194503573 -0.048259606337336246
P 6.62327862754103 7.779231783287591 1.327593615951538 -1.5061087802378514 -0.5648435966203692 -0.2953775871399042
P 1.925258944218908 3.119835228638581 5.855634447672254 -0.73142485621945 0.5046152479569309 1.44684228126705
P 6.752263595896673 3.9038756954735754 5.873175860654869 0.6680042258709592 0.14065322687940937 0.5915979818960778
P 2.313543497977858 8.399363651835587 10.271372427246186 -0.10837225535851659 1.1839901775586772 -0.40203491668984304
