# total energy = -381161.51720505283 ev
CRYSTAL
PRIMVEC
9.37268442608556 0.00000000000000 0.00000000000000
0.00000000000000 9.37268442608556 0.00000000000000
0.00000000000000 0.00000000000000 13.71787106304572
PRIMCOORD
 96 1
Ni 6.7136727122843185 7.685948147518081 10.469356162715046 -0.22673607471210624 0.16756470655827269 -1.4037914728241632
Ni 9.003775717963665 8.357369780317095 11.616855810767838 -1.6637695974188509 0.17556726514777504 -0.0833551644888887
Ni 6.965882281732482 6.907218648926506 8.06162221644325 -0.6502813546698994 -0.4664369371149967 1.7706742670929052
Ni 8.75964540262618 5.687579322174071 12.072947513416494 -1.2649249055315313 1.3582266397101705 -1.2820373968421017
Ni 9.01177999059768 9.26843221253826 1.6354716000425973 0.18786022358251517 -0.328306476657441 1.9295226768241025
Ni 3.2908245386229864 1.4755885973492768 12.78520687021278 -0.37289454768046104 -1.485318068744745 -0.7284025244533584
Ni 5.2276710623631555 8.236893292685199 4.33099288917176 -2.0331242502668534 -0.8421717824577304 -0.68982800661427
Ni 6.451603078654674 1.8624555262036533 9.984429395946309 1.4728718725615924 -0.08322763777208893 0.6732572467397824
Ni 1.5304562928990761 4.342964619189827 12.12978066092338 1.0816772410203628 -2.0454634885584966 -0.9111981890287727
Ni 6.0903610694506485 3.3023998040831857 5.272065720159735 1.1193300183761303 0.5141617539947854 0.6128800312033057
Ni 3.2786681667186324 4.258751048210163 3.9611861207956456 -0.3820682437599291 -0.04971690760915309 -1.2334741432214176
Ni 7.220988010716843 5.617256069746647 5.7945385241001395 -0.9076294978409079 -0.9768880750274144 -0.34710946829655703
Ni 4.4597763871497085 4.321707370555227 10.755675743166691 0.006504890998053314 0.0633416974814393 0.852496561422506
Ni 2.2569611929933022 6.212177850977937 4.8605027046972 -1.5630517732817986 -0.9326121359281745 -1.0253189168352923
Ni 6.023252647835246 3.3984135849530426 2.7266742181466594 -0.07784734729678205 0.014558100319832993 -0.3077692759360377
Ni 6.890169735669743 9.319325889824801 8.413773658870072 -0.63984524693824 0.41541622309275555 0.14391929922519084
Ni 9.07042487803449 0.20043111073697303 7.72232447365377 -0.5490631938576609 2.0100367723197703 -2.5986242495242986
Ni 3.5332021619434197 7.336965609748824 6.2164180534833555 0.8550717783488501 2.115769276062595 1.1938465015274664
Ni 1.8024047360793682 6.656227528474152 7.562031884644165 -0.739936493234887 0.0809882069186089 0.4839898583970956
Ni 8.859951873035124 6.752531862566086 6.882955580346088 2.1370405267365453 2.068626042717889 -1.4553567464959645
Ni 4.81681943366048 6.832640197698327 0.407619927058402 0.3211176722184857 -1.0852680436954147 -0.25473435969724517
Ni 0.8844674397164579 5.6286907449380985 0.006909543074703128 0.7423042221361151 1.156657294071679 3.2992683729174663
Ni 4.818140982186706 6.0008425589969185 8.866491195068793 -1.1288459282863657 0.20070879741040917 -0.08510685707267278
Ni 2.989980108872823 1.5884169743613175 3.8299338576984945 -2.2297483360849277 0.8609989424665624 -0.34392052904561415
P 1.3095233719049064 7.13163820858561 2.1187665824254065 -0.8386799672543879 -0.6593108118620195 -0.40609366014024906
Ni 1.6212682338252817 0.7443879822788892 9.055907526883638 -3.2985404936125065 1.266578124864238 -0.6269578494526107
P 5.098431114646007 4.736045637922835 0.7868818596420051 -0.06751536924315468 -1.2049788639952022 1.059453396625156
Ni 1.9639523275546575 0.6530296138414858 1.768974244708165 0.3877719790129257 0.22745161272189215 0.34766071281433675
P 8.318894910103237 6.370885519024529 10.013620622080552 0.05199387656878787 -1.0959054688046028 -0.7227088165026908
P 2.7311253060552003 6.466561883249392 9.4762368142368 0.4919283965178818 -0.43841808330456755 0.20185885185445235
P 0.9895774109742688 2.486067094943985 3.1684032189400857 -0.37597267238515253 -0.11899913894474345 -0.3520246462099873
Ni 0.8846052181798303 8.042625659330108 -0.12293494279805837 1.4055863599410567 0.016571788315752102 0.6565257929177146
Ni 0.7012220834311609 1.3172277186322612 13.467616101148629 0.5061023740254187 -2.0808616655521326 0.5882974567679352
Ni 4.376068941137536 0.3763742084635325 2.5217151634875634 0.8131314293613221 -0.8880099238377674 -1.7269675702335743
Ni 3.3710640913393917 7.662928834181848 2.3465931129304884 -0.5081451154870603 -0.20691209800764365 -1.4025426880187264
Ni 1.543596796684662 7.050367660565058 11.198858447338965 0.27407265501454087 -1.7113499183009753 0.1542654183462053
Ni 6.891397557350137 3.5588739450166855 11.205512116124549 0.8352909961774969 1.0098637586224866 2.218084012373122
Ni 7.946274461815258 5.24045540413458 2.3192942318135863 -2.524688578577097 0.653673411070584 -0.4626841549407838
Ni 3.034987740241141 8.731039969278386 9.471572966388223 1.2943095293412352 -2.88233468473892 0.06335712410040702
Ni 1.486779582741566 2.97349355669105 5.366279945589626 0.298908226000982 0.6630363403427226 -0.16290535340939044
Ni 3.2392747734156253 1.7843060821492926 10.32965348719772 -0.36119628540692633 1.5532766961729054 0.2906195036296285
Ni 2.9265551522986013 8.623544649794162 4.283514618147322 -1.0562752560074904 0.5685174459275305 1.0444044727118336
Ni -0.06757236950226832 8.081765990149371 9.207887481936442 0.6373849583232055 -1.4965080239232935 1.1063588029274432
Ni 4.4062489854953 2.1856725540538124 1.0521541395937146 1.5335982439073716 0.2944982698587444 0.4382309069944259
Ni 6.168285569075013 8.455183116626918 12.48772161061722 -0.2305832163723384 0.2837533726374145 1.6724013049519197
Ni 2.751182851063156 2.1781181702797885 7.635463119279366 -0.18564496109875125 -0.15978686238506673 -0.3193235564325404
Ni 2.930444816400611 4.94404425419225 1.6491350996279233 -0.17714026606184977 0.7006713770866771 -0.5191959739845833
Ni 7.972949122138923 6.929750582664414 0.28190317147606275 0.2947286407019956 0.06092897427488861 -0.3671432470189806
Ni 8.019297047402633 2.062477987892801 3.8827883005998314 -0.33390891044588306 -1.6438054955920978 -1.0317330478917521
Ni 4.885061950110445 0.26209400260956106 10.623723340531178 0.7331230698574793 -1.1787656959349442 1.075449000722464
Ni 6.590178220216647 2.67135569646841 7.754342501458292 1.8251538861980245 0.00037460973059935486 -1.4257672057643056
Ni 8.614996761454323 4.063527401027592 4.451147893722455 -0.2356979118910844 2.796137937036178 -0.0701944587372146
Ni 7.523528896376558 1.183498254999781 12.209920863183203 0.8142534587809073 0.23261078832532844 -1.588588741210638
Ni 5.1595316454436055 1.4580523044941909 4.258370517216087 2.1675944882640024 0.10079058635651675 0.1468030485308891
Ni 3.774576908013454 2.8379926556723536 5.604669491619926 1.3935883070389161 0.15059311170094067 1.585686737072495
Ni 1.8833566128240928 -0.07759833020087105 11.515096574248506 0.3445849021024904 0.924991386158123 0.6528290607924176
P 5.514297129600671 4.684786425937552 7.113333355594705 0.7064162499902544 -1.0565855881590578 1.1951901600395545
Ni 4.723729930380569 5.9017264195300365 2.8021496352894455 2.049531230869967 -0.43529007919854706 0.7848130420326032
P 1.0549237678880374 2.5338021775260025 10.547039784345623 -0.2965824060812828 -3.082411504992285 0.37539494550481156
Ni 4.101889799026453 0.39506052971697203 6.189325371427283 -0.37830723405560013 0.32917576663627185 -0.24531769436903558
P 4.973099576400036 1.2387033671945742 8.737885778097924 -1.215935877227338 -2.7547544889933846 -2.4733271933859857
P 3.490406484136726 7.929272411981412 13.062719876230092 -2.5398130929233615 1.7166587321083986 0.019921935734907623
P 8.685638685157576 8.69949151297148 5.463114773628968 -0.09366014595932257 0.6651932387847254 1.7785472420830788
Ni 0.8470563692027878 0.606180249952577 4.708672712597727 -0.5338947136473386 1.2718702265011126 -1.580739934590181
Ni 8.960080262436987 3.038324415952745 1.322310525481707 0.7680841593136966 -1.039520662256971 1.125643362188668
Ni 8.784595488986543 7.270607002900075 3.886738887151632 1.136780866862726 -0.9572960118280995 -1.0218289014041626
Ni 6.808018155298375 0.9638400191089205 1.8235167081029287 -0.6355072816845184 0.6491400419766046 -0.4736172569135198
Ni 4.700017038385181 8.353958123128827 7.923949664406637 0.988156705962698 0.19241596127399765 0.5340044997523256
Ni 5.532180211785334 1.7927414982741336 12.39799221476037 -2.199597266422844 0.9438239454835938 0.09246741120280205
Ni 6.533435987750216 7.951260730013497 6.115015916246642 0.4530152643924521 -1.3530124424990826 0.4411385675595241
Ni 9.608501327268936 2.578294311242247 8.306582951634802 0.07775067381791771 0.11427036601050643 0.4075234506082401
Ni 8.701159850827283 0.9973848572320383 10.111799493089118 0.6343999075529526 0.14460886909304774 -0.1449271716644149
Ni 8.73734778600285 2.6805784180982366 6.105865364288106 -1.401750016914102 -1.3127466530005005 1.6768025193434088
Ni 4.193104765389734 7.499403606259513 11.199722608857533 0.5724779732371754 -1.4613852120782318 -1.3099562347395568
Ni 0.6130391805305311 4.837354985582177 2.829653778198719 3.3413259642091484 0.29605224460942564 -0.09911062755093253
Ni 4.654409555203541 5.609439250804295 5.4866270901742755 1.0031552362540594 -0.4044430119107035 -2.107165079333352
Ni 6.734470699374343 3.0040859991704734 0.3217070883638126 -0.056648858842295986 1.0103707801658923 -0.24578872046818315
Ni 8.631764494173591 4.796068309993371 8.049125616088528 0.6096890350698339 -0.48700499107433554 -0.38216928811416767
Ni 4.599991748513733 3.215964906857314 8.697994695243551 -1.378218509451065 2.621449474948931 -0.08126665739097616
Ni 6.736260882129727 4.800539080539537 9.349621218202937 -0.17548807517040746 -0.0677735080005478 -0.009127416222564926
Ni 7.178745321300555 9.14563129912974 3.8488779277779708 1.3153439814140313 -0.15830590696416608 -1.518406880878914
Ni 3.1866752675349495 5.66254488165246 12.696082012511544 1.0636594642867037 2.3538727120713787 0.45825105887009465
Ni 3.1126591773817607 4.722708307761004 7.1296305795478965 -0.08774660868836502 -0.5244613361485807 0.20165033538807206
Ni 9.081803317118442 2.8413668221222896 12.320459493351581 -0.9339002586119787 1.7832058239010127 -0.5550752043796956
Ni 6.348606647770365 7.784708124970803 1.5928090143569846 0.900417810583817 1.3835535485107333 2.365746837801145
Ni 2.338091150745107 2.886768106243101 0.5351784151613316 -2.533263207619986 1.0167597144113716 1.0674541554424455
Ni 6.08425007910243 5.822414762587364 11.856260418538495 -0.06633574711275672 0.18216651563184755 0.46661254346091247
Ni 2.1126405957818553 4.0268895769920325 9.608916537195968 3.197952510185099 1.2898612637618947 -2.00638477738948
P 8.195634735150142 9.223996314929513 13.491965398427212 0.01645711711475875 -2.111920848850782 1.0145909888948268
Ni 6.780237518193898 0.7184031515405456 5.884376643098156 0.5840412525947425 2.750087936755651 1.1735129321764368
P 8.312690192909187 4.6108546899456115 13.787969773858634 -0.9276951582425313 -0.048591792865774384 0.8971288554199001
Ni 1.5293971795411796 8.812441734883103 6.481090481621743 0.8005775039557115 -0.6896153763828318 0.9050673935406864
P 3.627135206835816 3.651907212189099 12.705217568174746 0.7436422242212483 -2.028642817456732 -0.5247629265493995
P 0.7925513965463566 4.987908418041423 6.131669302213995 -0.27713252488678725 -0.03656134406380155 0.4652771124789406
P 6.715041124233459 6.648129528994303 3.887548687099617 -0.9185908819484181 -0.46475826386099317 -0.7050831330011277
Ni 9.500621727716801 4.388028486665644 10.42732435870188 -3.7159359519188198 1.1149594001122605 -2.289967685887301
