# total energy = -381169.9834751597 ev
CRYSTAL
PRIMVEC
9.25007900306074 0.00000000000000 0.00000000000000
0.00000000000000 9.25007900306074 0.00000000000000
0.00000000000000 0.00000000000000 13.53842563328760
PRIMCOORD
 96 1
Ni 9.570316721091336 1.4492838754587658 11.329279365902186 -0.5737167307402828 -0.19855755539536127 0.5613535811892397
Ni 6.251952635526021 7.119693295177735 11.25261101122985 0.11603979920610337 -0.4187398881493498 2.0555244723389245
Ni 6.896821892075172 1.8897633867205317 1.319563542774719 -0.8084365949888142 0.09921629989086139 0.6693471130520988
Ni 7.356671068734829 8.145934058264432 1.7344480854806286 -0.7628257391282347 -0.42623902473987235 -0.3161852679138748
Ni 6.26508774768696 0.7625228611952092 5.6843918391150785 -1.4203419209836765 1.5917000331461104 1.6976230556331862
Ni 6.061641510456205 7.82423481126929 6.734392355086694 0.6136567614683301 0.47965729246001265 -1.5493889310827251
Ni 3.3543468928230937 4.4503147513106 12.051568083537386 -0.2595330666374691 -0.8100144809988953 -0.016918373021893446
Ni 4.812575594661879 5.905860930243278 12.935559281952717 0.20705325157119825 0.2246272558992196 -1.3548816344973376
Ni 5.030525955743584 0.08172352283850093 1.6561424668276676 -0.5796726912134017 -0.5128214379168071 0.3704733398334781
Ni 6.239428028578197 0.23909234161342363 8.242261605806938 -0.7197137384301089 1.2974730146708817 1.1470794205752568
Ni 1.6023541825286263 5.750034099635417 10.902792449123416 0.03144382033157811 -0.39348214202382553 -1.5504297136424137
Ni 2.6068110096019352 5.10002179916973 7.09079142338418 0.9796851781565773 -0.2098783797248192 1.0224338819780134
Ni 6.341493400116078 0.46309317936024846 13.18829456506344 1.5997925803462576 1.3537596050777525 -0.32885180763794974
Ni 6.3634160873142624 7.10985121113602 9.12281362485506 0.4354476878223339 1.1571542883127557 0.07230713420484322
Ni 2.696324023955032 8.090304083239163 2.858286431954688 1.049541536828083 -0.26663136824514727 -1.6514331873406847
Ni 4.243825238093262 7.957223196859293 8.369048738444343 -0.7379510873737419 0.4509393557000298 0.9192287726427331
Ni 1.8850273462794045 7.824003559294624 6.413409064205113 0.050886245326905916 -1.2302823757569974 -0.1483300266983768
Ni 2.0638221230109335 0.7523607244205566 1.139890933547364 -0.9893270721217153 -0.4044908344295034 0.7259270663296724
Ni 5.004079979920964 9.140576551532984 10.721106097700682 0.08263962647910283 0.19756536668542105 -1.403481397782912
Ni 9.05983261205916 6.647902266546411 3.6256036090886403 0.09073371634114696 0.4809233036566298 0.03087046432661135
Ni 0.8910406836110011 0.6276872348315857 6.436817314088541 1.01639718886563 1.0541034451671523 1.0191919780019478
Ni 2.6158390866928336 1.5724486771650261 7.710498615074046 0.07596684244461756 0.1324472940298493 0.561714306962768
Ni 6.034973532737906 5.652399515932107 5.144317652412747 -1.098179095330128 0.36009533903326374 1.3773574470023506
Ni 0.4843387607766163 1.8137647377668227 3.959299283521473 0.8638680364842414 1.6434784512699825 1.7246191246060558
P 4.631792050948236 2.1564246637455464 11.88134905503431 -1.6828507824200178 -1.3928889669790463 -1.3528126677834509
Ni 1.8572586091617032 5.783639636593648 2.063688921873527 -0.8742779189636556 0.06484296461731413 0.11865358267986663
P 8.058789064131899 7.2869069730180716 5.822782270833243 0.35105045522217604 -1.5785185014588299 -0.7427328250331015
Ni 8.04338768261925 2.5681086791221013 12.84894061731452 -0.6633145337047737 0.06619047978414407 -0.6167644538593766
P 8.505207126103047 6.719599628771361 11.336089274052103 0.3546541134130343 -0.9045092070443712 -1.5088650028267498
P 4.776777788983829 1.601577175893754 7.230074487724548 1.275645634383145 -0.6191031292948822 -0.4759495045911222
P 3.1081560405953716 0.6455500623625628 3.9440681034621767 0.2081814516383705 0.4652215766506569 0.6120894169812103
Ni 3.7346176399612365 4.032960437515274 1.072404207277102 -0.10665141601266794 1.598857727236814 0.6252313536798071
Ni 0.6538575583004068 3.641256592749724 11.88786111064086 0.9964713964759806 2.200631107003997 0.9445209715506185
Ni 8.338548453001904 8.224383978149584 7.839858194677616 0.971346833494211 -0.7544382863954878 -0.9499531983097834
Ni 8.320862301979572 4.227156595759452 8.200887852515782 0.1254412950256614 -2.137133343560668 0.2771016716488518
Ni 5.676098218295715 3.450316462308821 13.019904277176012 0.892254043826102 0.6584911441742014 1.373743247288531
Ni 3.720631520533533 4.771782746331078 4.94749539674428 1.2279578413888785 -0.35777363287862257 -0.8654844890417417
Ni 8.357427864213507 0.04714765259457823 5.359172012057646 -0.7481120870671438 -0.022083462162600678 -1.3994774188298416
Ni 6.017130130372801 5.1593425557106425 1.2946049796531391 0.543651021703154 -1.2289932246319286 0.49134861275501185
Ni 4.151157946805744 6.745629351039586 6.346014838724717 -1.1360930967670824 -1.149323222304111 0.08852693849781527
Ni 1.4409125539759142 4.533102958240456 5.160861418680239 -1.3021133416563704 -0.2558489329176626 -1.2653416813539757
Ni 0.5021914132207081 5.812712634848456 6.920707446034309 -1.7879592794255983 1.2267594502054033 0.24124712384408778
Ni 4.6050870729139906 7.676437049221777 4.1829264180772405 -0.06733924867660662 1.7684476917552316 2.3534083708404503
Ni 4.1989346047714085 6.263052730309913 2.638111426876711 -0.35042773403651256 -2.3274194029758566 -1.6473268784817952
Ni 4.447493477219695 2.214792662150842 3.007777883464643 -0.027124881241250058 0.10522162554467684 0.314910000745877
Ni 2.6593329580877145 2.3331381727050955 5.397175036566095 0.2929270687168826 -0.3926326495393367 -0.19181972245089546
Ni 8.262438803100357 5.000056195561802 5.16857783457084 0.3795197663064625 -0.7047113514840058 0.2643258600404222
Ni 8.307754940055593 0.43946385258903986 9.545145406153063 0.30107180931120403 0.8827049666850862 -0.5521724289106038
Ni 4.750896067979389 8.415860613171708 12.752696320482892 -0.9234381827383904 -1.1188829035363828 1.856596935198654
Ni 2.2903935577081276 3.431557302124044 3.205439121297192 0.047565408483789054 -0.2935492756819138 -0.867672497831996
Ni 7.618263302475199 5.248726068957927 12.705975096529594 -0.3466644103393384 -1.2794683505633448 -0.3878228868555192
Ni 0.8858624893943158 3.248100485583281 7.092104009592375 -0.18176722331089987 -0.007171320937458617 -1.9051079954251642
Ni 1.9796741544700511 6.842181675501467 8.706615570933058 0.149070247298511 0.7494022666334771 0.22158769774194742
Ni 6.47224326659133 6.512619861367735 3.2090133518176054 1.4910074058200387 0.5827058216127707 -1.0950729456009787
Ni 6.647375012044175 1.7029857918235873 10.921150155880172 -0.7338656044504588 -0.09488116285061723 0.8299083917093449
Ni 4.083780371467523 6.098003570952436 10.047853898789121 0.09010868116263837 -0.07528781409972195 0.28147151858177333
P 5.226424128521292 5.5755036093167 8.20737308289327 -1.8719759887578857 -0.6012889839315967 -0.2963522923483477
Ni 8.496780304146275 0.6171874701739233 2.699142523022242 -0.35209303755407745 -0.6269437083852235 -0.22421947893783964
P 1.8684697048934336 4.703295161514469 0.15632448485733827 0.8624953245064307 -2.848523906837062 0.2958146746773228
Ni 7.9942420129635705 3.644854873475502 10.699376737153317 0.3300532841452186 0.22446759039290373 -1.1402300017535911
P 1.43284648509962 9.169843801446511 8.607500974591895 -1.4948900287038964 -1.6426497847210997 -2.133783196141512
P 8.205569317490887 2.800970167530167 5.45455050149613 0.4185138881814728 -0.6138994736067557 0.19817266125211674
P 5.581701162237706 4.195789577915973 3.528845007865358 -0.5623408848031735 -0.012725417986468408 0.11361627736627532
Ni 3.842686312761405 9.14609884868797 6.2797583729596695 -0.0045120289377406165 0.8057716465621413 -1.3668537192575492
Ni 6.364415095844813 9.057177839390013 3.670524767671149 0.43654683442378367 -0.2944550753256348 -0.7117512890499227
Ni 7.1203408007067965 5.898618118396788 7.39518932264283 1.25812433766993 -1.0896399475108653 -1.4375397729192017
Ni 6.075276126882418 3.4252949986501324 5.9564607123156454 0.634008842762121 -0.9718769949660682 -0.3202460682468098
Ni 8.87812406044686 0.6795968280884533 0.3939479139276936 0.21703633092583913 -1.1230792010059172 -1.0332839373186398
Ni 4.330415227486601 3.5766817913444364 7.641547601300209 -0.19276640263488093 1.2865116305633713 0.7875474102446308
Ni 6.532146778108397 2.892592199892203 9.005449547681282 -0.7433434620339069 0.14133585476873076 -1.4059555703550173
Ni 0.6503101530090548 2.348641305086597 9.15693069118125 -0.6749361771041021 -0.7035073038735755 0.8578385424607098
Ni 7.924191164798231 9.077361511738722 11.584452044825875 -1.2728940397799369 0.10220443598490786 0.44001473836772603
Ni 4.285265591953124 1.6859286461723413 9.40184133247723 1.3721671610506627 -0.031119090002307698 0.5430576110935292
Ni 0.6832829845646039 8.31327723721058 10.741346195531209 -0.8338825458657446 -2.669339870872306 0.016447346922745867
Ni 2.2617923134816347 2.1125885394281627 12.467941888960134 1.0410586961680521 -1.0257680885575688 0.8558623925709453
Ni 2.2176694367156666 0.5199330647169611 10.354783544666398 3.5895819152709016 2.150274766038632 0.43569939882182385
Ni 2.629408952566141 7.777235159938496 0.3992019587920689 1.1560571985938346 -0.585835625491004 0.6528375454328498
Ni 7.927835695918941 7.5631328317152064 13.134046551838766 -0.18707012358105204 -0.037088420211865154 2.303247433715343
Ni 0.9398265251941019 6.321429978794194 13.041944440377328 -1.795870563852875 1.8316389797017358 -0.00042397491129604403
Ni 0.6898311154792011 2.769492148738849 1.1231991660160874 1.331713166800674 0.25850154004916126 -0.7808345170008295
Ni 2.99982836558358 7.798787843977218 11.615332508514658 -0.9922486166438848 -0.9320626911826076 -1.5097381494603226
Ni 9.192737746938286 4.010945249527223 2.9145925877538756 -0.47137602628782693 0.6451586887313533 1.4688365261499543
Ni 5.782723878773977 4.425792791917186 10.890201241606887 -0.5174409389666895 0.40013410012270445 -0.3325390266815499
Ni 6.816142703154256 2.1501253599556884 3.6138661838625734 0.5228837072488157 1.1517562572256357 1.3181035464370396
Ni 1.1140240126693026 8.706146591928437 4.206700046080639 -1.0380458774836574 0.6133166045200921 0.8052255442506842
Ni 8.853417099473717 6.158212335076059 9.215904569760164 0.1947302112294711 0.8556716167163779 1.2917211997887688
Ni 8.420716904639661 5.8186789357947974 1.4140077742355592 0.353847558351339 0.7283063651951263 0.28167900660688905
Ni 3.81422381971971 1.9054145203658184 0.6460458665962432 2.414098232521339 -0.5655987296188387 -0.9258316226712312
P 1.471225062814924 9.136034762750574 12.692626307544066 -0.02117406297445386 0.8086263424021171 0.16438065240333624
Ni 0.5935840436238771 8.112957526677288 1.6231622352089294 -0.7680857019755932 -1.11755749985674 0.33131312469424873
P 2.182861389489181 6.376828701844799 4.287511511131064 0.17750227738695884 0.6630275985919741 0.1397093749089013
Ni 2.6452265876331857 3.013546232720672 10.326582828860023 0.11214843457149719 0.4899897847342723 -0.18424859497185686
P 5.251861845734377 7.2196866490226235 0.9405471063471562 0.48773981235783104 1.070116275655641 1.6184652170550964
P 7.985019684213953 3.7216120289061103 1.0793713667697913 -0.7469221805241008 1.0381137546071155 0.16986121590193326
P 1.6117985131739208 4.290695388318244 8.953489078989989 -0.44974199295781897 1.5997198181267935 -0.05184758079891071
Ni 8.133178199341943 1.554096520455659 7.597412699431558 0.05192471389374929 1.3014541108058166 -1.9392206208381575
