# total energy = -340871.2760715411 ev
CRYSTAL
PRIMVEC
9.29648885340372 0.00000000000000 0.00000000000000

0.00000000000000 9.29648885340372 0.00000000000000

0.00000000000000 0.00000000000000 13.60635114044965

PRIMCOORD
 96 1
Ni 6.141827643981756 7.029047357315891 8.658211481809916 -0.028770901485105287 -0.4703534985605835 -0.29418382394211917
Ni 6.802863782717002 5.32303008884934 4.293402110513434 -0.22305399787482874 -3.402729564127611 -0.5348707044073627
Ni 0.7364306636015426 3.5851630494589997 6.166004092978955 0.4339703319458591 0.47779015734428676 -0.17248708356055456
Ni 3.443726267545827 0.6297887802912767 12.200991838437172 -2.834893974758453 -0.8303256817524216 0.28314119297471235
Ni 7.234592726587629 4.8673812790747695 7.528597906206195 0.20391599149379722 -0.313784371781866 1.0444322406259752
Ni 3.7968441013955667 7.113412993957276 7.924624614158632 0.8954836065069933 -0.0976507551759544 0.25568078277091455
Ni 1.6118438360503267 6.089293185286387 5.473943711533005 -0.18995541554864703 -0.8394243016195803 -0.015213474515644764
Ni 5.619188335293926 1.760513286316887 2.4200666350748006 -0.5117811695777509 -0.3707692738073421 2.1800031463410003
Ni 4.575750422717714 8.483715455768872 2.063376160546131 -0.43206591583429466 0.9362206792150392 0.42349308656361906
Ni 4.685486177529275 2.9841357464835485 4.593000987494768 0.6206437343091247 -0.4324173856364424 1.1581896715558055
Ni 6.283729250339233 6.875590215272987 1.7707580170693729 -0.09918236132913243 -0.5470225092785482 0.11737831551186881
Ni 6.423343920430729 8.319009562173783 6.614849732186676 -0.09648475989231124 0.4591674000367769 0.9044909522119261
Ni 8.896209964134153 3.897134623498847 13.294166896202922 -1.044982713812807 -0.9938403866110367 -0.2095464503066972
Ni 2.031998651257756 8.707481943257374 6.921183915365991 2.1131989442322574 1.0256511033637303 1.4714359114460145
Ni 8.45678352746583 8.828763937265474 12.01786402246538 0.7494084372810641 1.2075150001534944 -0.9191338989360817
Ni 1.6627328162128547 1.7560416751626717 13.23895225976169 -0.931589093980299 -0.46795208820794243 -0.8815140317007786
Ni 4.973844669798422 4.5768009259618445 6.983909185178305 -2.114498122659655 -1.3496548388807594 0.36768934933043773
Ni 3.1319685127503596 5.521640277412046 12.938470216336178 0.14959398101246493 -1.4689751086103473 -0.8950416338735683
Ni 1.6939783153590473 3.840054181738174 0.7276882454530513 1.865598624476632 0.22712611106167332 1.0030385081705373
Ni 8.655105524873068 5.793478908930587 11.279570342491063 0.05052269133990009 -0.7907684882850897 1.0789104769085032
Ni 4.995263780192003 2.1180469523875263 12.4078359272063 1.89008838208788 0.12524846228856493 -0.1702337687500036
Ni 8.113984796279667 4.223571534245471 2.1743083734773334 0.23008313680746825 -0.28773755409614316 0.533995500891261
Ni 0.801048698551068 5.963028273235335 13.474247323117849 0.3693651943709639 1.2038997719984106 0.28028289759031083
Ni 8.824422476955665 2.8565321400328973 8.404520526245937 -0.38778406319778375 -0.10839668083854881 0.08665851783050882
P 9.406838209181137 4.711181672810465 4.228350859181817 -0.44595013001555456 0.45324049302938074 -0.09527685562713914
P 1.652106929416039 2.6641134130683355 8.574599790417192 -0.21375791728488347 0.7959667446565775 -0.2643705972354286
P 4.230748423665543 1.5026751670608178 10.340092276181478 1.550452339350233 0.23152166902620772 -1.1350484575526516
P 6.028707967215653 6.17194826797273 6.329266241850032 1.2131752837630656 1.4718385462010715 -0.772736056263411
P 1.2976411046778142 9.449230198501766 11.408353673381361 0.40463095955179346 -0.5364120807525536 -0.3369878064815229
P 4.338699252610971 8.212304462739091 13.173860103878974 1.8485282992579068 -0.8745401714861067 0.15410163907483138
P 0.373488300296969 2.455304976197574 1.6366264161229003 0.9121518111912935 1.2267381100491648 0.5382388495486473
P 6.752672039220932 2.727645618115964 4.083048597189803 -0.5214467176919728 1.4855723508473964 1.4275219836718833
Ni 2.758547147173371 8.534046646598235 9.509288305652658 -0.5242127104728843 -0.3911812618047908 1.5815650015946374
Ni 2.2840078719822383 7.953508805127755 13.15964112412768 -1.356461834500264 0.19907794667520554 0.32510313922879497
Ni 2.5014434505393037 7.24546961858437 3.6269637820864733 0.05930815084201398 0.2744850599616111 -0.5905741686172538
Ni 1.5234714126990305 4.924220012124403 10.004586640526458 -0.2599444431432749 -0.07107274757710985 0.31449631024722613
Ni 3.6703653701001344 5.229200626521901 4.313634988925149 0.2489817734841841 0.019234936970212033 -1.5194075542292864
Ni 2.5246010043545866 5.193288289954885 7.726189199586984 0.22227881027170107 -1.3574002871541333 -0.12669805025089792
Ni 0.029560045711142006 8.875488090407028 3.2486524633553944 -1.0999351587892863 -0.6601466774997534 0.41287982982414695
Ni 5.637818499021677 5.554131506068976 13.279322262749593 0.4811197359381521 -0.6006009567256366 0.10062706419545894
Ni 3.735784762391642 1.5493993202023721 0.9881609896594422 -0.4595121849707054 0.34784711779353 -1.546445532183685
Ni 8.497734561009116 7.604630170210077 7.890391223484446 0.28111670634551583 1.2710076213905015 0.6461231095271518
Ni 0.9069059581993467 0.6261473455945903 9.034657924870443 -1.1409020881199512 0.450351858627676 0.43849701617161896
Ni 6.508397497249687 7.752044594477015 12.415931309728316 -0.9551560826669614 -1.0320590637726033 0.23391845139315845
Ni 0.20581031920499332 1.2407930751392937 6.36579958387464 0.00629226076661497 -1.2774616045459612 0.07168415590886365
Ni 1.1453646167234455 7.1864926930909325 11.136893408960484 0.3537061476774683 0.9643184658925199 -0.7480822622704729
Ni 5.899886520720923 0.33196553268718954 0.42214147488238957 0.7735603519369193 -0.39105964862526205 -1.1083449801195364
Ni 1.992953397936123 0.04818463154556095 4.404716409137856 0.609255289966525 0.5814359537614116 1.0307673415443732
Ni 3.1578034553648404 1.1150673594436356 8.311289757802763 0.729137345736854 0.06010904947675454 -0.06191499233724176
Ni 3.460153163407571 6.625217176592458 10.77395755319813 0.28538679447577947 -0.058988562719066155 0.6738791965944975
Ni 6.224575691556959 3.2237899334784 9.136215558408898 -0.077673283612763 0.7015239548949596 -0.5584019547600835
Ni 1.2182397931016076 2.243112617372271 4.038065676416616 -0.47887362021645274 0.568948362817362 -0.7016357978824754
Ni 4.479959401235308 4.023780691594229 11.222600528948135 -0.032488973766640825 0.7072431167669239 0.3627430610687559
Ni 8.478407160614907 6.631204115435109 2.6614155719935884 0.33057213276316616 -0.8015797199679808 1.0982366880409407
Ni 3.211035150726667 6.531331935331703 1.407114698502787 0.94309632328895 0.17861222262168594 -0.15907492391970668
Ni 1.4531899567200912 0.4545843617971121 1.5711521745469648 0.7688626893509338 -0.48181316246075084 0.4725775027950958
P 1.5575430444665983 7.005043823011973 8.572463457271166 -0.9805254146696856 -0.2519704237988628 0.8844929118234445
P 1.0795361789209494 7.51611829952549 1.71559730026368 0.16361446366127305 0.2831098255161447 -0.19492355818719978
P 4.426169916540315 3.5506916686693293 0.32670186067987794 -0.20524268072502072 2.012807650196688 0.6820887289884834
P 4.744212097822788 6.7170757832760435 3.403097822166891 1.1034244028894673 0.7411611096706074 -2.0055088025424297
P 6.985140040306826 9.302996428323365 2.352565758921694 0.29623042205850275 -1.9389573398744415 0.5156285683482992
P 7.17454670487229 8.391159612418829 10.087979864430357 -0.37487892510034143 -0.6297271846676316 0.27637739188831756
P 1.539219664872089 3.7878915825982498 12.159873468093936 -1.8651332548044397 3.0837852454113603 2.041622774656168
P 7.532452230498373 1.0958143309605162 7.575526582103243 -0.6599402179159022 -0.49203458307844294 0.03578847045351901
Ni 5.481869897957297 0.2130578619405993 8.749659183684734 0.6530925988664493 0.3503518864932547 -0.8143930696825651
Ni 8.42314883067591 1.0577916914163543 0.682419922471061 -0.30380206375817354 -0.7377952785221681 -0.9236292157032737
Ni 5.343175580265525 4.676068834287653 2.213930009109905 -0.3098616396886922 -0.4162112081902251 -0.07747505155902787
Ni 2.8066006982256373 1.8208660921654685 6.074936617499579 -0.1403467513825841 0.7095848775262231 -0.6417460635053787
Ni 8.103991070727105 7.94445402495269 0.7480168777002929 1.1713964000540664 0.44885933324254956 -0.30283327208700106
Ni 3.786701632020829 3.2349457201417238 8.796560899764012 0.2117457719508611 1.1946980508944844 0.4797010012137545
Ni 7.606870624031628 2.7842798284101042 6.232525119203466 -0.5759337929962597 0.572463317949156 -1.0818091386125368
Ni 3.337448806599897 3.363720684192024 2.8607490273916336 -1.2261377574610046 -0.8209959197110636 -1.747231719799249
Ni 9.393172370518565 1.9870873134489917 11.283311249618832 -1.1651486193721419 0.14321224585583722 0.015365683822792894
Ni 6.549246269415224 2.7317546662036216 0.6219118652580816 0.5729569697561229 1.7470473717025847 -0.5467132055682455
Ni 0.12481651908259735 5.4173801545544 7.736135513046226 1.1716943909104596 -0.6606920084802622 1.2216051596979736
Ni 6.870728151585555 1.3920004668717607 10.34564320969537 0.658814331841575 -0.8834932669143365 1.1441334505730554
Ni 4.857499111388841 8.728715123873233 10.840139257578299 1.1960576502461724 -1.3691476574980486 0.4482219567688668
Ni 8.342036965144661 6.215864881470681 5.833315293456427 0.6322885176369046 0.4314362526700956 -0.9529539328093202
Ni 1.3622145164806863 5.487512866711161 2.3931532997495317 -0.6737377859206267 -1.3660929298321247 1.3670000150274264
Ni 6.680745104709152 7.474925557271167 4.410471865407242 -0.3036051172560191 1.5784578234242237 -1.3854646494905174
Ni 2.431766266337961 2.716926766430287 10.845540517621124 1.3084063737539338 -2.540025466044484 -2.638785395124217
Ni 8.173965742572802 1.6936808277146922 2.9886622069221924 0.31265385772184867 0.528724739410625 0.13200249318294685
Ni 5.336826078356317 1.824891471853151 6.773745320227951 0.1792177174161688 -0.039940544948679595 0.1827802379564465
Ni 7.206842707262612 0.3448671999633234 4.913729854065324 0.6909186685752875 2.148256964277655 -0.6982285719731395
Ni 6.380022282221489 5.945262682973992 10.697136017287818 -1.0457859264403924 -0.5749421185069518 0.35021998890108075
Ni 4.695266083837456 0.25156763750239275 4.769557115472972 -0.32459148969969903 1.7610164322881672 -0.849593271732782
Ni 6.858754273900254 3.624617348291621 11.769058371811049 1.0521344943662396 0.2854695839975729 -0.5831722197262279
Ni 4.348637199230216 7.418914211732396 5.407912610272793 -0.7551178289610155 -1.3581767603088415 1.0623379172618028
P 7.954336192638618 5.9468430860846295 13.462858194583484 -1.8816752183235208 -0.16920352771327635 -0.1764311558099671
P 8.049597314254516 4.365928668558368 9.784721889423457 -0.5937790487077967 0.45993487433042085 -0.11728935534248833
P 3.3676438025019593 0.8934725317589277 2.90058820086414 -0.5734128263466188 0.4563831524234205 2.0788626328442326
P 4.432249820271828 5.256476524913728 9.535616891826992 0.8233387089116272 0.3635172202306191 -2.2406927509115735
P 0.5231050627810235 7.853357730357766 6.05684007223389 -3.144879027398887 -0.2998466786548513 -2.0580238417220107
P 4.271336894142269 9.052744243998356 6.9686155313117775 0.010745668552278268 1.0037630450413875 -0.9231859575182682
P 7.275841247775269 1.526046540120481 12.53607541349676 0.29659449026614076 0.30965029500883445 -0.9729216341804986
P 2.911790469971894 4.156627517776643 5.802211100941303 -0.5339183677964224 -2.410013520929004 1.7602186189772202
