# total energy = -340860.8926274657 ev
CRYSTAL
PRIMVEC
9.35350468843523 0.00000000000000 0.00000000000000

0.00000000000000 9.35350468843523 0.00000000000000

0.00000000000000 0.00000000000000 13.68979957827073

PRIMCOORD
 96 1
Ni 2.2147041015806015 6.363161088416064 12.156637628390682 -0.94352466907562 -0.8430940371616835 -1.3977527228292508
Ni 2.6498665475085845 2.189533820822451 9.419430861396634 -0.9571533156026483 -3.0260344117541367 0.014946594007503292
Ni 9.319934827391181 1.0583583939299541 10.340740771232756 -0.10498842648794822 0.43463521922336756 -0.4738856800835581
Ni 7.7136294296061605 3.305500449308128 9.118255497521552 1.1624147653807464 0.04703910366667383 -0.6510336594548916
Ni 7.893955643926631 6.860505632627281 1.5114636676462536 -0.15142949155930693 -2.862322760393367 -2.066380441216822
Ni 2.7945746164827017 1.7722272150904212 5.435781689474045 0.35389409531855825 -0.3838911559012808 -0.05850648087632505
Ni 8.18760891943839 1.0345163108186475 7.989682215596323 0.7814932336307508 1.0681540097229476 0.9665352710381806
Ni 8.379935680103232 3.81918556597735 11.174230626799732 3.1070763547288167 1.5875947527284853 1.7066036618652416
Ni 0.8043508828260363 1.7749771454296617 7.006960000901862 0.9127693901706343 -0.5559527218886425 -0.346067657295604
Ni 7.989707470058622 8.72607146967444 11.63832813906935 -1.4115523477165044 1.1031366964457197 -1.4192967675486137
Ni 8.58076477640879 7.884068989611743 9.06841067174668 0.3882615170548346 -0.4740774843793899 0.3578890754105643
Ni 2.1969511499347565 8.810243657167046 5.6197445463655935 0.6181934729964192 -0.4231413596511551 -0.05091144213788651
Ni 8.840474183889581 2.4344740446105195 2.596174625310141 -0.11074101270100928 0.19221412967583673 -0.26894896063473034
Ni 4.136428379977422 2.1584240646717228 11.21117884049384 0.9372843445928631 0.5317748390908583 -0.6866079570150756
Ni 9.090577542192142 4.682242784793894 5.33874749786753 0.585733809805817 -0.9858419417865925 -0.18354642669850968
Ni 8.916555589941904 6.959166398675952 12.528712556794485 0.19114223676789663 -2.33554074653141 -0.014223599798549699
Ni 5.7285164508384785 0.5156166153598791 12.033813018674005 0.6491752660899143 -0.8448470152970481 0.3280023151534609
Ni 1.5000028185147183 2.8647352541515563 0.6213598550577776 -0.6055107353224282 0.8360173328205601 1.058485376284932
Ni 9.227886989063064 4.503160586579271 7.759528947159634 1.338864690243791 -0.5975439150668677 0.7192632811562516
Ni 2.770685765848619 2.3531546760072635 3.029593577989027 -0.4696850117386492 -0.3115223152205667 0.6811536187687237
Ni 3.0045795007569485 4.2597449840337065 9.961369173925414 -0.3313043829435004 1.5958006855780453 0.9064850998238195
Ni 1.6940038564949496 7.883236527706326 10.262175074370564 0.011356305553083668 1.3495381107972373 0.6254848644515099
Ni 4.439444513548976 5.890575270762565 11.884457193286389 1.3060358166392283 -0.3188499592302315 -0.41772995882759667
Ni 2.2829566243201875 3.527861313099847 7.639838696819417 0.28387961380263366 1.8177894754131532 -1.6896289816841157
P 3.5499917048775447 0.1827094872811459 11.967786630018567 -0.19647753293788098 0.49357621653394995 -1.463303512146867
P 5.9467711261304474 7.3043855448007475 13.23973323581788 1.1757148249237623 -0.9857568382719539 -1.1625934570504557
P 7.102087948280018 5.800753566518596 9.078226239426948 0.35328500097964965 -1.3348789661231657 -1.1478216980579201
P 8.29870984654553 2.832680794040749 6.450948405419267 -0.7693712535562363 0.9043832229894682 0.6066481913609809
P 4.418483309840683 3.0324248838178978 7.999702625026352 -0.21601611719144087 -0.5537076346082077 0.41972359221885774
P 2.317508470147244 5.569703296995059 6.232787265172851 -1.4130443588809989 0.49843200196435455 2.5903962051875515
P 4.167229470477828 7.2781489645233 1.668690467117104 -0.8622155884824828 -0.6033800621326705 1.2163076587444601
P 0.5964898217958502 4.323208512441009 12.742917164614033 0.25683212276653833 0.03127695573641066 -0.6481229135659998
Ni 4.584966337419399 5.029931256121273 0.4303388436288456 0.9236274159310609 0.6248004367899755 -0.15843549056349487
Ni 4.354047016959635 8.697103666066864 0.0710623155079799 0.5193479261814152 -0.05513010820492441 0.5311935126660916
Ni 6.503398182212775 4.251055578301888 7.21333291935731 0.5320550893354385 -0.6611910596038678 -0.6616708274537637
Ni 9.137223469409124 8.389625910822462 2.4461752788091244 1.207991682679597 1.5744487022648304 1.1271626270466717
Ni 3.212956875238584 4.039011630034599 4.980883348934506 -0.7579504133138042 -1.6309394382627074 1.355480444423601
Ni 2.780114098440301 3.6726816241286264 12.403383078557912 0.7307723102371156 2.6173948452635822 0.7734505658319324
Ni 1.8127746573373864 6.438129427426311 8.482568879536514 1.3407282258150912 -2.3916378466352937 -0.027104312415959772
Ni 4.286561481593579 8.274746167875005 3.915693155277405 1.8878093562457166 -0.24475513699734625 1.636215599059982
Ni 0.6644168425769137 7.608655047982703 7.060787548916356 -0.20777804555236473 -1.5841127077171557 -1.6725889954826938
Ni 3.1650949924294216 6.149798296006485 4.459958619739528 0.19158163829816038 2.9083653044747266 -0.9677015234321399
Ni 8.292807785171172 8.790713539655705 0.3408099040774555 -0.6661311772179624 1.5099633780972512 -1.0825884399807228
Ni 1.5510168323589968 4.392892121377547 2.873242266544547 -0.21440197862678556 1.1713742885668794 0.9008420426054292
Ni 6.80083027356485 2.468679810769032 11.383656529142012 -1.8344895617766535 -1.1754643994758531 0.25761399523788536
Ni 7.213993276778909 6.149498983860717 11.124782389618002 -0.8454435112304665 -0.5592715018492304 0.646489491727635
Ni 3.6948774904382113 7.815264610103397 7.3218934346272455 -0.5182233256586688 -0.7247189049541841 0.5867555662021121
Ni 4.973894410330831 5.7695128613040945 3.0757559290205023 1.3571629743323466 3.001927234293288 -1.2694824429952265
Ni 7.354595157253276 0.965768052337634 5.720748365305352 -1.806430341646592 1.3170969595493962 -0.7791877254260258
Ni 5.102346088387941 2.5638797801322637 5.846570773231984 0.23354435588319133 0.5436646485499089 0.0853588251824788
Ni 0.02618700670330525 5.832387118924418 10.289554652904663 1.036119349884906 -0.3929329543885749 -0.6447223725248833
Ni 4.79510217075742 3.6934370507367045 3.45266287787754 0.5430555542110003 -3.265482534716273 -0.9158765683410485
Ni 6.937615924180679 3.529601064947122 4.380681121180681 1.5479917936248824 -0.40641067716003554 -0.05890705874885338
Ni 3.42858321575053 0.7937636510199602 7.510073786722751 0.3556678993895294 0.9386007494114416 0.2606692371244414
Ni 7.238677175300188 5.093301249483023 13.44219171261696 -0.8890576483759914 0.43616425427338434 -0.25665445953809346
Ni 5.822472404095864 1.4035027120183077 3.2886323391932084 0.540855718346204 -0.6457711255043717 0.5123370420812208
P 1.5904605610684435 9.059074938850094 8.175356763821481 1.0743089735807496 1.0688276387512046 1.091470572961701
P 8.08354182775679 0.546035147523975 3.605277464252201 0.5898398615543906 4.176292230057376 -0.7141359872320153
P 8.096337421988357 8.521725455656115 6.975335802000595 -2.75639253881744 -2.0368870597433952 1.3511563631269503
P 3.5530690078762186 3.7668994755135583 1.6945510365114314 -1.1933564492649253 0.06515638209267488 -0.6598679699170701
P 6.180281367352012 0.8826696471679714 1.1350674201379323 -0.36481845554054587 0.7054744549022753 -0.5483841655127653
P 3.477502044574435 6.3242130954480436 9.956550248378555 0.24285714864368496 1.699432340927783 -0.0411096255561163
P 0.648705760975477 9.206710654750001 12.293261463377707 -0.28449359323754875 -0.3449885652988123 0.07442778009227183
P 7.495524410387075 4.408980149212559 1.9723987600257447 -1.3571064100627983 -0.23703308576274018 1.0750713056680712
Ni 0.8357515329684323 6.719052583238388 4.500110408743807 0.3309544558032494 -0.09935333968935793 0.7437725791515255
Ni 6.07961895132852 1.7190244811802167 8.963341819727214 -1.8401999818978694 1.452386608124047 1.1092623497274832
Ni 4.500868977963237 5.253124581818409 7.724633827715401 -1.6356661543144155 1.0597467594958587 0.08611138707778718
Ni 7.149510216375085 8.317631986260778 4.147831237380716 -2.6690382804714874 -3.4197217278102334 0.5858556800956619
Ni 1.7697485363832826 1.7818239107640974 11.979136172445894 0.17148872420302724 -1.3007223748461147 -1.6610725102026618
Ni 7.14034378191095 2.762314379271679 0.3668472547078769 -0.6762299562148613 -0.29599670878114187 0.5617456744213358
Ni 0.8869834834688479 0.9421130393174321 4.121039994283142 0.7896698559042723 0.7887293463678738 -1.4673146901887892
Ni 1.2115407380311185 7.50620611258916 0.15432534235781475 0.5986415190064207 2.25593399334136 1.487856776006199
Ni 5.563352267402052 7.188570451397767 6.106773110402837 0.5975372301986484 -0.47594127706100614 -0.8204516171718192
Ni 2.0376796743681305 5.381623027398295 0.6121307521131224 2.341119526170768 -0.19903552347304432 0.2327984788561023
Ni 9.129048506427843 8.8945935612462 5.376641350872173 1.7377785448061491 -1.0619553371114032 -2.327209858068211
Ni 7.857411501629309 6.143924295145795 7.023961866131921 -0.5868944057728215 2.3334154726582907 -0.20676297402428906
Ni 4.593384491519115 2.010124249948394 13.605183076945204 0.5961295512178443 1.0003918145763095 0.7891260675856603
Ni 5.577644422362457 7.789374109494493 10.842006304553532 0.03325747650154918 0.16862142995756121 -0.17186179127172982
Ni 9.319429738145198 4.810282908650573 1.0966722192891278 -0.5784182499810103 0.008761034022081686 -0.06993452020760858
Ni 3.725744055470503 0.43902637865975247 2.344555999269631 1.112501682600387 -0.16868056533027076 -1.420801377118598
Ni 4.316286919070132 0.1317833963796865 9.729039344978721 -0.5350643084754075 0.07520348191603177 0.14612864817168383
Ni 2.5279062016128107 0.8989531632481885 0.297810908286562 0.6131391984019635 -1.5760281309368083 -1.631326646398797
Ni 8.124725308313511 6.094640679644235 3.6306441686060125 -0.865633098804464 -1.0110909461613684 0.3455642352966242
Ni 6.16578343529139 9.256826732156977 7.70627570432483 -2.199614749924341 -2.4369463407641065 -2.002072008946739
Ni 8.995835894552117 1.907207639327089 12.866480701190575 -0.5857001283544042 -0.3343670810292242 -0.0898410293235485
Ni 5.484997959742807 3.982422927475397 9.707834014801536 0.15540364571570656 0.820630823062161 0.9474178334824395
Ni 6.166980683874461 8.17847054548792 1.8906294878533816 -1.094991698741082 1.1388012397268645 0.21554457687166104
Ni 2.117128342060339 8.354194835567213 3.2192106283842175 -0.02403570079296506 0.03399615443978661 -0.4425215639499798
P 1.1507148979083932 2.989847731082446 4.610478021093815 0.03279827747694351 1.3081587765195017 0.11962803077799398
P 5.5217198186266785 4.943289743426085 5.1007101604412295 -0.2892593900573083 1.7521276144389695 1.5667107101906244
P 0.6982802704687043 3.2618289365397124 9.675115455867306 -0.1665059262764552 0.0916945375925195 -0.4977719997828524
P 5.367022206787565 3.924805339415119 12.216667485275757 0.004315853766534503 -0.8035353010324547 0.3557884841277937
P 1.120764976322515 6.693844888462016 2.272808071877752 -0.19817883189970384 -1.9944707995607132 -0.2050904714178726
P 7.074336100264621 -0.051818415236029244 9.639822812479476 -0.5749793995027904 0.13902289036483798 2.8705546613848565
P 4.8886185093007075 0.4464250007629472 5.786253763757063 -0.37600841071909435 -1.924697230411001 -0.47486089951263377
P 1.4198526379808671 0.9246191797477669 1.9605712535156437 -1.247953567784515 -0.3783164900269807 1.4661880327835137
