# total energy = -340872.761344112 ev
CRYSTAL
PRIMVEC
9.20726271102657 0.00000000000000 0.00000000000000

0.00000000000000 9.20726271102657 0.00000000000000

0.00000000000000 0.00000000000000 13.47575966196477

PRIMCOORD
 96 1
Ni 3.9179757165345146 8.704822402323746 10.210017426801205 0.643122375027615 1.0537044099565207 0.16412277075625928
Ni 7.571564883792271 6.95528596025786 3.7968219499087708 -0.17661936056137326 -1.8258082319525717 -1.2364147139069803
Ni 8.818053319370781 4.933002774356855 9.387012436833347 -1.6649908714204615 0.9698185697751426 -1.5503451243484072
Ni 7.665966948557537 1.9481923427169527 8.874933026334633 0.19496006785209005 -0.23324687924743054 1.1747069524845382
Ni 1.8179464041458562 4.4475682614709555 9.349576627301593 1.927389432531184 1.0335919554773618 -0.7607225767423028
Ni 2.6759988396934453 1.6969077283042306 10.232777780268458 0.6471268682013178 -1.254933341536458 -0.3468266469488156
Ni 3.698152318868395 4.527671447217354 13.528584687300519 -0.3107748955315809 -0.33452931763870125 -0.5445753332896364
Ni 5.475623596055497 6.946078697528389 9.02619822499084 -1.3767658361649386 0.23064235174504796 -1.1471652954208438
Ni 6.482824480557786 9.003110092970418 3.2616461208531784 -1.0920989505743193 -0.19864805822663853 -0.13148672988879292
Ni 0.8958813951978933 6.198126709699815 7.559294364752704 -0.736375515356506 -2.8738806404342956 0.21878930906120383
Ni 1.6170439313887994 8.184096451395787 8.094309066710531 -1.1419770663516848 3.6542700994779063 1.063522424488207
Ni 1.5283227477276171 1.8945876591059727 6.727638230724236 0.04579340418503081 -0.2388516270287177 0.7104937624937377
Ni 2.0979024346981507 7.230804090174549 10.167352812765383 -1.0206168833739324 -1.4175908406011006 1.097639163666258
Ni 7.006257366728211 2.239731109782922 3.043271025614404 -0.9471702362480074 0.10177814708076666 -0.11529135107585306
Ni 2.3013461119685417 2.9130214041382168 12.279260414801334 -0.4691857035047275 0.234933265810918 0.604650701314978
Ni 0.5938233304635037 7.530620186434312 4.486484598849611 -0.40709073394619566 1.403015771000403 0.5759839295079048
Ni 7.136733486867545 7.690577961833412 1.050994308948745 -0.4378825225160717 -0.4840808754490051 -0.2927566045772893
Ni 5.492785933783231 0.8776187895739876 1.3755116496591333 -0.3833833630269268 -0.6701166442282717 0.3727834760238935
Ni 3.314669826185929 2.36420409462264 5.152052761953698 -0.2596639357883786 0.6331832615370321 -0.1895998319814412
Ni 8.639938821869164 0.29802068002751664 7.223316744122943 0.2394697202286908 0.678380941119593 0.11199905347782646
Ni 4.851435633836471 8.651576801959216 13.007126758985565 1.1354976292749284 1.6641508920176695 -1.3361457486507313
Ni 0.9521874896937 9.087724837454257 2.299881236468283 -0.735785704291307 0.023618667860204487 1.3811570232540988
Ni 4.770991779369083 3.1800504378183336 6.828962315609519 -0.559610630356204 -0.06227288989729275 0.45917177091215117
Ni 5.060173487176307 8.10518100254149 6.852207891822613 -0.8609434066382786 0.515414395454964 1.1500475020646452
P 8.748787081856971 7.528833977464796 6.591762050994068 -0.37908370721030843 -1.0605435443655413 -0.19093834828720666
P 2.875280834210115 5.117470283141805 11.351993302411218 0.027958689996455073 -0.08050123997986136 0.22368057571523414
P 4.492840372311765 8.09736403648417 2.397566611122878 1.177851925871423 0.8006759772067887 -0.7979632062613161
P 0.09090975001197758 3.1674641096671468 12.588919995645174 -1.0742380111334984 -1.416423816876193 0.55264088390659
P 3.1669669174797552 6.64427383251906 8.417188435381346 0.5768105391742583 -0.8514681201579917 -0.3085282655892493
P 2.4288759080344438 6.269308057861354 0.9742950482334328 0.7254192734553184 0.13578227194035322 -0.6333508974631479
P 2.8359013715161674 0.35515542816897583 5.686568430271588 -0.09188299945424175 -1.518554462200372 0.44997339224233474
P 6.667660279851916 4.191937819049924 9.061046793695615 -0.5397529722003285 -0.4860781083846919 -0.5327348890112825
Ni 9.080248540117926 5.419514536982101 5.396381289374305 -0.2779943586664503 -0.23180243349142016 0.42238468399078866
Ni 0.5620288108060946 6.828676890464905 12.553249218378657 -1.0803626359739975 0.9592472220171996 -0.1551568198122231
Ni 6.660358920507446 2.3589007112904645 13.44103282600598 -0.48234820902861447 0.2704206600842504 -1.4088025528855093
Ni 3.1005917604629993 1.561026944942698 1.0985489002201896 0.27372195654334147 1.9030277158573676 0.12792600912072807
Ni 8.458297942742162 2.5700508674654228 5.042157636193551 -1.3135460089733442 -0.9062768404677553 0.47067077269068613
Ni 4.545772925743493 2.1500431635351447 12.039122112648908 -0.3506820161391638 -0.0006967689567084775 0.48857953465030696
Ni 2.7150100118782134 8.555572673479023 0.7780348773445754 0.19378224549390496 0.378619108869064 4.795920378617793
Ni 7.083469471977555 3.247788269719052 7.065165433671367 0.8785832312072288 1.3611476700117076 -0.6986270929631386
Ni 2.7892757930541268 7.291424707985386 6.353119929035182 0.2461820992518599 0.17841707589174435 -2.000747119487728
Ni 2.456460867171939 7.370303327788764 3.029229949951961 0.7419285839642512 -2.0216800129856534 -0.8145118546486166
Ni 1.0313423273789621 1.102339530285913 4.437554442526383 0.8770436546342508 0.6512555456577107 0.6976935254052758
Ni 6.784997636076294 8.263997077362136 5.480780583910274 2.3488822008353223 -0.27058418224530817 0.9109696179577342
Ni 2.905370168810026 0.35019639646288275 3.382024635957101 2.9552689110048007 1.0245409010186872 0.28681221406839635
Ni 0.9200845267348536 0.5322377915186182 12.287507360028119 -0.44250279489690236 -0.5938096448354161 -0.4708322379692149
Ni 2.6531095845479804 7.7360710469797285 12.418330593972353 0.47580243749029666 -2.656803428968192 -4.136584112834476
Ni 4.395703750515846 2.565078945591508 3.122589752576251 1.8077220638748221 0.1903120275571174 -0.3190556474831344
Ni 4.3982633695546385 4.462649757821829 9.834326119840417 1.185335892953294 0.7419766635933673 0.49488619359462516
Ni 7.131512968899934 5.897868664829036 7.180787476849244 0.2923182314882901 -0.05856253092524108 -0.0919778731608932
Ni 0.7131687906891795 1.7168322448508058 0.7616781751056703 0.8271141167936594 0.7851022911382478 0.18062513928665666
Ni 6.776296772796944 5.788164129407389 10.606015351711841 1.7892918821940924 -0.26453926160280894 -1.1725582815726516
Ni 7.692336549014741 7.674189034174955 8.831298887533398 0.39219710466381486 0.42628221927298193 -0.4730187040975725
Ni 4.064039732474842 4.831013925102504 4.606553749925824 0.2937922449306553 -0.3302054934523668 0.30713189946235486
Ni 3.3913479101969632 0.6047551135022046 8.03516437311523 0.060424780944960454 0.870807443916552 -0.93037167663343
Ni 7.975017929334959 0.7892263051922473 1.7363783428992 -0.18508497483022318 -0.4480417224372606 -0.880763012467367
P 9.060434510724104 7.1648340527178895 10.408569285383429 -0.05399573749016508 -0.8394027043530253 0.3569817331049465
P 7.946033466262584 5.311992122827339 2.2436193368335773 -2.112110082043453 0.8079321445485699 -1.1510142368532887
P 5.913069855595392 2.5310949388570307 4.92204797316133 -0.1123356108816388 -0.06015481511302543 1.2778297865186574
P 0.8060249560421672 1.2573345910738274 8.696473256480662 0.5281711809 -0.2649141284437244 0.06251483070476975
P 9.118164048037887 8.574797438058157 0.6019340082018947 -0.4216406067359126 -0.1905575679090202 -2.2971986564181015
P 0.12253393530889156 3.5185462448046048 6.922996089865605 -0.4623856498637585 1.5021479958178903 -0.16283387674150665
P 5.521963749372925 0.005029006902837049 8.691191049852765 0.3431373710226865 -1.0056468923276616 0.17597581344010338
P 2.315902794343835 2.8502923231623307 3.023461599851948 -1.6156328898126238 -0.9515493391523097 -0.01155633737903171
Ni 7.713467216978877 3.271073437161884 10.936117817993928 -1.0831134592462572 0.057541802970210575 1.129764583445893
Ni 0.35892304007787534 6.606238630183615 1.5173163858608074 -0.6570312717992233 0.676143567148642 0.3436744744730791
Ni 2.7157465928965716 4.589148340462031 6.654222279898254 -1.0039401940492 -0.4039290483887624 0.4984497425761673
Ni 1.2473631255378104 3.5941931153899382 4.854319348523341 1.583349861409202 0.7889540607841703 0.03954176684836416
Ni 5.005583626453274 0.5910362920352927 5.196023886570833 -1.2334337769017856 0.009624924684273747 -1.3375184606285417
Ni 6.413843668188589 0.9809601857232969 6.962358979486639 -0.10554738431521177 0.6768400789950343 0.6646437940391586
Ni 5.656767282995109 4.392932364434275 12.218808289898444 -0.012492990260688163 -0.028187518177809522 0.1981487499927168
Ni 4.564150622151518 6.63974385925616 11.174948688838766 -1.381325687621479 -1.063262485958601 1.1218939224485647
Ni 5.721761350602445 4.98755580602897 2.2094180386986846 -0.4193852350428326 -0.35663180596469546 -0.835953055241528
Ni 6.456344392947828 8.316865179954759 11.027793612264997 -0.050706010995299776 0.5426482914702525 -1.5189414132261454
Ni 8.304766836728232 3.3413708881013946 1.0555463796421956 -0.05514399216199535 0.8124673134147621 1.4246552036470497
Ni 0.4870467045898288 4.474904624514755 2.7919081494684823 1.5667834724100889 -1.0444222133236463 0.9441844141468062
Ni 4.728500261872574 6.6935234808590005 0.5115398649027674 -0.5311760291645948 -0.9086088310350415 1.211307120206075
Ni 4.687629222616453 5.829191692129912 6.935354077901102 0.5948275445769691 -1.1693762843002442 -0.040508758747323785
Ni 7.570542877629299 0.3318371145803176 12.601439110778433 0.8561650114130287 -0.33380760898132833 1.0011497757882564
Ni 3.1750693086816897 4.766535464208019 2.403428875302732 -0.2812462899448447 0.5671958989026296 0.13753756406856313
Ni 1.2392975633867935 4.495197431570509 0.4529365583559576 -0.08285765602717989 0.02943604587292995 -0.10000819966453743
Ni 0.5843278804106002 4.806448948140276 11.412796224024097 1.0209048469279967 1.5740468388407214 0.8609809447444334
Ni 4.748047280647241 7.260350196273421 4.47104125707347 -1.365114110858623 1.3026758990280598 -0.7104333415694475
Ni 7.696332501039332 5.3789289228705925 13.286991637636838 1.1429962516448187 -0.4649567530250444 0.5724502053230335
Ni 0.7142276259030685 2.7251564154060905 10.408421048453484 -1.614455581675071 -1.6130368469506737 -0.5096497250570449
Ni 5.03228468836874 1.9980036340833907 9.412305708277477 1.121610586880191 0.17395029836964235 0.001965865477119195
Ni 6.9702569694559795 4.267409751643397 4.081820798257997 1.058965915465776 1.1086676535662778 0.7092400925922946
Ni 8.930206986678467 0.1736010973116294 10.164469098078513 -0.38053972293054467 -0.4743410224534218 0.4531458764330454
P 2.076799388522203 5.965081682754174 4.641374696842409 0.4856132529331314 -1.8386130970267238 0.5640846069671576
P 5.021024206050597 3.0783101846576795 1.1221821021941958 -0.09650892826202734 0.4780161573121639 -0.7187189786170074
P 3.0371997565705913 0.6208843963516918 12.446427476917606 0.6053808946127832 1.2566189567689972 -0.7526824800466456
P 6.32262731632772 6.68098318902146 12.433248201046641 -0.48835224913084935 0.9667676987639608 1.9972835864191603
P 6.008420268421794 5.794959089301739 5.144775341492324 1.0531652496235993 0.1588808056310296 1.3882591815165188
P 8.503450359167488 9.374742838520055 3.987881858808023 -1.8086180933265306 0.06898449758951346 -0.8345291783108079
P 3.3182054150740456 3.0819562606985498 8.643163205277025 -0.34411387600334287 -0.5039233640962288 -1.7406386399627636
P 6.311514150213249 1.4374746863759271 11.178721825105304 1.6297539025950385 -0.12780491016183151 -0.2405871216625857
