# total energy = -381170.80083465355 ev
CRYSTAL
PRIMVEC
9.20329988304863 0.00000000000000 0.00000000000000
0.00000000000000 9.20329988304863 0.00000000000000
0.00000000000000 0.00000000000000 13.46995966264592
PRIMCOORD
 96 1
Ni 5.241398834209542 0.8367953018848873 9.420552814579986 -1.0421473012465405 0.5972063292217908 0.3925601444301884
Ni 7.109834337040122 3.8429390349498087 12.411112600226733 0.3326357001604142 0.24843901360683662 -0.4584104672660944
Ni 0.5636201985656341 3.711644761124921 3.4480539741354894 0.6159229317946876 0.44488595041709833 0.20713784086520456
Ni 6.251405758830212 3.4194952147701447 5.673411846759762 -2.1163603726793743 -0.0546084313734995 -0.6324263287663495
Ni 5.372030470454491 3.4987908451693617 2.776077805970479 -0.22483757213781277 -0.5295436357674945 -1.7033432459464148
Ni 0.7584743009261617 5.712322477651689 9.143866652417035 0.7143149360120408 1.6312934791680163 0.9062853251081875
Ni 1.3265912317356512 6.4977320758723485 12.744791116244162 0.5508665656149868 1.3847799647186665 0.0024361202453183853
Ni 2.9107552127729384 4.679307303727624 2.1921413232699485 0.8227830935184735 1.3119532105649276 0.7550561224851448
Ni 0.29311129117565815 8.166621634144454 11.231441004582889 0.19351613631671188 1.2540751073012208 1.3256078252338845
Ni 5.009089142643032 4.6141847548992985 10.777974180052214 1.4392086759811924 0.7698597631568805 1.0310810161300499
Ni 1.5411753680388254 9.01146614196564 13.53219046786458 -1.1676279341505698 -0.8937982483847703 -0.7728453281477657
Ni 7.378119727217419 1.0837621685876304 8.794387911437978 1.9907303586816747 -0.5841186427998972 -0.7684993924742441
Ni 2.1692177443239906 6.328658256691288 3.9924282323238205 -0.47112200129549187 -0.5826222607600289 0.22881661139021886
Ni 5.135643717111421 6.708947804477505 12.291216613106746 -0.5395711952068256 -0.24380100061419305 0.1637795284842276
Ni 8.039128323104487 0.21388192453443464 13.76939631488285 1.2511059973705678 2.0998688027822543 -2.057963163687404
Ni 1.3424209072563862 4.73805196584905 11.192661060547005 -1.675043113450141 1.0337703900367552 -0.08900310680328542
Ni 7.390571791740416 7.526743814417622 12.074444852459806 0.16124570631878038 0.3638771746731991 -0.6620526362732146
Ni 3.9455190136440605 4.494109303434746 4.664351021350447 0.05804625341045487 0.6320992844442339 0.8585078006135924
Ni 2.9646221260420442 0.8260440071503973 8.69798426718673 0.14502538780517604 0.5562771951075968 0.7919974755961844
Ni 5.372610278336937 4.666441090717167 8.01575746379207 2.064751133143515 1.5801938322787237 0.6223257499972379
Ni 5.123670224173935 2.4828017757298086 7.486751795808435 0.36768909222012164 -1.6645725529361204 1.430420388265601
Ni 2.473037074725448 2.8139641096034196 10.96065415754133 0.631683537063054 -1.4205226695359148 -1.1913664154180903
Ni 7.275125600035706 5.890949321943519 13.684266712790265 0.32691730961939824 -0.03793019938687016 -0.5790659108673383
Ni 4.234134492905835 1.1909253905431185 1.5331638956313836 1.4604788982138783 0.3471441781892344 1.557780240470214
P 4.1303120687492 3.1980454168748373 9.543210711946353 0.2393949011266974 -0.9114725257360818 -1.4467733757023276
Ni 0.5972343304679206 5.55803836112285 1.8798540367948693 1.9353580525589575 1.3656841244294804 0.30062906534683065
P 0.39299194206163596 3.783863054038414 8.725839894453362 -0.687956243512854 -2.3990099707296486 -0.9490800516762107
Ni 7.241855671542997 6.161268641359236 7.572313032657953 0.8821897176115644 -0.33056236257115323 0.448326343557215
P 0.8252736909637197 7.312675062898845 7.8173849399480675 -0.5148934899544874 1.0776591209999054 -1.982585103866721
P 5.117080661573443 8.972002392760459 3.0397385380377933 -0.6425091669236482 -1.175713796482498 0.5301434741350225
P 1.146363013292305 1.0947601117546528 11.1012400827649 -0.06677669130491726 -0.9923000387071106 -0.5602762889646609
Ni 4.86468016671521 2.6587780697018877 12.105237252667523 0.3370037473211228 0.04703319012940287 -0.7316086900954819
Ni 9.347883559980145 1.368144129977581 2.933622651590595 -1.638309248364217 -0.30700694384871646 -0.9470859040643173
Ni 3.2131204218184215 2.7542715076106945 3.2964360535359276 -0.9353436759267246 -1.9249419994319554 1.2881435097398395
Ni 6.642932535576207 7.80703951073129 5.889726203410551 -0.07410716352805947 0.4241191501833922 0.5002698265040416
Ni 2.1488876552395118 0.5666664907734034 2.2510590074261354 0.2325395687677608 0.11720296627626912 0.2780699490993921
Ni 7.543889561798512 2.7444976033066126 3.8523411259451477 -0.0921730198908348 -0.03389819540934162 -1.1302831749535245
Ni 6.621958215511234 2.890287074192639 9.906966531783151 -1.4561141934872794 1.0318474619824294 -0.09786621362087017
Ni 7.02141823661704 0.3211914789554924 2.328686999915843 0.2676209858519262 1.6147934246304643 0.9517730251273416
Ni 7.764345403323912 4.680172413901432 1.9984974548227792 -1.0090425482727718 -1.4023992204623266 0.7446696370444981
Ni 6.380831762811664 7.986632701493863 0.6744288475407519 -2.606249113059408 -1.0029032681442536 1.3304283865509796
Ni 2.5905540088674637 6.821182044579462 6.491550219449512 -0.33716752659249677 0.006203557707550606 -1.206156172132755
Ni 6.077325344600732 6.6484177022101365 9.890074795474572 0.3433140058098668 -0.34111339861412215 0.12545235076925493
Ni 1.8028988055147932 7.977917176657737 9.60181824490193 0.5931329304833657 -0.673370375278879 -0.36212419653783445
Ni 3.5886886768475827 2.1295515225249395 5.865453420725442 -0.015382653103657377 -0.2662035366791093 -0.686728798863656
Ni 5.825615097221601 0.3336610297479598 12.63969771639601 -0.12629875792995024 -0.31759937465258203 -0.9158994511591839
Ni 3.3214524628385216 6.132738412223027 0.5509859087081543 -0.062196785243718695 1.9056103889828793 -0.739568568372507
Ni 3.9504795921938722 8.567673826102054 0.3158839360061854 -0.43411919881889754 -1.2240695620780662 -1.09156493244772
Ni 4.743159797194403 6.985046796118234 4.4400215109723264 -0.46710568104724715 0.5164199539013429 0.6634893687197412
Ni 0.40474823712569813 1.9394481634805765 12.827307901545856 0.10016040897168556 0.3576723314140679 0.548931553375803
Ni 3.8803136351182417 0.5022986125222282 11.465669584141303 -1.032848649553434 0.5156059426404798 -0.7256123633027309
Ni 5.713620142912401 6.297431460736721 2.3487299460490156 -1.0123119630526631 1.1633848426034996 -2.9893193157212905
Ni 8.9369010076232 3.2152831972529405 10.759803185082363 0.3758813982229269 -1.5357134904781615 -0.037033912824845895
Ni 8.277769884879289 7.692964610685062 9.277017231795721 0.523730371519827 -0.14629165611210934 -0.2103568620231345
Ni 1.8758993789046021 2.9076444974671194 1.3041361007455108 -1.9728709619027507 -0.30908979451967417 0.29290598567096005
Ni 9.075769597118766 2.830079087415517 5.60567187949068 -0.2813879577290315 -0.40603658165006845 0.5625625138956762
P 3.7817186852033378 6.929937437386744 8.163334215483985 0.7104176578401635 -0.9062511294361424 0.476814937915211
Ni 4.046184705996271 7.945015380153884 9.964672141366036 2.0743351772875243 0.2502745241536786 -1.3042067338502892
P 1.4007146076914654 7.792157775081855 1.8830595460878183 0.34695160256245405 -1.1921688567147273 -0.4409457348224277
Ni 3.5711747974778394 7.4261425451634615 2.4418885068185134 -0.4994175058060754 0.998463744315661 0.12010625596599316
P 4.071650236325267 3.1458811140541822 0.7037974972815763 0.32068572688738967 0.11391169711950704 1.1001249062025893
P 5.686323155938854 5.888823359707885 6.051500885582603 -0.10472283153138738 -1.9752739149172887 -0.19852953037090323
P 6.658845040794435 8.849902215357208 10.561957089982425 -0.15376868121544485 -0.007545416447425714 -0.9864559212215077
Ni 9.14148115712926 7.2423434464282295 5.812503156108584 -0.1776496015981005 -0.24384599491951553 0.1302546572539047
Ni 1.3657512720500278 1.3306406836130484 4.7381255922468215 0.6920520108487823 1.084640694524061 0.24729821513417408
Ni 0.6901940999634375 0.6862808569219162 9.007793105046847 -0.9202929522411891 0.6273823385845388 0.7132294162573458
Ni 6.329744246058407 8.237128113309774 8.10670631229847 -1.3868751566847985 0.9272400729829837 0.35344440937564936
Ni 2.87172401865466 1.6982941008818426 13.142854996782239 -0.37058466860036177 -0.50648084041076 -0.6603726774676305
Ni 5.423228426804403 1.6551306251886755 4.262191672436367 -0.10818919281343302 -1.1364072855733913 -0.007462626925632309
Ni 3.047184927842343 5.531578874423947 10.075071243503553 0.7498157000218119 1.220872395297007 -1.0447402587846975
Ni 0.37017880271233466 4.416875212173112 13.305032783482087 -0.7966884533139506 -1.4230793745194974 0.8476484893015853
Ni 7.680291666968753 3.279531432607738 7.4308647582504905 0.5472415672678899 -0.26823496528684126 2.6860479276556064
Ni 0.8080810067542515 8.345736253321515 3.90778364412655 -0.3282080034063638 0.08447642257752548 -0.2716285643494225
Ni 0.9733961983291098 4.91098196761336 6.786704643163312 -0.30389976567830246 -0.12575651227323503 -0.15979791812866026
Ni 9.058541020040385 0.6832336443841747 6.890423070033096 -1.4787080196273954 0.3157816047175529 -0.09750574495765787
Ni 1.897876858639204 9.158884596902347 6.40570644129855 1.0015940624145268 -0.999711243569517 1.2226827090328685
Ni 7.926194632223708 0.34470038776372824 4.896316509507377 0.17085648993566704 1.1007031473035624 -1.017162606276745
Ni 8.326869488892733 2.4961741702249416 1.20872273154428 0.39254728891438206 0.7202068760164435 0.4400574186802034
Ni 1.7090159450572242 2.4586247073618024 7.459704218257337 -0.8662067119197469 0.07031375792389827 0.2160657394824537
Ni 6.219948880382611 2.176764450095504 0.4746574221391028 0.08954586668063287 0.3166588651161837 0.8779473973954428
Ni 7.5106012267063615 1.4762552918043688 11.52159711621802 0.3852458701569623 -0.5329251506452177 0.3402106842941947
Ni 4.283077640824015 9.258243420694123 7.013794223127867 0.746173218173218 -0.9994988704483946 -0.679390870441346
Ni 2.8909036952739697 4.270837252194609 12.768915725803758 0.5541524354551101 0.20338994378699812 0.3394450097727638
Ni 7.95360205879391 4.863511347650597 5.787138862076522 0.7618042398422559 1.6960251150184469 -1.6414735050248115
Ni 7.801940882685658 4.902818640760516 9.659254197802978 -0.8136772745624633 0.945067845193024 0.2297180401585657
Ni 7.186157301629341 7.607107027584518 3.713210242407524 0.9050743355192218 -0.8466385599798322 -1.0058201846807322
Ni 5.247298149330932 4.834465733729993 0.5225762427982955 0.6873846872801 -0.41994290731851547 -0.5024308387111024
Ni 3.2802308833865608 9.336655534320089 4.358892583268615 1.2312010309165247 -1.0383464394432116 0.15905024132935836
P 8.544610357000332 5.670539496916725 11.861619466733382 -0.06048571608988293 -0.30656985631129785 -0.8602877753321507
Ni 3.2001989890096354 4.516869063645663 7.71587530501141 -1.2847542815526325 -0.20710261675189492 -0.006788740787059276
P 8.666158336420303 5.858424860728242 3.854981552635205 0.30847812907760425 -0.07663121550149384 0.10607574601485603
Ni 8.468232172612785 7.560197808904758 1.4068964641143014 1.3743729104527298 -0.7240496468013013 1.3544201214798866
P 3.2159734447320423 7.658535066427463 11.7909961056616 -1.8169530955547868 -1.1808886558152178 2.4578044151600382
P 6.273456864962585 0.7971640526247772 6.244511567008943 -0.0960157906756927 0.6176638257451944 0.8652584890738647
P 1.9932874668505185 3.4238759854375105 5.435155903243284 -0.007728736102825399 1.2042592122203584 -0.9506530525902853
Ni 6.425937134746038 5.080782847472409 3.8687478483584115 1.2695235806458072 -0.0677303134674382 3.4372617935765253
