# total energy = -340872.1985301071 ev
CRYSTAL
PRIMVEC
9.21461902732354 0.00000000000000 0.00000000000000
0.00000000000000 9.21461902732354 0.00000000000000
0.00000000000000 0.00000000000000 13.48652637445468
PRIMCOORD
 96 1
Ni 4.1872333680719125 5.2939275178130565 11.58667917159122 -1.3017101926806807 -1.6943970924967207 0.5028915803976048
Ni 6.433527071367007 8.509893988968471 9.982146810762295 -0.36096617167399125 0.31503084259445746 1.4395773721745209
Ni 7.6181123940092 4.968052523178533 8.474771547867128 -0.6138778763402009 1.7150196538430786 -1.4393495724344307
Ni 3.321354066620847 3.8559770360454313 8.30908901560284 0.2778961425256891 0.9834320467935191 -0.3757862674059593
Ni 7.23823973307867 4.110143867008363 4.882661572018384 -0.02338212636936618 -0.4942238774202779 -2.6636842152484257
Ni 9.070612758896518 0.4734683086896504 2.4688166117619303 -1.090894388743257 0.41250779119670894 -1.341234218917232
Ni 2.9886694686769806 8.083026772046534 9.393527096503583 -0.36703423224494214 -0.28314196430566074 -3.050807762044075
Ni 5.599253912474867 2.736815507038332 1.0167935641295847 0.11638766946382537 0.8684281450510978 -1.9114524495859533
Ni 4.2122787020296855 7.5704543854626225 11.13454362693602 0.6498949178647582 1.5416098013579385 -1.497186280937241
Ni 3.097429614631209 1.1526843122809691 8.404142416059575 1.1960383669724628 0.09243218708949243 -0.1017218399215345
Ni 6.3301851212800235 4.304517036436347 10.65427492955585 -0.08179990418662686 0.6809150203953565 0.5013931414752074
Ni 8.663934771813242 3.3782082647516263 6.472737117377719 0.09129267416841051 1.4913030826835865 0.5776109235883665
Ni 7.753641007640887 4.363426094564397 0.8122852354594544 -1.9138787996392588 -0.6310582447742293 -3.052543513788259
Ni 0.6300514048673684 7.150829858934655 11.176635084252323 -0.4999751780817583 0.5608738133393437 -0.9537021238292543
Ni 4.111498415975174 8.453988896576341 2.901301981779546 0.588627072193212 -0.1804564749192763 1.1442715188128165
Ni 7.989839331901222 9.279397592161867 11.640584691699008 0.522724555963132 -1.8415279566806735 1.2201882247457891
Ni 6.792464118334308 1.8627444094546473 10.699535294284985 0.4506938153481271 -0.6446732644545026 -1.1574175692764712
Ni 3.4405267318437596 1.257979761558184 4.463972329300834 1.1619905333591343 0.9297890646570826 -1.361734395753113
Ni 1.936912876351672 9.025415053575372 11.098210384921488 -0.6444611484436965 2.539460594679949 0.8872650752519429
Ni 2.3230422634622356 3.741301104807579 3.9668325863197476 -1.4724545825185158 -0.22993735525822337 0.2921349118328904
Ni 0.4313593435975863 2.110912523564558 4.518107293417287 -0.18180656118926755 0.0015904844155714543 -0.27380063230007684
Ni 1.4801810798281374 2.6860706011864357 7.58884123585973 -0.7105199877459828 0.04131325692649014 -1.5491706444243318
Ni 3.6274084161695836 3.67640254444533 2.0994338728981865 -0.1275647691265674 -0.17261563871861882 -0.758285942276352
Ni 8.109933459006319 1.3488174739039251 0.06769980448409008 0.9468719882812984 2.143025797785703 0.22276629143108087
P 1.1733895607736533 0.0912348624169626 8.090553272700216 0.293421748965114 0.2687450721540404 0.43183940164578527
P 7.816715073476411 6.048623228559749 4.009058577070849 -0.062443868257518256 1.7350557465583472 -0.20033881566550013
P 0.6911323486517278 1.699286286173951 11.808977243358802 0.049290618705011884 -1.1021038843058308 0.2727253969580271
P 5.048855515627285 6.645629167408218 1.8005595543354311 1.823993033120704 -0.8963824641721788 1.030975086679805
P 7.7710658518329945 3.012378682905586 8.672119196250804 0.5159111325857244 -3.251930507063451 0.5088706807991753
P 2.9999850205902057 2.828722115167407 5.963890201183479 -0.07886473281770288 -0.9126272081658153 0.20449320415350591
P 3.1985416269633062 4.113212335076037 13.459404856153688 1.5059522000553291 -0.14636210433872857 0.31307011932366086
P 2.3929904349388558 5.729382759476953 10.283638081070452 0.22100868531002582 0.6348817322853776 -0.49038522040047805
Ni 0.5431262196733825 6.760277454789606 0.4279176834676275 0.4331468076032992 0.8614051767660454 0.34600055150309444
Ni 5.766526887947807 0.7485606175351079 12.774599264785039 0.8732067973866638 0.48672911170512945 -1.566705825094618
Ni 5.313674445948268 7.6997815606272075 13.126314814981662 -0.052276440806213194 -0.6846459481926984 2.182029946963042
Ni 6.748501171935289 8.366763314808763 3.4471557286241943 0.5120606484913827 -0.6392428374675506 0.9229846401407396
Ni 6.82735066519381 0.9381403422519683 8.163690623751076 0.22510676663879944 0.18136047479078443 -0.4305268534819488
Ni 5.905980929197598 4.563116099052585 2.6243160687661993 0.006866130992213982 1.5057912489974326 0.06579375856635766
Ni 1.7549978715708217 1.8083320853116567 2.542830273062748 0.9730617593027885 0.6427441657525899 -1.2347152147173703
Ni 2.3640381026006207 1.9541810720238084 13.309582525805558 0.6804357667660926 -0.6576833035609254 0.678398938841722
Ni 5.533903835790348 5.180311267739716 0.11218061246089689 -0.8591037823263784 -0.22296092394039022 0.30165107885344183
Ni 8.01991584773572 5.837820393772416 10.566936007976762 -0.6383545213253264 0.7570528412001994 -0.9201607975386991
Ni 8.667086171450313 3.4987815520354593 11.661488975958244 -0.011158844830296909 -0.284576125649026 -0.36491821434320376
Ni 4.8345142672123655 2.7987008870458383 11.886956876600543 -2.458505554992121 0.45291704825169093 1.3179652210869623
Ni 3.643193058211403 5.800058885840499 3.779761080846193 -0.38411355632473204 1.0997191861237383 -1.4174507154788103
Ni 8.714753394615713 4.7510482499241 2.683818548346377 1.5508416043688518 -0.7011372609795021 0.9223984286199662
Ni 4.765229548290918 6.088430381870116 9.316613594659533 -0.025924176064929548 -0.548953407752674 -1.3711415479996256
Ni 4.292584105062058 7.209434834641584 6.998252357558791 0.7217621363187053 -0.39815640757104337 0.10739369349533116
Ni 2.023917307267526 7.181790978176051 5.735158482554485 0.41070287677748624 0.3024149536026598 0.2084573310075765
Ni 7.087322706014504 8.39747563934197 5.93605375918457 0.2026003580061672 0.8083144675886531 -0.8159354744690206
Ni 7.268260961200238 2.471158046404561 2.588819514140691 0.25095432382952265 -0.061471991262552206 1.8252312764031793
Ni 9.118021972734907 7.653100301675744 7.288455719810192 1.0971164583935686 -0.06623598831009883 -0.05232452043532925
Ni 0.22619861991486953 7.353339536782327 2.8652663719529596 0.4582011794687657 -0.5503916828610973 1.0373406238865166
Ni 7.212475658852793 1.42108772932365 5.045295908376406 -0.3347650877985912 0.47136805586802694 -1.372643843576765
Ni 8.938346120327765 0.774596523016229 9.722611542873755 0.25262708354625524 0.7582941698064682 -1.2625265805026835
Ni 1.6572215512522321 8.847305686367944 4.097854329885669 -0.014569413173742649 0.22796686179541384 -1.223347853420693
P 5.606542675962946 5.233820559238167 6.7614025597477525 -0.3722175762180945 -0.4716416212443877 0.7782024786946211
P 2.1022599964908464 8.951670459144152 1.8694885889703552 -0.24753758483848978 0.4097479690633846 -0.010738212353110538
P 4.030658565051134 8.160318994724163 5.093874457343287 -0.7196952264873475 0.5382131385170343 -0.6806406836880472
P -0.1266318991591953 2.7864730878692514 1.6157401017019355 1.4963298464742165 -1.6654786096901575 0.6991546833318346
P 7.882903680473718 8.367076611848706 0.4456447671570915 1.3805006206170225 1.4941117557769754 -0.810789668602023
P 5.135122777037392 1.8249644722850857 2.952254216554934 -0.4196050643631225 -0.13114811560245154 0.6400344801309107
P 9.133760541682618 5.503495593678262 12.307453106069056 1.239698783974891 -1.510269082263128 0.7554140200451958
P 1.5915121044336604 5.59911569319254 2.3687191289621174 0.8831392260090274 -0.0057250754092353015 0.6177954662270522
Ni 7.578157806797684 6.086909969764512 6.28044553034159 1.7976579947706008 -0.6368571108441935 0.2401094106952187
Ni 8.954047830800187 1.2516124599522895 6.643584443491652 -0.06073382754494701 -3.084760721950752 1.1410609822953188
Ni 0.7362867452644113 4.427817850891445 9.526436915466101 -0.33357389570396745 0.8694645567354122 -0.7332261710942469
Ni 6.328203978233326 2.914252207071766 6.489014741526507 -1.5605583174359834 0.6241772013836799 2.3120652891172893
Ni 1.575248302213105 2.3380713067606638 9.888050809201149 0.8164378680267358 -1.2952556953045886 0.5799619403190464
Ni 5.577120398064797 2.97662596187683 8.932841307043596 -0.38094544300939553 0.009721083942505837 -1.2156378863709452
Ni 4.296500318061343 0.8103427938118097 1.0507770783445465 -2.6067018843261103 -0.4588362419496033 0.3848080112885954
Ni 6.760922478107134 7.512909090920204 7.997765747011773 -0.5378315868078996 -1.0950343790535593 0.04967525573794025
Ni 0.892927893540707 4.386665363233089 0.5785601148909025 1.9970406171704187 -0.3555743112344586 -0.33328104705389694
Ni 7.447411580334535 6.673982549523034 12.773816943647063 -0.5349745769750787 -0.2784175622467979 -0.45955897904824083
Ni 6.5306583683680675 0.3574074202428749 1.500254205469643 -0.5056660578189485 -0.17549013205293648 1.2983088803086156
Ni 2.3532477839602413 6.268097019658436 8.047801127214386 -1.423104571330478 -1.3830264723626697 0.19900981244143143
Ni 4.640030522358519 3.687100716897491 4.542504839671884 0.8156130581325954 -0.9416122825442558 0.49247989814597765
Ni 0.5986608843888737 5.447046838775643 4.691018694147313 0.40126281441050893 0.06097294013894661 0.8955815655374383
Ni 7.544072931775681 6.745552493912298 1.7101457144554946 -2.390781669282586 -1.0440907981261567 0.4529193622445361
Ni 3.138665033858962 7.145872394008502 1.1716516836638533 -1.891965287395619 -0.5658452984120061 -0.590148651044061
Ni 2.065337018871716 0.5213972270295913 6.150057752550611 -0.09651587024056281 0.5781107460429205 1.4013769498453996
Ni 2.8922016242310926 4.954571535842175 5.948960675768327 0.21393198096890254 0.3610561602846363 0.8571898531331174
Ni 4.356699422824451 0.5763264912884875 10.448443381622901 0.7028676134070476 1.8723390285242592 -0.20045528663870638
Ni 5.104005009276024 0.8493925054550214 6.183127176578445 -0.5802465614390008 -0.9211002786338329 0.8377047478253121
Ni 1.9511218185749561 3.6767342707229163 11.791053888288433 0.1044819191651749 1.5194255519514155 -1.102472066278527
Ni 5.9021937208618205 6.155752386982511 4.769658094096696 -3.022451579498885 1.0597840404916974 -0.558320965010503
Ni 2.5726386434895323 7.076550816611768 12.33060944316835 -1.5405651621435081 -0.8253968769922365 2.0478942094871764
Ni 0.8716329094434248 9.174212718310514 13.432620723624234 0.15354756634357428 -0.6954610365303313 -0.028195231487293373
P 8.552161445504272 7.839650259723982 9.395819693666457 -0.6069065872286902 -0.661105698978913 0.7477608743753121
P 3.783513273630448 2.7749640289607678 10.093073313601536 -1.4252072194957779 -0.4444462917765184 -0.7755696690574644
P 3.694804138232553 0.007635233155780187 12.435656097737377 -0.3212246301099952 0.7612622512958567 1.4620035623885208
P 4.922366443059829 8.967012799482523 8.239889992636435 -0.005728674953661102 -0.043106344271170924 0.09961610643244136
P 8.713242197128931 9.12328352008218 4.496488876199358 -0.12035642430358627 -0.1332196534194996 0.9621808507242268
P 6.787303931794075 2.9141416316459035 12.564816488301284 0.3773350999503179 0.7625364900225899 1.1580883700912508
P 5.926437382982093 6.585291843362782 11.140746908326886 2.889730462982359 -1.6417524697178114 0.4195711258013935
P 0.3440922960453099 5.252120792218348 6.980491179779687 1.6852401085878008 1.3291304936751627 0.7143463034706085
