# total energy = -340868.12453137623 ev
CRYSTAL
PRIMVEC
9.24318418613155 0.00000000000000 0.00000000000000
0.00000000000000 9.24318418613155 0.00000000000000
0.00000000000000 0.00000000000000 13.52833437177795
PRIMCOORD
 96 1
Ni 7.061968453762921 8.194249291827818 3.265996921042395 0.7643097798729288 -1.032032581410042 -2.384265208320307
Ni 7.240814827494279 4.551362453773754 12.31735930186757 -0.5857610634993267 -0.499540661647501 -0.28231175509488154
Ni 8.58689976245204 6.0492574482779435 4.1496675272760415 -1.2118632498198614 1.5018397205488523 2.5825368570441327
Ni 1.59426443439892 2.1439658500884966 12.996806371773369 -1.5131127223595102 1.1336387216893185 -0.441326258090298
Ni 1.3196494277547184 6.322781759170411 0.9716795858958062 0.3338675156849863 0.04382213939127291 0.8307440002367629
Ni 2.2330516607258852 4.07047654547112 5.49832114316098 -0.23910153825599464 -0.2614457102791497 1.3372418099283874
Ni 4.888821870723373 0.7350670073336296 7.028781724720331 -0.2635923243085073 -1.6712566498245154 -1.036763154116492
Ni 5.380753384308396 7.6489014159608395 0.44420525558076035 1.1845234243543277 0.31310380077507366 0.6957256030456276
Ni 8.846975240134569 2.8299118029014503 11.454454433564818 0.22938636785075975 0.16924235137101176 -1.491860240738637
Ni 1.9039573256010063 1.6689955797613696 10.542008870172502 0.13387322784309846 0.015602225313631196 -1.3768206006622739
Ni 2.0529851866620787 6.424974405197281 3.807698360688533 -1.7041266610796588 -0.6970996005750187 0.34773527480601407
Ni 5.7849301058005205 7.688046301626884 9.14124495395239 0.3281650659835703 -0.04427233955481408 -0.4264817368782978
Ni 8.590513847527701 2.615728735450779 0.17338365178835194 1.4390268989876895 -0.5984602562335499 -0.9793239381624167
Ni 5.153278617781509 5.273107259522857 7.401676737461664 -0.8534208730089883 1.837539661456887 -0.3592499603138329
Ni 0.8328709894374206 1.06598872000188 8.002483719349014 -0.24728587383899991 0.00809151875888284 0.25908363780487637
Ni 3.486048486228455 4.742040103456125 10.000266760515283 2.10796417819588 -1.076823255362171 -0.06587346276435753
Ni 1.6554450715237257 3.9460725274830923 1.1722557616843794 -0.7905252619260321 -0.030645749910314962 0.28003170081145323
Ni 9.057322386085497 5.048044964107856 2.2993835244815495 -0.9061585697223361 -1.4510257232207786 -3.2395375327157367
Ni 3.5326526216542398 4.903000915495914 2.6416235163701236 0.06577884616802218 -0.888564767899973 -1.3492249504321927
Ni 3.705888382493204 8.923176051806557 9.061427284249438 -0.8798986075845427 1.1826694018647246 -0.06327047792387168
Ni 6.196464402024681 2.0916494267426136 11.4408854389585 1.1619247131182053 -1.877135421471638 -3.128369202669322
Ni 7.204433653944916 6.1348308488673755 8.103620793724629 1.7204665358902629 0.6852704691505747 -0.9091536477949181
Ni 5.955069399886681 4.827410153990149 1.2167570726735586 0.7901241698328716 1.290635422923758 0.7533327120361348
Ni 7.583931073257975 8.512371967144999 10.754403381454017 0.3376773763493797 1.1031919751636872 -0.6842582258359764
P 5.506617825421627 5.815118345844276 3.5346020092308557 1.9107495099816574 0.3001971200157346 -1.9804919687831182
P 8.54881784298472 6.199634814252178 11.198674263643568 -0.7578095168605659 0.04858459377692278 -0.5501407431925558
P 5.351480219513976 7.594634680719907 6.876019617187221 0.15656449879302714 -0.3292783536524071 1.4855589811109575
P 3.3143101212520407 4.479191670472578 7.6763832516308 -2.8157009467697702 1.4167153799746826 -1.0485488338975104
P 8.738386310546684 6.795043776486877 6.202403147961029 0.6843829243392988 -0.6586029871617173 1.9852325687918972
P 4.2612188974438485 3.2903240578982302 4.252415688681548 -1.8311227021869496 0.5127245073276268 1.505976111314729
P 3.00496847105475 2.2704773141052987 1.0477814954953923 0.14123481041449226 -1.7155372169094454 1.3199154028347977
P 7.104949260928708 1.3074576676145735 4.727030096411712 1.9262136670555277 0.46556327626079175 1.398384699986295
Ni 6.3778156787112925 6.629720181440152 11.397067199291806 -0.02967772957009082 0.2996371337472065 -1.3297365026902777
Ni 1.0636317079960143 8.575336538846793 0.3641666737721615 0.9353282493077568 2.10455849494844 3.018783386618678
Ni 3.355719587080584 1.9144853125605399 5.8037640182050385 -1.5747382084807913 0.20799067578380306 0.9924077679295683
Ni 0.21668704608749098 4.94228444892701 12.87368530777128 0.5120729897865568 -1.3616809168073583 0.0625780798425374
Ni 6.070775581413847 0.8796562912762053 8.899398884418757 -0.09521360648937151 -0.5179590162536887 1.3988513552100683
Ni 1.279192009912858 7.8230522520491395 7.718658803831695 -1.6095697143376797 -1.3571933133496497 1.4805098487228245
Ni 5.006959009731098 1.118776545748936 4.4820321010192545 -0.28479981162405793 -0.5326726683147794 0.06488693048137212
Ni 0.8127051341699801 7.135544201083278 12.43226872090491 0.5953615627035682 -1.1591656623158295 -3.7043803858707367
Ni 4.603651147566627 2.934803458754645 8.21694777960352 0.24521253624973902 -1.0611418400711723 -0.2835199164703697
Ni 4.7371781884950055 2.583229699322842 2.415132224656665 0.009855038417208833 -0.3084778719672881 -1.6907484400005397
Ni 4.947127877519455 5.722048722757758 12.824726008976498 -0.37020928753881405 0.42934646002060245 -0.9205832297880985
Ni 7.8642953405596225 2.1694770388578672 9.218126063991562 1.265524486788743 0.5896773678345973 -0.17192349774760068
Ni 5.790503745955567 3.0472283098422728 5.735932909949956 0.2929859469792761 -0.565902891122819 0.4743765036770476
Ni 8.253719939850328 9.224494617999568 1.0477842684506933 -1.3302280976147154 1.4827364240604979 1.384234376627842
Ni 7.479594008464984 8.412027957985476 5.521305245332689 0.7496292950426187 0.6922744112722337 1.3695482353705768
Ni 3.0966516164907594 8.414828642839504 4.826788087684287 0.02681069243494092 0.7995074108199844 0.4518896354284411
Ni 8.675985573089429 2.2013660248195803 3.2514130247959048 0.6172107973681757 0.8343384024562406 0.5629952305577207
Ni 7.49622249708676 1.2852832683907622 6.904266788520262 0.1862586834233502 0.7621533956515584 -0.6336046653451668
Ni 8.284869471065102 3.700508849209228 5.442503401588344 -0.04705812983006734 0.746454753969379 0.260720402077351
Ni 2.6553912394396813 8.132005688504288 2.4242912960159293 0.8223035827788935 0.9098059366669363 -1.06526357554903
Ni 4.784004160344872 8.951404736770927 11.532499260511985 0.6972204424235993 0.8370997672514614 0.1519516826113641
Ni 2.6962461142080207 5.277932201746629 12.145305744305274 -0.9650669140227702 0.11961234704871013 0.7573022382068442
Ni 5.534532242118547 7.579817856228131 4.757454961974486 -2.45251051375095 -0.07183559388506337 0.17828440696862197
Ni 1.5258186543854462 5.892354394161978 10.116705002241918 -1.5292618213155469 -0.030367299437947703 -0.27381528758809615
P 7.471330601667949 3.168184620072701 1.6392149641468643 -1.5973333201724877 0.2582223182458456 1.0712928124622454
P 4.823028884614539 9.003665701010789 2.8941029451647284 -0.45411132567010826 -0.9498711801189382 -1.417209803112598
P 6.7924187121352455 3.997825116584435 7.404327682729439 1.320059641722146 -0.6445963884699802 0.38651316690516013
P 2.510365677196412 9.235937680208437 7.015875466430957 2.038044056165974 1.422194400811383 -1.2702725429966897
P 0.022240950151035953 0.6161552894784856 10.10006542179894 -1.6861687910496572 -0.2176341124108381 -0.5044033890564411
P 6.497043513470752 0.592950275201129 12.866203874369132 0.941308892371224 -2.014034323514938 1.2740806038888706
P 3.40853514238065 6.121742499846568 0.9250523425091796 1.0344795002886378 0.19853055881216777 -0.8102775048522949
P 4.19360500402068 7.169753226313511 10.597218410215781 -0.39278125930205904 -1.6037849893351024 0.341101057318948
Ni 1.3850264705683986 8.132745143251226 10.01798871784409 0.25292044641695793 1.8438632896820697 0.7326769834589962
Ni 3.435719347514969 6.701752316976277 8.606834538111062 -0.36335241251798067 -0.7990944916522819 -0.7884346979455905
Ni 0.4001845901770912 1.9388688328408297 5.510496265569319 1.306835172612072 -1.3657142063364673 0.6536425578326486
Ni 9.185118652725105 0.5867961630697353 12.378304237791788 -1.090027155646955 0.0034792167978520724 -1.4515831383861453
Ni 6.590233297953649 5.367286064729783 5.484914828598988 -0.03283607269341442 1.3225746948345158 -0.18956692186097676
Ni 6.8530540013841845 4.152472833722238 3.2875474053234774 0.23763909477785522 -0.13636668368891353 2.656713440357547
Ni 2.0866581072007806 2.4699822048292455 3.7611071657208197 -0.008474613129914437 -0.01912643641680577 -1.191578017208264
Ni 1.8770319296281164 3.348167905477477 8.74890967591405 0.0545652368403899 -0.5253964463683403 -1.2590093113780445
Ni 5.937294756407152 2.66268411188136 0.1456864499233452 0.6268560337674237 -0.5384154843358276 0.4919214545393463
Ni 4.533735701243613 0.6318261842029751 0.46079030123615217 -0.4395617099907075 -0.01639232531509435 1.1592361105424487
Ni 6.690826873090264 1.1570155993499818 2.700986019135895 -1.0944373688995088 0.2932965362411594 -1.9845180592233758
Ni 3.92378721004724 5.494684874442911 4.722822598901633 0.5809538719186704 0.24439235434128875 3.443302086233334
Ni 6.160878142328276 4.017818124304778 9.52274352267435 -0.24155334223059688 0.16501468644290934 1.375764391483618
Ni 2.420947111922901 6.353496860721359 6.364486082579297 0.34044362624060726 -0.32528260222945266 -0.27426034554531475
Ni 0.6043424998961467 5.443283526346364 7.91782354537205 -0.1276714699077608 -0.026848230541095697 -1.3999049932855632
Ni 0.19029036025866192 7.735593241855016 2.6689777960962378 0.4019261590261207 0.8996739904392571 0.20603715160185804
Ni 3.914109596046685 3.968755301845424 0.26788227117332875 -0.3223733990024577 0.004765796819759535 0.2580582818641556
Ni 3.6585725218734915 2.1099324453606627 12.201380446402469 2.4529038925346276 -0.1434295040729659 -1.3462072466517911
Ni 0.9882258101769836 1.4186624183697534 1.655813874578761 0.7761147429276569 -0.5180006681249014 0.6229718682216692
Ni 0.6794119458053204 8.608963243463812 5.586200718242425 0.32603824944855464 -0.19899515715341212 -0.6604428685839335
Ni 7.892145054966185 7.7714752834501954 12.95041760254263 -1.2671877334237789 -1.1911013346821615 0.32668822432772765
Ni 3.096642373306423 7.844468710157339 13.097281634150475 1.0063593450136539 -0.5346699012504662 -0.48052941065232085
Ni 8.08871985625539 8.698770022479465 8.35251571563345 -0.013580052677279837 -0.43981907741715226 -0.26766212350250673
Ni 8.363565942508009 4.645800068142108 9.612084445199432 1.326130016285942 -0.09873936025444285 1.056482229811974
P 2.2213405461712505 0.2702060077155823 12.041963246146913 0.3294287631873423 -1.6189066754678894 1.1971958776156737
P 0.045018929312035834 3.0641895531001695 7.55629210345429 -0.5624141612432701 0.6104557380325293 -0.7354445189018044
P 7.9197359602113195 6.702695121778623 1.3948528998367744 -0.8250965721429984 1.1897792734366284 -0.20285078345407645
P 1.288657030673668 0.3722637032511356 3.749932155857715 0.06865256817139144 0.03851615379732721 -0.760039177522033
P 1.4369361938034655 3.8267337745115917 10.727130441750067 -0.3322832019170019 0.5292896107751595 2.281865625605457
P 4.2783280316511325 1.5612662663167998 9.887440755227441 -0.528712912336083 0.3649079299305586 0.9921979659116072
P 5.220300947407127 3.8149579576665995 11.725846341830803 -1.917111961864576 2.7961006560403394 0.08263911225847058
P 0.8245197723891865 4.4886659344177255 3.991021208594169 0.3912162288077843 -1.3043453163106826 0.8638423254526284
