# total energy = -340860.32456302433 ev
CRYSTAL
PRIMVEC
9.36125193149282 0.00000000000000 0.00000000000000

0.00000000000000 9.36125193149282 0.00000000000000

0.00000000000000 0.00000000000000 13.70113845158889

PRIMCOORD
 96 1
Ni 6.4978975654088575 8.991276319504598 8.236069507462242 -0.4609232063856191 -0.7410981176431559 -2.4413755801800536
Ni 8.7292268003986 5.915112840229562 9.842061511501665 1.9962296912333493 -0.9075855319768498 -0.507118731105075
Ni 7.041702038469502 2.1921804803403186 8.420130438575812 -1.5161882759610406 0.48138198846060326 -0.7252871187528284
Ni 9.27615793153024 2.296736300684509 13.136487255011186 0.054273159521267815 0.9768168554698468 -1.0323521695329898
Ni 2.620410939794609 7.260305988391385 3.4648669895108366 0.2977815685957065 0.055277946636698355 1.283379512692293
Ni 1.3021969190597673 0.4076834480769546 13.031303294677286 0.9108932561938441 -0.1799016308570708 -1.1945422420429106
Ni 5.8707311458744895 4.970057035141609 7.099984255488114 0.06487356074493343 -0.7970018707893112 -2.0623646351892093
Ni 1.4878118179571258 8.33774861515608 1.8115510497040221 -0.81441466694912 0.09916796315142921 -1.1724816626984453
Ni 1.0181578196879872 3.518183062497523 2.4851127688361903 3.8844648221625744 -2.6445616354863617 1.0862594610744065
Ni 2.2871691014373283 8.14714416909752 7.205990133722117 0.5470736742314578 -1.0334968246603942 0.8287655363541533
Ni 3.1272103848473223 3.6293104815418316 11.9638201036064 1.657901311563532 -0.006032579347325095 0.4861601265755369
Ni 6.359987605223468 5.265947479177704 9.281178370822083 0.38150671482950427 -0.6416933558905723 0.6809335323381176
Ni 8.619531652865854 2.3691643051614535 10.027342213712993 0.08618517773851608 -0.16554356236318588 -0.7011076932931475
Ni 8.668987145647515 5.526199637955467 4.067635178714552 -1.0057548786604358 0.4555971661870153 -2.1587131266139727
Ni 4.311951678707112 8.283425271485445 8.764809854271846 0.014250339271427069 -1.2898751477189656 0.3878241724070998
Ni 6.06132623068134 6.247914699756493 4.564945122909273 0.4956919773253721 0.004449036910289112 0.07557012122683114
Ni 4.539008838922738 7.125363544997931 6.342654311558029 -1.0214884873456085 0.41983286410321247 -0.3876315967803195
Ni 6.950017939225971 5.689469229022081 2.027357857615087 0.5636866001977905 0.5207918577167934 0.07650188901248114
Ni 1.1698007361313154 8.656087340791727 9.355095750446019 -1.1152874728756403 0.1209529202370046 -0.05140920770991146
Ni 1.2451213673865174 1.320020742314789 1.347550311342293 -0.983315318709997 0.8092678326408578 2.2187157324198497
Ni 0.47301187925736143 6.9212508127224615 5.522010477815434 2.00464208366676 0.20825627074036393 0.40641042004971945
Ni 4.690239860290845 0.6207314951092087 7.1039712125912216 -0.538010535587925 0.42391731858523124 -0.6751146116634954
Ni 6.915006857832178 0.17300716509490938 1.3769643003389338 0.07345410332509285 1.8018985152145097 0.3762292684806488
Ni 3.4842204412952027 0.8393822512896406 0.5493042084400169 0.3087187843335006 -0.35820172155497665 0.15841517884852074
P 4.0258624652109365 5.092258814958339 -0.23313729320099186 -0.4030265911791511 0.3586979444651049 0.8024508097190245
P 2.9917905176166797 8.256146584003757 12.795041215655639 -0.054494274393138406 0.7370038929691242 1.9118846520273656
P 5.953465888483672 6.919930876231413 7.9566071240512715 0.14768570824615854 0.10657428291782935 -0.05271764210868986
P 5.007998188320497 2.472971225368878 6.07503016705898 0.5095221983402451 1.2925570654265028 -0.5564862257946093
P 6.004568961566215 8.833043081857733 10.659814590716346 1.0475368476932283 -2.5518484268213406 1.5184822142015395
P 4.886348722354632 1.7278998405524735 2.1428991068404573 0.5398887264472444 -0.6477303061132715 -0.4540804724321728
P 8.272313465706185 4.127535020028579 8.614316499538454 -0.5983435281500276 0.27990237432244053 -0.42768347049588284
P 2.0917716945034686 6.6085943668745255 9.798876185115077 -0.6974922080277471 1.0843997821578486 -0.2922968913320514
Ni 6.062992533485644 3.4365810313451997 4.078074846621064 0.2046986352960926 -0.09260753632509212 0.7673369967350269
Ni 3.170478090248956 1.035653999133174 3.3579848981168188 -2.28058367356924 -1.6889252707488718 -0.9067926037619093
Ni 3.107046248664908 0.9553719044718997 8.731913479639246 -1.9846432719473301 1.1547870736321595 0.6601495057132308
Ni 5.054439358051675 -0.04586545275103936 12.611541023519473 0.4381398899425164 -1.0212666011427896 -0.1404976751381516
Ni 1.1648767177320816 2.533004932582352 11.082165247971854 1.823869620168962 -0.1659323131611723 0.12293292678151088
Ni 8.986380384860492 2.1597531044183675 7.0642242739575565 1.613365691045002 0.7277620626558822 1.0861594451614327
Ni 4.018195600060798 4.750460792538511 5.322809594311976 1.7559850405118465 -0.6609326637361586 -0.13471295013557444
Ni 7.754252434846859 8.289182441286831 3.965164109126083 0.028771672816053674 -1.4498144765214966 -1.357515729686075
Ni 5.378479085978449 1.073164534733422 9.764554091847108 -1.6397632072019241 1.8591366709013724 -2.1411722895167316
Ni 8.665514121263264 6.829463739710126 1.0683200869737193 0.970935199878089 0.794709989431341 -0.5839666906030653
Ni 8.494324911250352 4.954507996052013 6.27198341402697 -0.008390538056540388 -0.2316458533088978 2.6640433983600573
Ni 5.375146480369842 2.4227574711987434 13.247411534893397 -2.669837379334015 0.6653248792665832 0.39613654892753714
Ni 8.67801139229554 -0.050819427155743925 5.782661425916023 1.7182463883104926 -0.12124268356328154 1.1979854633965044
Ni 5.310544482322097 1.06797840128632 4.1266457011161695 0.946585567389131 1.3142317221864592 0.9460376653054611
Ni 6.16457147578619 8.842947286166458 5.581474084799795 -0.3772062876819374 -1.9916960650290534 0.22438788619490388
Ni 5.931972454558498 6.251125609092876 12.908897439573286 -2.044683415859362 1.551008211853703 -0.4573043786861092
Ni 0.5262006392207975 6.479315480765361 7.945441023012096 0.7881451917296297 0.06005994140637399 -0.21027432961165723
Ni 8.662228321913204 3.2546170206145733 4.9202701540494305 0.09999457281778262 -1.7871072158379482 -1.5023801664333545
Ni 2.9393394242879576 8.52094831111237 10.683695143827459 1.2599086832638626 -0.2223870537147912 0.021355068637008385
Ni 8.19727367200227 2.897485267894469 2.3530882276006087 -0.6381146374003784 2.1624952193642244 -1.572986515897007
Ni 1.43130730263816 4.426636373401057 4.559204803360965 0.25560982032366303 0.9454488826815266 1.7320329005716235
Ni 5.852542233802795 3.687265990875781 1.403297501397955 0.3747727385397804 -0.235115299914737 1.0117931144347154
Ni 5.216576237661431 8.297233117757061 3.2039286509827636 1.3537097256764234 -1.3930553173535813 -2.398630475903043
Ni 3.7073084307859707 5.656751654297133 8.388179550365878 1.5313408153317625 1.5939181238433517 -1.5661800344981347
P 7.468537671419066 2.3667584634720944 0.4044697303650591 -1.4015116756510506 0.6876415404859125 1.901904143775886
P 8.423703628353355 5.891166758356482 12.053275288817883 1.8336781216189517 0.9580071789625115 0.7481177434940987
P 5.315243830680301 2.6350238537132484 11.091482501798389 -0.41672388616058553 1.4502006562163217 0.9005345386673395
P 9.024274731780833 8.590951751396537 7.8841969059525745 -0.08828011259433183 -0.9212848838408134 -2.250003486789538
P -0.07171467709667564 0.4684660554271941 11.261458493589739 0.15366429442709664 1.0176362034790538 0.41493234147780156
P 4.537295729859887 5.091275883528834 10.38601108396381 1.1907174689801816 -3.5858995813233077 -2.264096988768127
P 5.203301982737261 5.104615667214971 2.928892267380077 -2.5304082546696938 0.08724447224096588 1.392220737267428
P 0.847241022099825 1.6336788420956492 5.305409835759399 -0.3032834722505422 0.9312317106408801 -0.3984780525765202
Ni 7.078650898967175 6.967289448630128 10.77324581380638 -1.7363469545659451 1.2147783665841274 0.1608656972715423
Ni 1.5576467557105198 5.251606041558643 12.004074422082724 -1.841696621048054 0.8270264421758596 -1.353866820079578
Ni 3.5680972566129516 3.2093272848436727 1.3495854474639537 -1.403779388639305 0.5938983478944804 -0.917105555652143
Ni 7.793026739427899 7.168331690344858 6.58139618615754 -1.2563194232507073 0.39743007092798005 0.6756085205807784
Ni 2.9014918836261647 5.113153128774099 2.7088654071983385 0.9046634732340484 1.287742417646679 -0.9489563816141529
Ni 7.637564432287066 8.451937163509418 12.651890826763234 0.07525361842767685 -0.25835267317612276 0.23904857353087217
Ni 1.898227815408104 9.104744051476299 5.255961831979106 0.0931703508070976 0.16367179926176975 -0.8632584279247003
Ni 0.398917571976113 0.4924954524404899 3.506600385757272 0.7532177837248254 -0.3630423374767296 -0.5051328110232979
Ni 0.7922361793047321 7.911212542261223 11.829137903010473 -0.6005793594590818 -2.336892118352982 -0.4275137776872379
Ni 7.084941660116006 1.5097077857058105 6.042708573281347 -2.106171347961515 1.9490633179601915 -0.41469785686949223
Ni 3.3054673399009586 3.2226951522849387 3.7715256813884515 0.9655654509257435 -0.7665818637365572 -0.3628929563830589
Ni 4.156882544138081 3.240621949308766 8.018755538025937 0.013917381412040547 -0.6358009016655373 -0.23413313850712578
Ni 3.6341221649205506 7.482532742724874 1.1986427526485013 0.5818154485880173 -0.31965034364433975 -1.0035185331307492
Ni 2.373517287206404 4.521568826987809 9.715367266989515 -1.3911714700673072 -2.5627164798840965 0.7224038836677623
Ni 7.274712954772415 4.708962363709985 13.40901575928088 2.233659755324192 -2.3475336572272276 1.45508806621561
Ni 7.704029319425015 1.333678808559052 3.577477230825941 -1.8988864399954846 -1.7638302475878782 1.9888673373310066
Ni 1.8596594583646746 4.35491046280233 7.155337336846804 -0.9863944718559527 -0.2620422062125681 0.9738413177812905
Ni 1.6387151955153978 5.73263396065491 0.4901701175158327 0.48254155598634313 0.0041294487873412755 1.6283976456774598
Ni 7.086121177831413 1.5055045836882135 12.294058852415253 1.5836290832125177 -1.5830385008163703 -3.5583291279042073
Ni 3.8020630205902406 6.412260834769708 11.563198783819146 -1.625972066955103 2.0795010377591803 2.660922079122256
Ni 8.09620023729404 0.11496646837040299 9.50756245703979 0.9585841345119039 0.5093933860718647 2.6868398274292824
Ni 2.7640780697813834 2.5860832297756153 5.970010964755166 -0.07987157681566244 -1.2980905936502225 0.16103127631512912
Ni 7.601495529450092 4.1709993117161135 11.065217637876849 -0.8342198746005052 -0.9325396308190262 0.0030207891041947976
Ni 3.3631232891802023 1.3026088141349883 11.450383531091603 0.521960681213914 0.6005438782354561 0.2935641880802493
P 9.168222699318894 4.7674140193845425 1.7258497264280777 -2.18651626486917 3.594646217167687 -1.3847809931599313
P 2.6238933254305694 5.997332713994718 6.080825717992375 -1.9171448719850401 2.0509558791316356 0.5522953276417133
P 6.363844440927812 7.648264342991105 0.755407142828941 -0.7475179051265707 -1.460398165574614 0.8862044951979124
P 0.38414926127909504 7.463838323060862 3.458920722424918 -0.2425182772470275 0.2787322652737393 -0.4980944161192777
P 8.945574688658477 9.018592451993124 0.6836578291009399 1.4030170565519837 0.3641270859004761 0.2936271801077008
P 1.9470373818218032 2.7731397614362474 13.638331789534025 0.4778395225249836 -0.24904785083542913 -1.0659343763638094
P 1.3632416414578747 2.5097422220840695 8.524231302086916 1.376516953378926 -0.1224791270735439 0.8667227323242169
P 3.8962933802987747 8.613437478002925 4.682021617415013 0.09352387749177442 0.682291846138225 1.5815783713310763
