# total energy = -340890.73940106895 ev
CRYSTAL
PRIMVEC
9.09964514345884 0.00000000000000 0.00000000000000
0.00000000000000 9.09964514345884 0.00000000000000
0.00000000000000 0.00000000000000 13.31825047368253
PRIMCOORD
 96 1
Ni 6.351088141339883 2.2519892489378672 11.261806212131212 0.5374790885644873 -1.6482568464952325 1.346251212515849
Ni 4.9006138249622735 0.40519718308488084 5.7440417224798725 -0.6016116573783381 0.045349888889709 -0.6182603216786127
Ni 2.7208029603148174 1.9244293271902728 4.5196280673793465 0.8822627369413452 -0.95005835642908 0.1903757909155173
Ni 3.870606805975866 4.564027055355869 4.969997708267361 -0.6155161832745722 0.6615003633141704 -0.3840541638417063
Ni 3.6921991657340865 2.471863971531059 2.3466355667445984 0.7586808637219257 0.7360741820660033 -0.3853566847032137
Ni 5.132327185725136 4.807688250028628 2.3743112271052706 0.35110187728540176 -0.9168139925536533 0.7134847268012616
Ni 5.106893677897135 4.526463720717591 11.388369534841953 -0.6126550596766933 -0.014092730647640246 0.04902785196192846
Ni 5.544040624608095 8.054650884629897 12.672607896155148 -0.285703811495566 -0.014625463222658685 -1.1077279153608277
Ni 1.9099608916101223 6.70651117613554 0.26470048392110307 0.5801863976250267 -0.24461706875758513 0.11751715508257825
Ni 2.6582792993895255 1.4458607963529952 0.15361929724562362 0.21129711444921676 -0.1085272928791421 0.6607907388416555
Ni 8.05224857834489 -0.2740285300300416 6.790429922429416 -0.27060603662217914 1.7286079340504747 0.8318945689014382
Ni -0.34908149218194273 2.458323699742843 1.4183807783602302 -0.05592406486112949 0.3048852695200233 -0.514344816539869
Ni 7.110653710362723 0.6565148190765957 4.458403835762763 -0.5688673730677816 0.5872736434891112 1.1797879665518713
Ni 0.9429598147350117 7.514222966953712 2.4070344605579623 -0.6377019753429921 0.2401222662110252 0.10538823302952817
Ni 7.682275211163912 4.130865753163214 3.6829621160753376 1.4040246718808918 -1.5866164479756157 1.374893044622258
Ni 7.798759767051651 4.230051883869906 12.667134459676243 0.7122256575831798 -1.86080377419115 0.3011162893958943
Ni 8.71281000956142 7.695160308510763 9.082301095556392 -0.9351410729976153 -0.5654853439694261 0.21014088935758649
Ni 6.9662787424918635 0.7349655886785774 0.3083178123904962 0.387030729971527 0.5845423606008772 -1.2980409713592096
Ni 1.9830037421773348 6.708158211883973 9.161637260618718 0.07036440865617559 0.9338056420156433 0.14946465452345226
Ni 0.352402862613864 4.922098086852044 1.0790777647156646 -0.15630764558721466 -0.39415037173544376 1.0024497255466025
Ni 6.569688913630419 1.9765247949238334 6.771997681479006 1.4325024676056102 0.25437774768877486 -0.3601634732670378
Ni 3.6812158941961988 4.484250467474624 0.3301778896195499 -0.7250176671415256 -0.6847788742261368 0.030920600838256426
Ni 6.343071354078177 5.9291921996807035 4.674266524867093 -1.5491043099627708 -0.5281475267509163 0.2381710560219253
Ni 5.325549048057786 3.0302545884746763 9.21060882021727 -0.06007074003965138 -0.7482429562180534 -0.5478792008518887
P 0.5026580210959771 5.556752828699586 12.22996294392373 -1.01355740542399 0.04147163688122535 0.4326860659167967
P 4.280736906625527 6.19569350335106 12.52734571289494 -0.9581318774658336 0.6911567527280226 0.246156388220247
P 2.4778060397284416 8.607945700362894 1.3043176380120367 -0.552782551690777 -0.08647262707194785 -1.1040525233917697
P 6.4873553254988465 7.71623508637468 5.805811932797594 -1.006973581558885 1.2901728814650426 -0.9551159734576455
P 4.913344228343802 1.1994515088845088 12.840911290567872 -0.40831252216843866 0.1409566170524411 -0.6177571567899489
P 4.010577545657548 6.611720173973008 8.207384786415176 -0.2187186037242685 -1.2186774445282174 -0.20394787317299715
P 4.867272725612795 0.9674105609009641 3.5066419344009083 0.2078991445112613 0.6205640301111248 0.8927937183796559
P 0.4951744730323824 5.89080989699072 3.672800542482662 -0.3812652882426595 -0.67712727121815 -1.0380672176398962
Ni 0.591071082064719 9.515407799878934 4.832820559606501 -0.22563409989717917 -0.8214623178245207 -0.11110353824675058
Ni 2.271771877209092 6.672587699504848 4.877116721594308 -0.9056574617162017 -0.5623395992515928 -1.0573206665528692
Ni 5.8673965103569286 5.493137210372019 9.093434511237094 0.5677111479761513 1.178621714157912 0.586401525296803
Ni 8.54737846311668 2.4875335602537123 9.955578558629695 0.14141015965009193 0.32809821730137684 0.23482090860276977
Ni 2.415309677738207 5.4171278755286245 7.066251082528194 0.6035073317391542 -0.5848763469015282 -0.06920484113043565
Ni 1.0422915397620067 0.6157811681137119 8.853479601980558 -1.0182512113552333 -1.523551401194331 0.47332775069755895
Ni 1.2481255100909394 1.1297391283942366 11.178499871947112 0.5034266269654685 0.1883569607132756 0.7173526943971001
Ni 4.208640419140286 6.901043387350922 1.542546344608476 -0.02434449028263549 -0.3819576863239938 -1.030701521303444
Ni 5.934779381722346 7.784355028986634 7.901970670750231 -1.7305380611936518 1.1763048930992774 0.672022860112049
Ni 5.499470563305217 2.944918117486845 4.786072953250584 0.05674321832831518 -0.9803217832993116 -0.8417416368988471
Ni 0.803796213566512 7.539465382236314 6.766603411911765 1.0696817592213836 -0.021595209672272485 0.3412116147548833
Ni 5.316995381739962 4.323951120820579 7.087826340868153 0.1635373305664345 0.9577775794502085 -0.6251773605134201
Ni 0.8143263227824553 7.56379783301702 11.492997253269985 0.13980296306397214 0.11201422298647805 -0.9562912247126691
Ni 4.9058825194282525 0.13980057631982712 10.299735322927376 -0.0980626459023924 1.7373738531685627 0.029787772785393865
Ni 8.310696696173464 7.574125930113542 4.691193684531368 0.6739514445933297 -0.8928122303224172 -0.6776677171026523
Ni 7.48405764371585 6.260510274821129 7.116207223717796 0.5526069453448611 -1.0712843278218132 -0.5071372430478363
Ni 2.5472181319330875 5.327905856117697 2.3229692099792807 -0.7816135612586991 -0.2675338254547586 0.9781810828072249
Ni 2.4642657679402253 5.269841021251698 11.495927338966093 0.5737393564481021 -0.07685464436620958 -0.8540425657533871
Ni 1.1664288971106935 3.6059436305993406 3.4042245197479835 -0.6344958097008685 0.26285878857659245 0.5006909732018603
Ni 1.480166458074484 1.0878170637918763 2.4891542070315897 -0.16740581238290525 0.48500158749106154 -0.30647549682527864
Ni 1.0728572473807019 3.3649850304972126 8.27388317228475 0.09138471966158454 1.0158240899709794 -1.1650177502212324
Ni 3.5951059533817564 2.8705467187468643 6.772516361245087 0.20346039201361735 0.019191742437102432 0.24548790139831267
Ni 4.16072168847043 7.1878641983486204 6.074693703604911 1.0696858729864416 -0.3269124245233918 0.034947462609462396
Ni 0.27483020875621217 0.025426228111985118 0.20330972880067236 0.8950861139582584 0.46467573144951585 -0.2804962991526976
P 0.2901694803646773 5.66047968227074 7.955550290586383 0.5527897507796287 0.8239161786816521 -0.20325084710597252
P 8.744767962868016 1.7693349774870755 7.66008481682067 -1.6222568228870449 -0.42600633990377595 0.4209039856802041
P 1.754329662850806 3.311342623110429 10.33148580432754 1.4843186809459534 -0.34957644177981084 -0.15293975755624628
P 4.122193791460142 6.3293581890346 3.6671533027838943 0.5449394014972745 -0.22601925115073979 0.333121124437265
P 6.980446889786388 4.078943178685013 10.46464181985452 0.8753477549890666 0.9184954940211343 -1.6554402516175488
P 6.507583836376 7.765955546758292 10.004150643811913 1.1167846262464571 -0.4097834502870104 0.6577056721584286
P 2.3907588354770457 8.713537981162936 5.637562226290483 1.2759150859944477 0.30831434980623035 0.636652193922239
P 7.178082079953235 4.272765617588916 1.710449354640365 -0.6495398485181846 -0.5692869771037035 -2.9963003750248136
Ni 5.677969199997186 3.1782330157730447 0.2683576312542241 0.23453808725502834 -0.5493221039460023 0.47666992769691446
Ni 1.7190958373373832 1.4243310362381298 6.780414853121546 -0.313074490199035 -0.07604371842914001 -0.5956410416172
Ni 7.049831683055978 0.7930049445385242 9.011541345924439 -0.42901684459532563 -0.26608526593369014 -0.46073680140642587
Ni 2.907327483913511 1.9403901045535332 8.95051639653377 1.8062233678421087 0.07116325040838711 1.142111277936704
Ni 6.538759220210966 1.7840673027727758 2.2946547545382767 -0.8117983123721955 1.4730783321454437 1.3122889966377915
Ni 4.1084533274815085 7.033916403917813 10.512414956204074 0.5744309831984881 -1.1393344865225152 -0.4273181167366641
Ni 8.320669907114247 6.893872867075979 0.17547209475866216 0.368907538008255 0.7811916432299321 0.3385795764486749
Ni 7.633883298953069 3.9171605898928785 7.891688981843305 0.9676570433474497 -0.30817551023552087 0.7908859876995605
Ni 2.962871717109258 8.464708188119406 12.263564293120751 1.1410946637467314 -0.07130440397194171 1.1842274903804637
Ni 0.2798495729486719 5.053087476900009 9.94445788245202 -0.36299708606109093 -0.4548104086196619 1.5311906629071435
Ni 8.938435707806596 2.689491081804567 5.639080047079645 -0.5572878957602982 1.1938207904958535 0.7382053694763931
Ni 3.7022360741900027 2.4953410556799827 11.492704244700375 -0.2196665694598346 0.2446335238178174 -0.5870630701402018
Ni 1.262721340701355 3.3100959717428307 12.470636725136766 -0.7091143656477078 0.1597917474810732 0.3416394463209213
Ni 3.2829426310062466 8.871717110527563 7.8720847066144515 0.1965497809367131 -0.9298636266487599 -0.0193650347901731
Ni 5.894913836894272 7.946992984410551 3.3030455667821386 -0.9532290408475775 0.3442629999866974 0.6064635861540008
Ni 3.139486727282302 8.433505505349384 3.4125752639818847 0.8373977581078547 0.5893824623019978 0.9164229277628216
Ni 3.5297159042754918 4.668163392952875 9.226098235968548 -0.5128942001362715 -0.5948475991816271 0.18739074014526438
Ni 7.4572864880700624 6.066296551181412 11.309458323202012 -0.3368463958076522 1.4945439582183875 -1.2568351865448613
Ni 8.174302116984235 9.07284656438169 2.3990959302434196 0.23617253753465778 -0.27049367941403096 0.12764010244919308
Ni 4.646360643487441 0.03603823413309923 1.480323881933312 0.37831186204129036 2.128599337947728 -0.705945481001423
Ni 6.144972082015362 5.711728883017537 0.18407125930158175 -0.07623680827655256 0.4792567145874843 0.8473137316699859
Ni 7.974901595683709 8.971758607866036 11.213247776416523 -0.2894481090293467 0.19124148134992228 0.38781311666350626
Ni 0.4274348955822215 5.308969494833236 5.754469915671604 -1.257174572162151 -1.187361150913439 -0.4373143087174275
Ni 7.528054427382535 6.290566402318762 2.666154132188936 1.0893954356002271 0.20432402556549326 -1.5094630414220649
P 8.777717777481678 1.9228186900219164 3.6704300849552225 -1.2198979471988796 -0.5609810283411694 -2.4120920007245874
P 1.8540253736785597 3.2048858760335857 1.3326775916781353 0.6456474554423138 0.29362203790137825 -0.08852745271844753
P 4.937649380189451 1.21935243254098 7.818279415581828 -0.46204497869488814 0.4261338666205758 1.6993145844029958
P 8.492453005782222 1.9193517252696917 12.215045895844147 -0.27616938964256954 -1.086290314312342 0.9331857490434573
P 6.652877868393776 7.843894006345705 1.220210529066268 -0.02857215521073789 -0.37303492991306725 0.4537459719108895
P 1.886966088647204 3.6405040823813604 5.560209783842289 1.015597061561838 0.1269019387315879 0.9138777927434649
P 7.074054938096456 4.191341993959238 5.779308306715364 -0.3542620201809383 -0.1848684879440429 0.9185983381475858
P 2.69770806125669 8.694173936562583 10.222436568384794 -1.5413097536190163 0.7528514015243422 -1.6581126562433897
