# total energy = -340876.9901696305 ev
CRYSTAL
PRIMVEC
9.18325468550740 0.00000000000000 0.00000000000000
0.00000000000000 9.18325468550740 0.00000000000000
0.00000000000000 0.00000000000000 13.44062148984796
PRIMCOORD
 96 1
Ni 5.775890559961526 4.703525200297466 3.5292652038030807 0.15277829227771753 0.09864937164379786 -0.1869276844659168
Ni 5.131207728345443 1.00619082781845 4.699875774963655 0.4492190305748134 -0.3550364364531176 0.05331542359368882
Ni 1.8361550019986472 9.083781476083532 1.47630458323149 -1.1267818466684854 -1.0035887242470523 1.0338506084553873
Ni 5.699430783088566 5.99040220156319 6.0940049237284155 0.11526975380929826 0.43236364958037155 -0.012417656938062484
Ni 4.405161261959434 0.939896913664487 9.416324569303073 -0.20626777955542538 0.17734209766001072 0.28347389372378273
Ni 6.40558632025204 8.446353415513528 6.14075136237772 -0.08476772856569917 -0.5938366414186095 0.7183942482877369
Ni 8.070896055742816 5.224583059986598 8.50491594771345 0.6549916156613752 1.317364097167854 -0.8584599780947926
Ni 7.159623346319623 6.772760384473939 0.5260700799890675 -0.7080776968530773 -0.3882602315032539 -0.7450571022909039
Ni 8.192197664284123 6.213004290369404 6.233222143451737 -0.3425614439145584 -0.6119557196168235 -0.6355746445873441
Ni 2.3152270221654194 6.533894751968229 2.3202410791162524 -0.042619377332423374 0.5131212285454131 0.6201521393846867
Ni 2.306457014128706 6.46012566866046 11.533182274607075 0.9213964697180131 0.3811192495830985 0.016522680245371544
Ni 8.07916098478265 2.2466923939162124 13.585107942397789 0.6651197052343125 -0.22685974477416415 -0.6201361985450868
Ni 1.4408067130054003 5.3909101652860265 7.048719018510428 -0.6663528063104653 -1.0032696503447365 1.0458995692001214
Ni 0.260792489248392 7.416084094425693 7.772953628785816 0.22366874864069222 1.022980755620419 1.6064296260468012
Ni 4.056197591388638 8.094405187233901 6.038507761876823 -0.4766321324804436 -0.7778422671417249 -1.3011946864968431
Ni 4.351751453853125 8.081172117515678 8.31068552365009 -1.0019979827211647 -0.08778671789768107 0.21643854944084012
Ni 1.7308230730131988 2.764563664297764 6.9826041778189945 -2.0548043063434482 0.8050563656626716 0.238634368811589
Ni 3.5325684204426673 3.046048780885555 8.462322176743937 -0.1126469714744705 0.1900942551193565 1.008956416316869
Ni 8.26065882649742 2.790010462485966 8.453169226995044 -0.6536078479399711 -0.631303528015816 0.24292451154651065
Ni 9.405397414786965 6.9846364320373455 12.589306130382411 -1.1654178138731284 -0.4453220095132524 0.6363374908952976
Ni 7.96100923253097 4.400119655245136 4.595563187226452 -0.2663495753386703 0.3554444705248136 -0.9371107951294764
Ni 2.803785344219024 1.0772233012885846 3.6850012617006853 1.914753231824412 1.0506352841128939 -0.8497156562432592
Ni 3.528968584683095 2.5244031929091464 5.581392903192545 0.3943624877462498 0.4455081573821295 -0.2678521280261258
Ni 2.911413086826649 8.897884855468673 12.91604724341599 0.6360125034557111 -0.9279975199742985 -1.3139247324690018
P 4.620912642917074 8.782139115893033 2.9879977559606545 -1.5309348381425958 0.138664992804787 0.2986835115846856
P 0.852725788755902 0.8385532721034833 4.175329196894263 -2.317218036962822 -0.6540181960045123 0.41614795905245755
P 0.25264418754056384 6.570049224890261 1.3046511903286127 -0.8036422589239643 0.6700405395746977 0.3275755120286874
P 8.37123439379592 9.64755983565412 12.22760528583578 -0.7038346053060073 -0.5452057677847836 -1.2112896367045785
P 3.3413822452423143 8.33471259069434 10.508523003686392 -0.21467220156903674 0.2539491447917885 -0.04777006829542741
P 6.069920002180888 2.4223129527582103 9.964124066063317 1.922848864348353 -0.9457795265480679 -1.5556433966328693
P 2.9555018916269225 4.754795310107907 10.255556483913272 1.6406756917138645 0.1960658993217591 -1.1803003874119156
P 7.263384938787503 7.149705431471821 4.454221880739893 0.08039968140499057 -0.30158243039903543 0.027782569429906992
Ni 1.072282710373661 1.3182010823266974 12.87834631043806 0.7057850441641588 0.32131359027937567 0.3219149713088005
Ni 2.377168073691736 1.6252707459200213 10.682981880835568 -0.7218066164033956 -0.5187007795157197 -0.34841147493743224
Ni 6.5512786527153475 8.873558414328093 8.867516751199974 0.6912603681854225 -0.20358997561294614 0.107121413670551
Ni 6.0034607894461285 1.6965970835337945 7.723263038747432 0.09944589940316421 0.8692236443691997 -0.6830698619548301
Ni 4.510502374199372 5.1609155566164056 12.292671398864602 -0.8220644701848938 -0.3826490559640636 -0.05460817426318337
Ni 0.4164321229738652 1.8268707317105664 2.1560095924911464 -0.19304356755566754 -1.1273202356704586 0.10288937786707442
Ni 1.0635769851183685 3.1497369073175254 4.364465669692738 -0.3176875634910142 -0.9058294685176915 0.3760230660071137
Ni 7.763183564335282 3.30637567913137 2.442000013731097 -1.75415981437765 -0.040278387904072566 0.03969783281025421
Ni 2.111588353878382 8.875082834573218 8.680988322676292 -0.6119649755882042 2.095804145794578 0.15241396695976334
Ni 4.245436916637385 5.502725471940501 8.45644948549841 -0.6072765689735993 -0.09676321036467851 -1.173111325862644
Ni 7.499817008853706 7.463432954569457 10.74320933707429 1.364693735491753 0.5997854028028766 0.8295620641135197
Ni 1.1161143840482508 8.622221922226721 11.232085399733206 0.5782722113214493 -0.15837301275667565 -0.523696432958098
Ni 4.396281054868856 3.0520546293211686 10.956257167910456 -1.7342453348419102 0.2782260150612821 0.4894575663798861
Ni 6.6508343146274 8.328412878115087 2.497213413018988 -0.32752280441388104 -1.6155992083612114 -0.7542436538861784
Ni 8.801295384756472 0.42105680993437716 9.859690259366864 -1.1566698924771692 -0.19032308330071093 -0.6954679785088668
Ni 3.7902597246502236 4.671025662661939 1.420660489308079 1.913815293391175 0.32433309383198977 0.8130558389283804
Ni 3.734122489960769 1.1168398611528587 1.3873271121649766 1.8281075695097098 -1.1037650740583378 -0.058376897276996235
Ni 3.435464687479099 4.992733433910258 5.812302164009242 -1.7022950071875587 0.37946474469881103 0.13444118453142653
Ni 6.644194821632067 3.48397063768844 11.848673900891992 0.5493059059960862 0.5096039594207741 0.36233117034231793
Ni 9.393826514131195 7.992305763828477 3.0926868571318935 -0.38759560133606147 -0.25235300394926213 -0.007086474533136183
Ni 4.878769245705427 6.676777008557993 1.9723839907113443 1.1944196004221173 0.9539150111710087 -0.5613515243067106
Ni 1.9227163588091822 0.5497794064280066 6.195508353917523 0.7587981060260802 -0.3521053788492517 -0.10724019863660242
Ni 9.066305742791526 2.7201626288448746 10.928649549941062 -0.8608788719489304 -1.4104961385378483 0.5527594117623255
Ni 0.041099655464200066 8.388554011761617 5.612480974613159 0.02006900283573318 -0.22314912869179634 -0.8149160320655706
P 6.634175890984889 2.7138812827746 4.5084820582118565 -1.0738983684058923 -0.6026642670125686 -0.6111265388473088
P 6.037007218093368 6.853545474211079 8.24795838553954 1.4863300549490275 -1.807553656617758 -0.42756237153698623
P 3.3727338760667536 6.81105455569184 0.3681511624994977 1.2971161455520952 1.2216933485364054 -0.6980326539122494
P 6.557073286297721 5.805405539888223 11.892422925276183 0.6652593161359703 -0.12757968152490284 -0.059459845928529854
P 1.1123584329623706 3.3075511357059244 0.34278150364900073 -0.6830220394360302 -0.1986262038497676 0.6237629966643967
P 2.661720397278755 4.449764329011075 3.7742606586800016 1.2181619383443794 0.4381982539842776 -1.14163536674155
P 0.960366387919811 1.8502329311298322 8.932542457909046 1.2525404158242492 -0.6104683364380196 0.13902957523305734
P 6.206842326607482 4.604805214543885 1.0696397697318119 -0.1821588023223637 0.6657678803412728 1.024518532421184
Ni 6.132724279629143 9.362144286145163 0.3726785069624293 0.05410192405072618 -0.9189904313796817 -0.31982954953468146
Ni 2.5465348362269253 2.895204642654084 2.098497624604733 -1.6707678831135548 0.6829343648182302 0.66718198707998
Ni 1.0848454025142098 3.9818683295570576 9.304377942109413 0.6038456889151794 1.0326457895140086 -0.4456660231162325
Ni 5.2828508097174325 7.121586306227406 10.423456680706616 -1.5775355687202701 -0.6356486923583892 -1.5011732906094468
Ni 7.453313008122904 0.17336698819046972 4.23983053977203 1.1136764196347788 2.1281689352785285 0.6398025666257626
Ni 5.144817311497706 7.481790280292379 12.646481991154538 -0.33255959550684017 0.34285917766063534 1.2742832068179795
Ni 2.3585903498610854 6.587873921852838 9.008885607449999 -1.564173031370435 -0.15811718799212768 0.8753768084547892
Ni 6.0143062129972895 4.64364119777662 9.492465687245275 0.9905084940243265 -1.0011798576952435 1.1856146005359773
Ni 5.750085614848263 2.474749335888717 0.6921529107190963 -0.22403667350307221 1.4018924560292372 0.31605619853517825
Ni 2.500857328400106 8.055018208731845 4.21758594242404 -0.5330246523375595 -0.4920309835340172 0.05739602142096567
Ni 1.1884692461647592 5.954210995623202 4.452030756218887 -0.4892518781269832 -0.24079383835675303 0.869920156215592
Ni 4.107981963450446 6.244824267172767 4.134644624532952 -0.16486813356271604 0.8116288766738666 -0.7891186113864925
Ni 1.7828094766737588 3.8687306342562096 11.722694342514139 -0.5909798886961047 0.0633686940646328 0.49120308831608306
Ni 1.892485085032365 5.408624663194739 0.28641652424822606 -1.8958702788769803 -1.1037473334465249 -1.415242394973582
Ni 4.699429468795504 2.7920583282369473 2.8700434436804807 0.47056818567455083 -0.6816734958279356 1.1988151583866515
Ni 7.739812181661527 5.88003784911793 2.723378604566819 0.29761804643464873 0.8076544654071509 -0.13110363551776133
Ni 6.018089713846637 0.2742643235833225 11.250525374746525 0.749291966307858 0.8414040510537704 0.06470489637755308
Ni 8.275811196403783 1.9455918457405468 5.769104134894373 0.6044635250048364 -0.13405603327786592 0.918222957086038
Ni 3.4081445053752013 2.9897646141242813 13.257036175788796 -0.10371341643026653 -0.9140770532384644 -0.528581014743909
Ni 8.330919906590504 4.667076863231795 0.31257502465930276 0.35188992040433587 -0.13135766051009637 -0.835437034837058
Ni 0.6282190929687309 4.526306755174433 2.3160746365547267 0.6113219426875666 0.0810141750605379 0.10855197546949047
Ni 8.506669030995344 5.062709833114192 10.79427006868239 -0.9845918714295753 -1.1855289828007067 2.2919633761610916
Ni 6.915762023372056 3.978948054629649 6.845872865085766 -0.4134475294021589 -0.3409861290076385 -0.75162755641957
Ni 8.391970182431416 8.784591044841516 0.8754534252899985 2.0017740180903463 0.341402904830083 -0.7753133300722841
P 4.56611616338297 1.1133226746836846 12.74307972679578 -0.48069653235780435 1.0055656454677648 -0.6286329231621883
P 4.72250698732562 3.9429405137794364 6.947363438718589 2.2125813373873378 -0.7995110103644102 0.40484796065860595
P 2.0568102408532556 7.258453531127068 6.394818954364034 -0.08828602613160279 1.2750031157031396 -0.6204107923627122
P 4.030815075981856 0.8503895688139753 6.928827957858586 0.4048705863664253 0.41892835001107204 0.8356442657518576
P 9.217599860492944 4.069531676906237 6.176072914117627 0.1932068326064092 -0.5902712926648543 1.6500512193914938
P 8.055504921219745 0.04802658432503038 7.256268834884205 0.38148948843832364 1.1230496333195625 1.0475602447319958
P 7.302257655038192 1.2046317740648802 1.9696694206844831 0.14064217113581584 0.0669551258643105 0.43646507334325474
P 0.10395535913759157 6.6686773780989546 9.874501930531695 2.1525540489911124 1.625598485665768 -1.0092510647391522
