# total energy = -340868.3428088525 ev
CRYSTAL
PRIMVEC
9.28688485558962 0.00000000000000 0.00000000000000
0.00000000000000 9.28688485558962 0.00000000000000
0.00000000000000 0.00000000000000 13.59229471886288
PRIMCOORD
 96 1
Ni 2.8750430984223834 5.993151833996301 0.25669321197888123 0.44282855366743734 -0.7357666781279134 0.5613268417163623
Ni 0.7581097700548339 1.4929967558563866 4.040119021573907 0.42036328268538575 0.24341276403683884 -0.0811527575209312
Ni 8.364316421169274 3.098429826578995 5.465067986076591 0.9567401393246295 -0.255795711082224 1.0517837958950402
Ni 1.313778452041375 3.197957371505178 1.1106492058057749 -1.0638314710881935 1.8497485448182531 -1.9536239407476808
Ni 4.0733298504822315 0.41271009137576453 13.291878085958416 -0.7285495915541841 0.9371524470006892 1.474300634588319
Ni 7.491052065052932 1.5425608602952257 0.9527842363239508 -0.6186544717932377 -0.5100801277262441 -1.345372923675954
Ni 0.6863713706621599 1.5549217040291763 6.49617873790506 -0.9442479203948899 -1.4955446315687597 1.3126129556361135
Ni 3.0464232714248825 8.30869726780892 9.334630581334102 -1.011704154265335 -1.1266630617024338 -2.163787455813086
Ni 8.523019996352959 7.1913735778622065 1.934441397643283 -1.482522251167163 0.5933039088435911 1.4194597754890392
Ni 3.5118447925147946 7.227908182857971 5.042510082007002 -0.7049625482628633 0.6535260868594421 -2.8258632320147528
Ni 5.781791621719077 2.3407871868320633 5.702470480847237 -0.6503530884480994 0.324161601251132 1.0482912093607495
Ni 1.0029185554925155 9.328861568465936 1.8849385866444472 -1.1976527626474343 -1.7884639869761585 1.4640835848460012
Ni 4.860049726691222 0.6365295883663372 9.496528844905823 0.2103463205001732 -0.5715248652952867 0.796839634179834
Ni 2.1920948735155457 6.101046862171386 11.331922829569615 0.9901747648339915 1.2935317706349465 0.7129370818279077
Ni 0.6448812839109967 7.728991341767846 10.523833831323193 -0.8959019249913345 -0.08642583299441245 -0.8030030826780686
Ni 8.96319047753858 5.979769432928965 4.697375079546128 -1.6320812651766343 1.1106466316695194 -0.34884959091611534
Ni 1.7516457857844565 5.315097797404859 4.739266359722766 2.0217476329987956 -0.3904130161801985 -0.1227156685643822
Ni 4.4902924064303305 2.331556023292208 7.803947646760681 0.6111141975521347 -0.06557727168017738 0.9823984633226823
Ni 1.4898392150077442 0.6581838177686309 13.294881464518564 -0.358388383644486 0.5724067536796078 -0.38283828915673423
Ni 9.005250779019468 9.009857073904547 7.865276376926168 0.8544773392979607 -0.44717037557590084 -0.6910932464799387
Ni 8.156401643171012 4.058628711766347 1.049379911703321 0.6706619752087805 0.46686039780566047 0.030554989968721573
Ni 0.12344591685465041 3.8510482616226454 3.2595544926428 -1.2261135890912882 0.30123224614846833 0.2785620582444622
Ni 5.786500072337494 7.470583770845849 8.357412550972567 -1.6892515437400393 -0.10980667381219798 1.5470780235613613
Ni 9.18782164826495 5.0706391275259834 9.377636287692612 -0.45980709050330487 1.8552231947795792 -1.973445860569614
P 7.182123840552654 3.838631696579601 7.7226660444972275 1.0575353536668366 0.6182803762832706 -0.3240057923995581
P 1.1034026495581402 1.7954055871927026 11.445854332896518 0.3675548806351025 0.44597558393685127 0.037106160823678035
P 4.102639259065515 3.628748098993361 9.86012245969247 -0.7942474479726257 0.42350722763100607 0.41727744467121036
P 9.224142654909189 1.9180946229321638 2.046877712509505 0.18853102439729466 0.7369468144789437 0.6329541762453615
P 7.634803755629808 5.384145786256792 2.9797165062433684 2.0753687607583613 1.4124239516881805 -1.2063209798453935
P 5.19176796661082 6.128480320015181 5.654272477169678 0.6377431129935727 -0.048621103441813036 1.1097470026733856
P 2.1284425647608516 0.49075707164632926 7.7937673635892635 0.30930268186142856 0.16615059981956548 0.1521540284301573
P 7.089607893687426 1.9400488187150784 3.9262701715221597 -0.3424110343796232 -0.2662318188138834 0.4536436420050703
Ni 8.579772149664883 2.8847664668592325 10.139837859211893 0.6246551694613629 -0.736847312786602 0.3546425434488086
Ni 5.098741241078901 6.610738963336237 1.508187313403812 -0.034269462705831304 -1.6119806377720174 -0.39636357733667865
Ni 4.299744103099601 4.637758850946787 4.4857836238361655 -0.5122596518760663 -0.4548068090752361 -0.45598437432310496
Ni 0.9688078274423269 3.0312577884665495 8.304497738480226 -0.7727450551244756 0.5100806419468763 -0.5617595583784067
Ni 6.939531834528417 5.262329717693132 9.62936565971973 -1.0778298422498145 1.6866706703867402 -1.163039800559255
Ni 6.970494308614811 8.211380001476787 6.56265890309626 -0.9761136587552349 -0.3216298359682139 0.5553785945527274
Ni 7.348851284245829 9.181850181307077 9.80095478763133 -0.046922375583151446 -0.22205461007603694 -0.48406956259509537
Ni 1.4500449134299989 6.965210071135759 6.540707493378799 -1.3425866191800684 0.19358092811637628 0.691063421683268
Ni 5.03770783385161 2.518658892343977 3.351234619871621 -0.17123778453448574 -0.07032712766033694 -0.7848611216617193
Ni 6.137089262270156 3.1917444455412314 13.40190724027179 -0.5596720797217587 0.1721466695020003 -0.37433745077457464
Ni 2.368889300384982 3.502530047011299 3.170823880042005 1.7119798385754903 0.39256580085714327 1.2173337860161293
Ni 0.5196253531992863 0.8772270698813893 9.650978098140204 0.8199237696928073 -0.6292445886042582 -0.16736364629106015
Ni 2.643437477174452 2.1114847130266714 9.462927966833842 0.6334406289634769 -1.1282324630720826 0.8947935224185042
Ni 1.8487958881893087 -0.2061920608587832 5.475928069218952 0.9780198746390124 -0.4268599461533229 -0.6195494728036814
Ni 3.6542498847885736 6.9163517699454395 7.2180520119677825 0.8380464474354469 -1.0401379841259957 2.1097716637182633
Ni 7.770485143272949 0.9187255148289165 5.849498584398823 -0.611738718510011 0.14653796779496053 -0.9801060677440798
Ni 4.412245426159766 9.067445046852878 6.772347476100673 -0.9040911456703462 1.0977998576138384 0.15743533143375465
Ni 4.391962869649661 5.769765105839689 9.687990049017204 -0.6871491742305262 0.05578008308409748 -0.07654508354559075
Ni 8.563027896282229 0.21229540158151228 11.926641004969015 0.0488563593810707 0.34991248496299093 0.2645323196242734
Ni 5.86736097871729 -0.0958304360678166 12.033448538928289 1.0347929177639985 -0.5447468258704941 -1.2948556316526927
Ni 5.209227310126844 4.6032116393086975 7.548223056871545 -0.9355555348272147 0.812077277065195 -0.13933913605367618
Ni 6.843756191081209 4.2871789478989735 4.518975878974794 -2.531789708398253 0.19628855685552646 -0.7710427277213883
Ni 0.5835506963685396 6.967541079232846 13.501756111413744 -0.16374481859155027 4.314046538122435 -1.5083962907204473
Ni 7.0423747973456745 7.270637140047984 13.244413746183923 1.2968749760755665 -0.22928172395209542 -0.5936525504322615
P 1.0399267916155759 5.06324676718622 13.102917839936856 1.5230428369890285 -4.070686995921034 0.9662295668723035
P 1.2272432590188709 3.303010612916485 5.628392715161112 0.8179144525722624 2.6473638808218474 -1.2663091874735675
P 1.4132224150039174 7.355862882306786 3.303905868615924 0.42635035350675604 0.26442330485023496 0.2522133930476043
P 1.8738797641663192 6.274126535101243 9.01544313514119 -0.020691981131712753 -0.16078213641880051 -0.08721901831966915
P 7.6932461219842425 7.188178889474168 10.793396808325749 0.7590130502503638 0.3116896940363664 -0.168632999921787
P 6.175286219653882 0.502128862143867 7.72974729419455 0.04262811908317174 1.059903339678381 0.2926511893476766
P 3.290259720018879 1.3842287605054995 3.8945870351714866 -0.6202488128635512 -0.5944897016215761 2.1524028681252285
P 4.823041490568162 7.8111152644871 10.451414703271091 0.4645237792526838 0.29678423767944373 0.642724368258248
Ni 5.771501753306442 8.793435509384647 1.1256178068053104 0.738952789165379 1.2835489483906217 0.5428125849622587
Ni 7.885085302308976 1.8595129533049954 8.11521152280047 0.10238724141967527 -0.09409903326895407 -0.24983409418215038
Ni 7.8038807811897675 0.09218626245308913 2.7553481543582232 -0.10226768512267548 0.44337645575110735 1.0290061358788924
Ni 0.9566234345205062 5.841562012606911 1.7382095207849975 1.2272477026957316 -3.034946883752418 2.4683366821499293
Ni 5.508172133414502 0.04697120618901267 4.535708059407144 -0.48498796064430666 1.0654983172676553 -0.3970451767847356
Ni 4.172058723311405 4.774805410662722 12.172688660845546 -0.06900686618701665 -1.2680873624199127 -1.3881542805075384
Ni 2.5816053978501516 4.821016949671091 7.238317852085157 -0.2204276159955752 -0.7839123845952047 0.4414399008500268
Ni 6.062366986775515 4.407759860777723 2.0537137884468164 -1.6745615458280325 -0.6993691133354859 -0.7681101274556256
Ni 3.2800534335698845 2.7967918066851416 13.484317199044389 1.0071977817545492 0.3371798678876709 0.13485976012608386
Ni 4.708032708598782 7.155164013836155 12.74414876182924 -0.3789019302168055 0.6874579637201967 -1.164179313480337
Ni 6.079974920449122 2.99882798657402 9.551482128622506 0.4021475310083074 -0.9271451992763323 -0.5032039694317011
Ni 7.985309363598829 6.9890216438884645 8.153079724460543 1.819864355664311 -1.0554671582838984 1.7507428182763007
Ni 2.70281781889863 1.5637628184053756 1.9125039182530967 1.373587181326641 -1.2702218922644124 -0.8004021547201119
Ni 1.4970272638808304 4.191849074924516 10.43292915897926 1.86193146003769 -2.500067694704623 1.2890955892404639
Ni 7.030338994581436 7.571597217347864 4.538725368294568 0.44366133398137786 -1.4698783371509072 -2.783106557773517
Ni 7.111181327191535 3.988206263956769 11.443624551844284 -1.408070045594859 0.48873688616377764 1.752128642880234
Ni 2.7149464905113567 0.07655829262927828 11.25285707803112 -0.3812627171394982 0.6444056126154127 0.9117813152257522
Ni 3.1239966205681506 8.24280681980563 1.7189085880034274 0.21766059477339933 -0.30178297644561575 0.9131049191331821
Ni 8.804691213821572 2.8335400100324315 12.64435468330789 0.716346878840405 -0.2864628011487776 0.2181730156334436
Ni 9.427766892107236 4.871584037673617 6.87819010272414 -0.3722826251280749 0.1485709390645893 0.3031919409780004
Ni 8.883425423570959 5.566428762071957 11.785076375774066 -1.3482466456793232 -0.13392413568569195 -1.5917198306404523
Ni 2.9818515610701417 2.1230190240090656 6.216082576106829 0.057051493597353356 -0.40413910751703946 -1.6214024453065494
Ni 4.495985266842736 1.9599784736009225 11.614805985511017 0.6522490199192316 1.1995507510010954 -1.4125291098074768
Ni 7.124331556137646 5.63821638195433 6.415698593804072 0.5075049107999002 0.3103483495171236 0.09324285591624587
P 5.186140114392357 1.7916629725985764 1.0903777935574896 -0.7958947537680616 -0.4629132402324544 0.7735282131474034
P 6.7868368738420015 1.692534763720898 11.20622205707364 0.395104508118597 0.4411627359292402 0.39726474899470937
P 9.003987762680012 8.479529514605332 5.724870447102901 0.7861273899686525 -1.5476920029962766 -0.9129036017556535
P 2.745936825252299 8.089740383725259 13.209589785377336 -1.3644507662430114 -0.7337959275547878 -1.3799411485691266
P 8.645514007510592 8.76062494521331 0.4268958079825336 -1.0734299134099061 1.135515369886741 0.026864685601327928
P 3.836978631076488 4.755850878686018 2.0911742958620203 -0.20653645983577978 -0.09292069669013674 0.4443761006602153
P 5.927781451544551 5.357288115273633 13.180040775164949 1.1558401974870223 -0.258249057718723 0.7165242849585337
P 4.791410360772642 7.84590393513126 3.142524884530288 0.35023927217479034 0.7677740842724455 0.8472733653503538
