# total energy = -340854.1607438904 ev
CRYSTAL
PRIMVEC
9.41040226646202 0.00000000000000 0.00000000000000

0.00000000000000 9.41040226646202 0.00000000000000

0.00000000000000 0.00000000000000 13.77307493500160

PRIMCOORD
 96 1
Ni 3.007423392794571 5.126542457832093 0.17010148944980327 -0.00854480424621754 -0.2013358894714468 0.9712126219091919
Ni 2.8184248746510843 7.878360505585168 7.498130380851897 0.49945607235349465 -0.3132608951782282 0.41427311062724786
Ni 2.123344335633341 1.0284346271831915 0.5276337240335978 -0.4393081992190047 -0.9221012090945216 0.5924703571987022
Ni 8.218612418576308 2.1162300715566396 10.013452787347285 0.01050089953132385 1.711211592950898 1.080025821459869
Ni 7.0156336510562625 1.132080797210694 7.679577051215553 -4.646376019896341 1.3619362273512738 -2.516982468182091
Ni 1.4244431733151472 9.12409073038095 5.611742796184919 2.2710888467049277 -1.082163179517846 -2.0984932625909667
Ni 3.649956245827787 7.3375541005270115 13.534635207145442 0.7907139808980704 1.1247771575336307 -1.0540491948904493
Ni 6.819596152053816 1.2294502289588842 12.118046896561543 -1.041689644883832 0.5227379256995707 0.17048419419791286
Ni 6.668088676346281 3.855112424579338 3.73356390537258 0.29740258798973296 0.6433566025256081 0.4403350978216222
Ni 8.114919196537716 1.7198921613470586 3.0020208808812976 0.5310826981198402 -0.892013902790838 0.5594545643943138
Ni 3.2219711529595454 3.0076210112411457 1.2416884570432103 1.4265753034878979 0.01686412274519031 2.7042513380375106
Ni 9.37259122174796 4.483727292732341 11.441844565433048 -0.8277064989620196 -0.15947498757160278 -0.43770948727331715
Ni 6.171944040214084 6.680679794513778 6.532239168889043 0.508038414705867 0.48455910063700425 0.878187538430707
Ni 1.7011278193246469 5.987829520821666 12.40624893384548 -1.8715239888221318 0.5725363372789365 -0.7701461840490478
Ni 4.68721783029133 9.139373223582753 6.921232260167584 0.928524596122362 1.0927671802859373 0.9746974951339987
Ni 5.1715147700312425 4.592605646392973 2.0035414460379957 0.2756798516006607 0.9491939515462557 -0.3319726126551186
Ni 8.568359427405268 0.3708225456360772 8.699019098039358 3.1931915984613455 -1.9537440112653128 2.4956513108044827
Ni 9.355784243386864 9.267646416214394 1.6431277462950928 -0.670451144749555 1.5959644648494191 -0.989280020933864
Ni 5.51714002268878 3.187331462395605 11.012468615117005 -0.15775337689480573 0.0897258439019229 -0.6542843051817054
Ni 1.2794759271490246 5.4850317303214435 4.39862432027513 0.9261401550505856 0.28213640585928185 0.12270821236521448
Ni 4.439601916732798 7.992753354945466 4.976183992235359 -2.342476554419295 -2.997204632006638 -0.33622136062914354
Ni 1.0866944273139585 7.856010800317752 0.10899692472857736 1.5999226781662188 0.5981134144170925 0.8440281189401786
Ni 3.88789826590636 5.260668920643242 5.753288420104629 -0.42395048581601186 1.1877694420954512 0.47149892501893637
Ni 0.3196666581395721 6.393511960433583 1.7141555801550514 -0.3086930733018877 -1.389215374782201 -0.7681998589559544
P 1.2089543729283867 9.20391917239505 7.7137208135826105 -1.5862603501877777 0.5622745503416122 0.6250035539397172
P 6.82806551404989 5.139218269619549 11.467035271130035 -0.25191103131583714 -0.32217902360346445 -0.5042897462967121
P 3.1345579267578496 3.3974281023115322 10.663954368978585 2.4591488450030745 0.5802887275308457 1.2070331754210697
P 4.713651650121297 -0.10888776406285018 3.211454087440866 0.3496815998991074 -0.3987166509498875 -0.4360482975208103
P 0.3904460573809792 2.4048753387850383 1.3700134068870489 -0.2977643422045259 -2.494301224534491 -1.7949382818465927
P 8.262022604007294 9.138441593763185 11.262394782420023 0.09251240550812455 -0.18727118384826458 -1.708352269125232
P 5.034226412074893 1.2232675947017508 8.52692448539981 -1.1364574220850365 0.06850292996740459 0.5804357946316714
P 5.73386158576608 6.49585949495502 0.6286336889574382 -1.4048618230702061 1.0048971586458306 -0.2278889573696269
Ni 5.508689481497142 1.9747540846133425 2.7156237587427454 -0.3863650713630701 -0.724138864080998 -0.05708594637971459
Ni 2.7740454177916596 5.647398810188388 8.987647426543765 -1.6290519914320074 -2.8199517516263244 -0.11657767398744438
Ni 6.620782584397102 3.8711195187519167 6.025086244242394 -3.2932008265671477 1.7818809344420021 2.239492302845569
Ni 5.474774391903978 7.268641725085628 10.7324620971246 -1.0191624103155932 -0.47742506069538415 -0.5493902381797764
Ni 4.654403757757655 2.543462332247453 6.812644687935483 0.8000023481785319 0.015439217373205668 -0.09482665546359799
Ni 0.6851459773963489 7.996414001408214 11.702003604107764 -0.24912884058500964 0.40310141028114443 -1.9662349446434717
Ni 5.087442236616887 0.27939013664713425 0.6670121323225339 -1.8050432314910785 0.5617814127552776 0.07814765214602025
Ni 7.01111665799169 4.957249321932804 13.779823236931765 1.4881221138524436 1.2488364846101008 0.37886259233843783
Ni 7.951037041913696 3.7433921294489125 1.8228805442595326 -0.7569037172168448 0.8038332918888479 -1.0096423866403
Ni 7.2791249131563225 4.524116739051393 9.277033292426708 -1.9716332328409074 -0.9683797804460871 2.416191110494626
Ni 7.938323588517369 3.1537833784889364 12.898278401087806 1.1208122593486116 1.4839232452797475 -2.6757051509687013
Ni 8.995318786431763 7.567817232395812 8.154169984188407 2.1209683037650313 -0.9126061251198928 -0.25326420290962187
Ni 1.2094625346481511 5.718927277446338 7.1698080347523385 -0.08701204451518561 0.05244999026959999 -0.7433367771656876
Ni 4.096432779054123 1.9546816966826486 12.862785187042707 0.909113281475286 0.15583276283332514 -0.27924237214093844
Ni 9.106352122200285 7.37259843838632 5.734971072187566 0.047177429016751 -1.7146437585608987 -0.6328058235929553
Ni 3.4354837688805553 1.3394766516900956 4.981996797685331 2.6333621672261165 -0.5977611732839962 -1.6024035356065436
Ni 2.7470846154374926 3.80789102625012 7.452018468944165 0.00600609698476385 0.09688765175768475 0.14492074390651172
Ni 2.6052886748187882 7.570094549732533 3.6995029545450384 0.5077450518351643 0.27473471407857203 -0.19214856654522391
Ni 3.6222426112961914 5.801578840125796 11.31416799230202 0.5557768584324106 -1.010066361551596 -0.6988888312649577
Ni 0.5147866429257762 7.895797980894861 3.3555480482811713 -1.9384333490501715 0.46568540366095285 1.3315758698918616
Ni 6.2229578306371005 9.02896097436061 5.000989812481635 3.1105514577616105 3.0090160228192695 0.564935385003227
Ni 7.710328363583073 7.248183510664002 10.099464804658743 0.3397723112051955 -0.3438613936729046 0.7024197272363516
Ni 0.15430707036734817 4.167010795688068 8.858965822455868 1.327052013879579 1.1310840735882648 2.4215395192907327
Ni 1.9308169166581572 3.06830869514412 13.308178582973767 -1.8900086778898806 0.9754965939965264 -2.7275360195970637
P 5.783614382291902 1.9094835348302703 4.899399815338735 0.28250793026608767 1.0303531368250902 0.8774082370625212
P 7.643072218932032 8.838296815024561 -0.05697622126825104 2.7000231588887758 1.1116930706561627 3.3335265227693878
P 2.295131228120363 8.748766248323848 1.8107185404331714 -0.5336694850104099 -1.3966000972820465 0.06534304418218424
P 0.5376765052804972 2.3381085350493263 11.496343968837557 -1.1489902644447243 1.8794491572064793 -1.471137149258673
P 1.0550660654597332 5.82854905288218 10.189995697115213 -0.5847483059640962 1.3039395962318316 0.5758993402138984
P 8.008289929007152 2.982024717208568 7.593275193515786 -1.4496753798404711 1.786559313754278 1.218189449148205
P 2.1241065782129875 7.090145215817272 5.713153995685681 -0.09716455956815524 -2.2629875577540317 -1.0280651121218618
P 1.3504491806761194 1.7986854591171946 5.257733816191491 -1.4237357771565737 1.6683397332880363 -0.3436405359113501
Ni 1.7324268171012471 2.539425269695991 9.42100397699796 -0.5925644595744053 -0.8493726710815437 0.1350631343861416
Ni 4.037297811517094 3.6165587283566043 4.135282683570333 0.10591813739106921 -0.13365982628071174 -0.6769123269938665
Ni 3.428275400781675 0.9523327044473631 10.071519674232587 2.6108565299244324 0.11611127587398713 -1.4084551968484196
Ni 7.2124522134427895 1.8366752528706924 0.6259714861700059 -0.5656007865013678 -2.268108938140997 2.011758640106884
Ni 6.812340731943847 9.248129242014553 1.96264948424051 0.8346721316465754 -0.6023606197292206 1.5209337610658258
Ni 1.1748698960953003 9.381766363910373 9.726972853669215 0.7091110232135981 0.29419719367855784 1.9105705612016322
Ni 1.990375352294989 1.1089594389614137 3.214015598924567 -0.8709257146619711 0.2478000944712571 -1.2901571977357587
Ni 8.135377410959341 2.462485821162773 5.466147876190866 1.8584725549548122 -2.1370371843024354 -1.256724629108926
Ni 2.571590024476634 1.3534510989836166 7.011087485744814 0.35857915949905345 -0.2461319627402148 2.8007137293323185
Ni 7.303836629380421 7.431159371388058 3.5994280321592136 0.06441976103696648 -1.7090894044015728 0.10692421005808037
Ni -0.38607492555078354 1.0784509149711137 12.896749210727405 1.6646712832975137 -1.6821123615920965 1.5360744733620062
Ni 8.625038279963434 4.858684769102946 5.645776456846029 1.4929786706137966 0.0554610091817819 -3.3827204679955356
Ni 6.375839225068442 0.1561195138345079 10.143622176025824 -0.6480853754598451 -0.3002737388899409 -1.346792686841616
Ni 8.846737945813981 0.20399399407764537 6.368284554167945 -2.1505565589451088 1.165055031217071 0.6810587450620722
Ni 0.21121553673963064 4.751434415026002 -0.0622959216420069 -0.2799759078728533 -0.257679301258182 1.618727726687864
Ni 4.996716548834505 4.445276389270167 12.955353431579345 -0.6253917905170714 -0.030048996866580507 -0.4384443085568126
Ni 2.1513402822314727 1.0595171857087808 11.851730631715679 -1.642859329628745 -0.9845517622202592 0.9877129335570602
Ni 8.485416142257055 6.911893377006581 13.173849796514935 -0.702696635046822 -0.5666312846484113 -0.38246753608087686
Ni 5.040371404723155 4.993102954382848 7.908251707189978 -0.3293742558003231 0.20100190317079578 0.5012836124805367
Ni 0.5967136046344594 3.9297933765802697 2.6204375403090983 2.6108724707640327 1.7003414830056136 1.458287289879198
Ni 8.255350628834831 5.387605836159946 7.6083431295470225 -1.3024144178365569 2.6139837626995046 -0.3723078219390556
Ni 4.09859717156423 6.944491010289246 2.16279932901216 1.2528862291994423 0.4752686764740138 -0.8923306627003085
Ni 6.046211656181267 8.459264634493625 12.679464905597476 -3.3057686359298293 -1.4943362130829554 -1.5493071700021963
Ni 0.5874161272432145 2.655521401857721 7.342687474936853 1.2350456014735958 -1.724737138241159 -2.5959081361447165
P 7.072387786832172 8.285840332020696 7.82701829212475 -0.8743337119022555 -0.16647481592820362 0.03893035851661037
P 5.41418081202318 2.920857102792483 0.7493710314930169 -0.29327442475397236 -0.8077678510565637 -1.7372494117755564
P 3.8012755134909653 9.097835708193122 11.902994738837691 1.53109990296555 -0.6501142329644158 0.7684335722333153
P 8.72589897093445 5.585036074690635 3.451670601735495 -1.155647364749926 -0.11235258016250327 0.4952327783007664
P 8.38916654837279 9.135157363389153 4.353586135260455 0.1391866696362119 0.8263345583151577 -1.3631155923713556
P 3.063932858112816 5.021456496265258 2.3271680014308433 -1.4020719190298951 -0.46065838276000665 1.845021571656229
P 4.1399088373006325 7.020075360903091 8.915972157011216 3.6957396794766026 1.072989740548694 1.1484765580330996
P 5.686696649850169 5.914804799611078 4.652655305025577 0.14803537827609345 -0.7335712131384914 -1.2817250078080054
