# total energy = -381168.104099436 ev
CRYSTAL
PRIMVEC
9.28086980735766 0.00000000000000 0.00000000000000

0.00000000000000 9.28086980735766 0.00000000000000

0.00000000000000 0.00000000000000 13.58349108776241

PRIMCOORD
 96 1
Ni 4.840316936359115 0.20226448979828782 5.1489578264757965 0.5896650265394232 0.41820072781642814 -0.5558743032422234
Ni 7.100487132359658 1.651233773793884 2.362983670444324 1.2941717182117904 0.635804244099647 0.3016662483620934
Ni 8.93654942606218 8.61060528249244 6.871942003855605 0.28757737436919506 -1.545449743929319 -0.23123859056815016
Ni 1.8231618848311693 6.18296179290659 0.3761768507756416 0.8675652828301704 -0.38502321262319494 -0.0842203407026614
Ni 4.995493077603023 4.660991972177607 12.805591794236172 1.7772308372645005 1.3157605001261599 -0.058504681104112145
Ni 7.477206914012259 6.40162836371088 6.750601129246442 1.7319853351631398 -1.4349023352963546 -0.9548213250353621
Ni 5.338049977920766 6.148288463738692 7.516546664461103 -1.7015285613351792 0.12256243081596957 1.2014099156970213
Ni 4.673641797567287 7.328304640679887 0.4756696300437606 0.5872430473614918 -1.4244762548670242 0.7308437869049994
Ni 8.888678700192797 6.2260714326241695 2.1744177443108694 -0.9983269616274807 0.18501658348613298 -0.9647300995086416
Ni 0.47860795338812795 3.712867605351264 9.011288269688807 0.7315081599618757 0.039045543938235984 0.13397221531480796
Ni 3.472706540341178 4.8398900163533005 1.6146290956431604 -0.2573784821883116 0.7050013719205988 0.419462111027355
Ni 2.3395030701245223 0.46638040756941684 2.862177520895437 0.5592938704467335 -1.457055474354626 -1.1030325667676875
Ni 8.703534630714643 9.182984358983802 2.791366341322305 0.31803209131462645 -1.7268436430612002 0.3634948516331159
Ni 0.8583551547341363 1.1917471962314035 6.768178168355403 -0.7019931812218944 -0.8255071773178558 0.31410987344208485
Ni 7.553430696789545 1.4397598770006004 6.638578247807663 -0.510355749985134 -0.7746307021829627 0.5298349417556681
Ni 1.2910896254105182 5.5844941917120785 10.08893366967051 0.5770599361809029 -0.46317883518901515 1.2248856302214581
Ni 8.648109276916282 1.6930348108849467 11.380058562385857 1.5048134584651955 1.4182184468827705 0.22823682762734884
Ni 3.1247481738629115 4.398009248595825 8.408683256785773 -0.3056180339209898 0.29698786904981755 0.7528375175672711
Ni 8.620665745238156 6.84004736707338 13.190927935310473 0.049104985056767046 -0.0807102706668739 -0.19430829320070406
Ni 7.36158583939404 7.637923734462066 8.929515454922901 -2.7963184284781004 0.7231952692208061 -1.4892582843394158
Ni 2.079508786583442 8.462658938738302 5.490447426779004 0.8608071381707304 0.36758676231430243 0.24448157162098536
Ni 4.111759384697148 4.575802869278215 6.2704516234025345 0.04511360450918682 -0.8738477734047725 1.1868888392627108
Ni 7.439563706543043 0.2821718497561783 4.686847547051495 0.23242798289056096 -0.09018041494083824 -0.7230733989309611
Ni 1.2417989264783176 7.463935270353241 3.2215968333558873 0.005539184650674331 0.861397977677194 1.399469191299725
P 6.296244088362519 0.3353289590019087 8.316900095970484 0.9526019487865399 2.0515220360477504 0.6685804100894034
Ni 6.78538304458973 7.522553243325521 3.4658275597257484 0.04676502406968075 -0.9286883753937362 0.2692657205442008
P 5.572855981118786 7.967171867642024 10.65093766193361 0.18684592338538789 -0.31007092748602083 -0.27558883454875116
Ni 4.549807153271983 8.362091434759895 8.159453854000004 0.21574460869760909 0.5085230676517694 1.3444131308658458
P 8.608368592896758 7.543973490573783 4.747524945008346 -0.37075461851932273 0.7406234919995824 -0.14692980391674051
P 5.445438921122517 2.778052005662705 5.339222151762819 -1.6248168703047372 -1.082272965622833 -0.01775218177709846
P 6.451995643527308 1.5621003012755528 0.25781884768536395 -0.7191933471502646 -0.13031893483293688 -0.21682755734914272
Ni 1.4411427265846521 7.192720415354991 11.82812317361886 0.5641332008169058 0.11734077740571404 -0.08446305284108681
Ni 5.439777590610627 5.6720870398616015 9.998196462869467 0.19064884207124586 1.0720731422716956 -0.1711539665714278
Ni 3.146233387199015 6.973849665417485 9.5482979517854 0.3691458792713062 -0.18817878326419848 1.1697174696897468
Ni 5.779550230020885 3.4584789671039227 1.5092754471647825 -0.6586515810114656 0.18813250340729534 -0.4535971050378511
Ni 0.7278874728702311 0.13397121017249225 12.13429535239757 0.07637076275125557 -0.9156747367428875 0.6898835424425539
Ni 0.87194234796267 6.312587699889464 5.641088007004617 -0.8900765765588089 0.18492685198580408 1.167434587192841
Ni 0.43226578675695515 1.9276366349497507 2.3571701336694924 0.12007360295584482 0.7650854816966888 -0.044105732069962746
Ni 7.534980327842602 4.849644210399194 0.4776659451144284 -0.1699278074738106 -0.457253985064148 -1.5568883247835639
Ni 6.340142602003888 8.874581059131225 1.5469966139394082 0.30190458962514455 -0.6354077799921767 -0.7411258855572977
Ni 5.245315527962086 9.124236453835838 12.463966693235465 0.3471750314271698 0.5648950186835949 0.05045404288549375
Ni 3.0622415164898418 8.676183907733435 13.07151562542323 -1.4346441965389616 -0.3355873265895704 -0.9487355238525983
Ni 7.956183317927144 4.97400786426692 10.27482392107187 0.4136953837469069 0.7257087796712792 0.04563373867871496
Ni 3.0377678631130363 6.2210040777725455 4.556649938495616 0.22922181724843746 0.8982367437720982 0.4358765478296364
Ni 0.16504913042185543 6.464237110650557 8.318978082694438 0.10162799465614757 0.06239758840061513 -0.8851616557556949
Ni 4.1639364341034435 0.550601515759973 1.1873610572151434 0.09912245462547445 0.9799011508221254 -0.5597157884755005
Ni 1.9797951226166626 2.241961129665582 11.86683646536352 -1.1942028564256209 -0.02584344342566517 -0.2007987860210542
Ni 8.515624862068385 0.24586601560952484 0.586069287373473 -2.189446808252404 3.2040151714394107 -0.8992417879978449
Ni 1.7015453683921633 0.9095994767364235 0.5990615768547737 0.3478563737649106 1.885898512376249 -0.2618851118094135
Ni 2.763128367198578 0.6247630892917806 8.313625805143278 -0.3120056826148884 0.1894561073147253 -0.2288487501797349
Ni 2.749169939182379 2.755842884490655 2.126889482533107 0.3934734002730772 -0.7857116425874727 0.21473262249332695
Ni 4.437944830878871 8.265338368224743 2.9708722824627984 -0.061920134543564334 -0.05637477924530291 0.6269231395599332
Ni 6.581862853122166 8.456375789957077 6.561165585622881 -1.465698751851921 -0.11145449382826611 -0.08906327061725952
Ni 3.183774505101623 1.702928217976215 4.558158079820505 -1.698541196572081 0.3924948384098918 1.7878188971929918
Ni 0.7241110869927104 8.149735855345908 0.7841954373762668 2.7995497909312044 -1.5519533493757918 1.3302111283338511
Ni 3.9060581888520534 4.081791456462903 10.682125096445333 -1.060211100726787 -0.36794825941877923 1.2222229957876307
P 6.939445481470644 5.075716915217398 8.418857874228696 0.006209214134505435 -0.6246924504572016 -0.16648818566464232
Ni 0.8307946840978976 0.8247129301889782 4.455453191552116 -1.0502614457132429 0.46842774229278034 1.0325424311669251
P 0.5320833964642809 8.597686311881702 9.066627311399039 0.23447972321326718 -1.3767966894028738 -0.5620734900743998
Ni 2.649038636079477 6.7670626078184695 7.190013185665944 -0.012434626218926973 -0.9576577660428927 0.5978403632613639
P 8.140278649130146 3.659845996803031 11.903185919597723 0.49223692889723614 0.5007156557922086 1.26267493315509
P 1.3271179615533923 3.1421219619256266 4.500631537123959 0.6017391840951378 -1.3207399556186221 0.33240430087589845
P 3.1533796568615635 5.871124571268112 12.04684450155433 0.1131236540005729 -0.6149554256750956 -0.3441352161595815
Ni 3.036375732659293 3.9479613155097235 13.23686731219703 -3.393355322001562 -0.08246787678792894 -0.09447055767575988
Ni 2.5407308867782556 9.329687066199261 10.595938300054092 -0.130885091749052 -0.6109079950785995 0.47259010120058614
Ni 8.025975458008137 2.25333947590751 8.82266758642417 -1.582203920730217 0.06230374313522819 -0.03675854767627218
Ni 6.900809220944424 3.6288200494239407 6.67791614208257 -1.782062454325189 1.7933840499855953 0.4421564673010772
Ni 6.882739367654837 0.90382120726642 10.531456673610645 -1.0212560596198283 -2.2099161318503486 -2.241532473204049
Ni 0.5920378146721548 4.691145517805685 12.566345822977679 0.09270009603889841 0.06264107186998889 -0.8454828491088342
Ni 8.265867377797164 3.8983550670080076 2.500177198573747 -0.3953796161568546 0.3534143274686623 -0.7017016181234045
Ni 9.042397744895121 3.3348485019418352 6.47227527189047 1.2640371036099394 -0.3977049218559215 -0.3712726958063219
Ni 4.835453760640704 5.748347946117654 3.018781059897917 1.6975490078621411 1.248076723625941 -1.085758610178588
Ni 8.725975773628985 7.348889609655902 10.490584651575714 1.719499029770671 -0.0038710529196320422 2.845574080180119
Ni 5.423239080820159 6.118886668555636 5.2160195346935145 0.8693660834843351 1.0311373232892822 -0.3898232051149996
Ni 4.932763679357355 1.7650450788222365 3.155594072369984 0.24721645405364517 0.06771000175246403 0.19692593332920924
Ni 7.5577648629355325 8.800742459864685 12.28154006240302 0.2017809474286654 -0.5133163752753547 -0.6613898058782351
Ni 8.423809218209177 2.634551198490856 4.317933904896517 -0.49468898998215455 -0.6654840305522668 1.0556551059249886
Ni 3.726510483797947 3.962717898319401 4.218407714497507 -0.40996959815588746 -0.4302350332731429 -2.074749639117124
Ni 6.5202100357607256 6.501713262465324 12.077380419013702 0.08226373119692285 0.3839888578214097 0.07615376164444303
Ni 5.76315093327579 3.318180059975683 9.335838426630866 0.35900184885876885 -0.08515056582641464 -0.9225485810445853
Ni 4.494873685567277 1.7370075714838484 7.247511885753415 1.330974745972753 0.6757131644794426 -0.46788961040112326
Ni 6.302397304968064 4.100139735843238 3.917791064316201 -0.5432537862647353 -0.9035679261770245 -0.2617408729220653
Ni 1.0003385397114053 4.223074135778455 1.329406624019346 0.6376595521408308 -0.10189281828176001 0.3738219445907368
Ni 8.774403351679863 2.786414069254856 0.3333809044536374 -0.5948743386545045 -1.1192590559288789 -1.2213151392613804
Ni 0.7798371409690815 1.3392851817191078 9.27916758011989 0.08241002696680001 0.7847132832299453 1.0260174855642137
Ni 6.23299496141412 2.8377372786495214 11.708888128342723 -0.5654084679849036 -0.07103700924316798 0.4739450725665837
Ni 4.694523754373436 1.2301235924062577 10.328003304404861 -1.6522711098609482 0.13487390119347095 -1.0006437826861154
Ni 2.207027936146319 2.8542850693096824 6.809689642312086 1.352749161535367 0.8388658580129489 -0.8807938657053024
P 1.1154770091056596 4.680277619396796 7.224827584053155 1.7770549738082686 2.5157966754041063 0.5068155980423594
Ni 4.116687526503399 2.1145069461905464 12.606389991436117 1.4314346884627283 -1.3198534392486108 0.6842615682700861
P 2.7076658899214485 2.442882677619492 9.840410541068275 0.29416119823429987 -0.4239777395095214 -0.9793599336066747
Ni 1.0788546973025217 5.088942154527958 3.6687918270987847 0.8966241478693397 -1.2286736365089808 -0.9178933416607612
P 2.807268183451929 7.423971845461119 1.840522679676316 0.9356378101283758 0.3339353928084442 -0.43777736439677506
P 6.742477584005365 6.429127580607154 1.514980397764222 -1.4889623503655518 1.3901569127598639 0.3454305379322374
P 4.197013453684382 7.803076810624467 6.18524303067679 -0.021303132353150407 -1.0639854801675548 -1.7336362405030015
Ni 8.156529451960175 5.288443729419051 4.491204957778179 -0.23482373681624716 0.824826092090431 0.7606102195341546
