# total energy = -340858.4479386437 ev
CRYSTAL
PRIMVEC
9.33839592784967 0.00000000000000 0.00000000000000
0.00000000000000 9.33839592784967 0.00000000000000
0.00000000000000 0.00000000000000 13.66768637993594
PRIMCOORD
 96 1
Ni 4.443806482121496 1.3841370576047949 11.315969464442365 1.0092094128679394 -1.1233789916345234 1.2534248753117316
Ni 2.3897048790859845 7.531500433084507 7.380714286441416 -0.01852274139453584 -0.025050515210724603 -1.223877500671918
Ni 6.795382690271033 6.276653468331813 11.178062833585596 0.26580552990974227 -0.6938078171976245 1.4224923916677759
Ni 2.044501731930278 7.232195502351196 11.742675330513583 -0.32731223106497176 -1.2905492909678549 0.2611052962205955
Ni -0.010988490592926475 3.490496324750119 6.835141845152008 -1.8336850635974868 0.9535339736825063 -0.09706145833138768
Ni 8.722752920963035 2.7201346837431704 0.7939214803176434 0.6234734904484359 0.3538064207007584 -1.5175041665589866
Ni 4.912407194242725 8.733744213074768 9.569581083913658 0.6543424121131505 1.298655207904441 0.26486861991776967
Ni 1.824545152151413 8.65050175098133 1.6919231196005309 -1.83037219717417 -0.7508048034079586 -1.1454025470934661
Ni 3.531809388728284 0.3447007414500048 7.827265177887862 1.6071050548472707 -0.5651834964582911 -0.5308075900815826
Ni 7.338961384010862 0.645663237476291 3.658975930326173 0.21673782584881382 -0.390291917221302 -0.4815457677319771
Ni 2.5228423910969924 7.3755678963965785 9.556897674443688 0.3446725767202903 0.3574396465779715 0.4979997995229423
Ni 7.098675116103501 7.404059342643725 9.298223170939718 0.9108806577883539 2.0869361538809863 -1.3211808998107828
Ni 7.613725010012116 0.9203773699786563 10.651064461973531 0.363928853846741 -1.4419253035814072 0.3117663129105727
Ni 2.7263820706783854 5.580504060470089 2.568198980550416 1.1903341174988338 -2.384845763414125 1.1662799047631076
Ni 7.714738439725454 0.662884173570806 13.034941248105453 -1.103019968362197 0.15424459241059887 0.3021442164397764
Ni 4.301153144569406 0.4545529629932109 1.9333486718219366 0.09254685829048577 -0.5893276978046624 0.44223899971255454
Ni 7.741903833738222 2.902681649078878 2.7815112915633535 -1.585345294572676 0.8213831278471531 1.4873379273882514
Ni 2.9490841388861795 7.752129377376578 3.397075944838012 2.503803764708288 -0.47731064660470696 0.07704619155172537
Ni 4.318419838804402 6.7748102038461 11.729949898261541 -0.14250699225869648 1.8513997072684307 -0.18156847703653248
Ni 3.536011666935828 3.1555187212327693 3.4496417760163776 -0.6366185124708262 -0.009721855273454226 0.36280810997873647
Ni 3.501095404229147 1.82360197415372 13.462070143516232 -1.1735000766606307 1.080473450520249 1.1889035556998944
Ni 0.6711113004615752 6.451384196201489 2.9213453673579823 1.4051677843463992 -0.6374309810697926 0.3816324417740911
Ni 0.9028006409959026 1.7993594980942 5.493931526357074 0.18669937050519458 -1.5961092179573995 -0.9121009033487001
Ni 3.6245676763628034 4.57470277908848 10.220941676799777 1.41244323496189 -0.20915461418491718 0.23403080860130662
P 1.59708050197507 9.18845873031907 11.03866579472455 -0.003017189559768997 0.8720238328221562 0.5192671935421509
P 8.012343782383715 7.472463093466524 12.581966474039076 0.6007513662605718 -0.8540392233192774 1.1303099144264017
P 6.134364328224375 8.838530354778879 11.563505129177539 -1.339702355653738 0.18755940451264475 0.10594410553299817
P 3.7690606779301965 1.9318059687999671 5.660622829095918 -0.013733547536008604 0.6030393909638001 0.6120336240426105
P 2.5422569164158455 5.122324998303569 12.028835535013696 0.45496081815459716 1.1363538066276364 0.5753357544009446
P 8.307427758117447 2.7692359699993165 4.961083583480109 -0.3496204076438688 -0.1767638565590375 -0.500640579579899
P 5.29051884896151 8.540514122695884 3.703205375380373 0.7389988119119659 0.1786353625501375 0.18217268627943461
P 6.36294958592273 4.582229526277993 9.802150101352764 -0.7809972678309388 0.5024609206180896 -0.7580779400306041
Ni 5.068143624614303 4.778998868747232 12.162505335597661 0.11567341700562013 -1.0713231514795485 -1.019381982525567
Ni 2.384223240624144 3.0622281450252946 11.581669243269745 -0.09808527161021172 -1.136906593807313 0.5565543600283834
Ni 2.0107807839137424 8.473632530423817 5.339500603748641 -1.2468819319868913 1.5669948170899464 0.753982944025624
Ni 4.861914486980082 3.407328569824817 7.226488808545352 -1.9637288903921661 -0.49615040501902946 -0.4150601253049175
Ni 2.79032206820517 5.275782860047055 8.211764295482114 2.8395235031106645 2.3527437406732576 -1.822684084501293
Ni 6.716781410997928 8.560152769519137 6.672304498449283 1.3062106516541958 -0.21352034735278067 1.0404087212888793
Ni 3.983582311227304 4.664052552176881 5.307203761124662 -0.632431470972672 0.4908845286343998 0.22670804968764827
Ni 8.414968726646505 2.4429430747775576 8.914639216155111 1.3200449864341264 -0.2976183035449649 1.878768329089371
Ni 5.535240854976833 7.094005918095119 2.1196253925267396 -1.1868366458685367 -0.5684804220420081 0.34988266016632
Ni 9.10403963032752 7.765007025483697 7.655681489475836 -0.40352589941307276 -3.6228216511606375 -1.4175782421956102
Ni 0.1744935326108498 5.722690478221342 11.49215978360946 -0.5035634096536489 -1.9294198326976515 0.40895915461350213
Ni 2.9894166712825836 8.744109832653377 13.104482415563092 0.1285235334954109 0.6259548621093929 0.974246266529193
Ni 5.4184735511832125 2.872518629944729 2.031032029515697 -0.324195539812861 0.24701179424200684 -0.45170271622861563
Ni 0.8415267555319041 5.639625445652223 7.074599797332682 -0.09439856678724388 0.1204222445445152 -0.36710056670650326
Ni 8.420216905207925 7.000407174819092 1.4921561520099103 -1.3225440987068966 0.651962084806432 -3.007169456528834
Ni 6.817608072790931 5.155597703311299 1.4328106453233735 0.4453775453415362 -0.7006322963186257 1.0090518042441525
Ni 1.7076377724175416 1.2887826958776154 8.52263669736139 -2.140778139402107 1.0468897010275326 0.5640717514513511
Ni 6.0982620892235655 7.15048453720451 13.500544335105301 -0.00181725571439687 -0.11535948530962714 -0.49021064249582674
Ni 2.3741564497180723 3.5289891931312214 1.3710054051260212 -1.0863471356922065 -0.7901293120391941 0.027087086024779158
Ni 5.901866282594997 6.430606265064188 5.341782907735138 0.24372772417409638 0.5568047854762926 -0.5621632215747286
Ni 6.322962574178946 3.8947928418999105 5.052109598653519 0.26890730876351754 0.5448769236904552 -0.6583353353226274
Ni 8.771882222407234 9.133866467205065 5.32126738552591 0.03652869105365322 -0.3987847851836616 -0.487828001196263
Ni 5.013859528568853 6.45850939236228 9.499329264519142 -1.0523869766966778 -0.9433475200678076 0.1495628706642134
Ni 6.518732708274392 2.77560475608275 11.048875463089677 0.9848988611470328 1.9017300800918668 3.062676745567519
P 0.8250799724671789 5.961650693894322 9.35590084009766 0.7292728428734537 0.25342232575404094 -0.23479262646799565
P 3.073210098741009 2.022267011014362 9.952221860700572 0.9539538348287442 0.32110893046773725 -2.207065549775431
P 2.7754646801424983 6.466250922660177 5.135113931648528 -1.2450636478312298 -0.9022484360346525 0.24048196354328907
P 0.09211580598856578 8.45694481674186 3.2130544467712574 -1.0087872377288563 0.8962981319884887 0.7096237011839586
P 6.844745451615648 1.367570743071055 1.4005829068299185 0.11822138023845447 -0.929926104455579 -0.24825363706890793
P 8.823542229171974 2.8880763977086588 10.964805619109157 0.2119604590648285 0.17379706062122974 1.2241317827745692
P 0.6298664067743326 0.1902539435683428 7.067082388539186 1.1109096555229188 0.10055430197599456 -1.0858830515715943
P 7.839732870409844 5.844649930200283 6.532552600539602 -0.21900091085137768 0.7855915720698405 -2.397628774111406
Ni 3.007402422010872 0.7086339094965356 4.021976192610628 -1.4391742231988311 1.0692143326666619 -0.6848650061820398
Ni 4.402820262003917 4.708064412603891 0.7485125958465255 -0.6512727720488912 1.569093608600504 1.2649822411320277
Ni 8.776756865127984 0.3533527653595369 1.5161156746701223 0.08913397595419488 -0.7835079500679345 0.024844826957821725
Ni 5.948287449194331 1.760698538584796 6.045121946690169 1.9957226696899435 -1.0855593496835885 1.3507223609133254
Ni 5.227512691036401 0.36145289006447817 13.54094597163223 2.0981153104262575 -0.598356126555518 -1.433011288921229
Ni 5.186096904702051 1.4615616989797875 4.021142273846332 0.3970444054537871 -0.039253289073667874 -1.763012122561957
Ni 1.2219571339816504 6.557029470339142 0.12405031884709443 0.31361930695891144 -1.1207724072496117 1.0956907816906356
Ni 1.0153171069226916 3.9941160219342144 13.098714088343536 -1.367695241322238 0.26134055215985313 1.033817955445239
Ni 1.2640359464331903 4.022392685072976 4.472477225572166 0.7785634615784656 0.4358120131402881 0.4158561388436516
Ni 0.5718730998310233 1.5711197610484653 12.383293032622017 0.5142365730967788 0.5286244663873347 -0.22781182427478833
Ni 7.524776787952437 7.229655458634637 3.5989888758332844 -0.3852021614032205 0.8879461604793676 1.0380322506369026
Ni 8.488611317634707 4.9036851323630675 3.8919147482475434 -0.7590644723135895 0.040282501669130624 0.15632487197839529
Ni 8.766979564498433 0.08783508525448105 8.907655029774173 -0.6392230399732088 1.3861953570089545 0.5834552981842855
Ni 0.29396430205132307 8.6842413757899 13.15374058687232 1.3263758137481607 -0.4872754711269027 -0.04036786229408532
Ni 7.232569038191867 3.228853145152419 7.35779412725787 -3.0608540905364836 1.4277893784006572 -1.1509733563130242
Ni 8.19165966269762 5.429119322642324 8.4986902484556 -0.6310001378427842 -1.2629284439267927 1.8700456045043923
Ni 1.7759948312602558 3.6890586392545774 9.074346332513015 -2.8403205450906635 -2.5225442785405843 0.7266184359697422
Ni 4.7264143607768325 9.031956551474117 5.801686771645955 -1.6535708025089781 0.32886029227838204 -2.4131327832842766
Ni 5.322811022387481 2.5105063699588466 9.33128482819747 -1.4510318938683653 -0.8683540972800529 -2.3853543276194276
Ni 5.439214128736446 5.531963077974949 7.48506712657035 0.8990885502494321 0.17483964295313115 -0.493838211946085
Ni 0.48131026910004543 1.9034452600970542 2.9138410323189112 1.778167747256473 0.08538864997914973 0.992747153546858
Ni 7.210287625295868 4.186543010255659 12.937367149645087 1.4529221689125429 0.25724607037550534 -0.19573294146237258
Ni 0.2787249735915655 6.895835816223365 5.170389722601854 -0.7813482234124544 -0.9159189915432098 0.2657965310486777
Ni 9.246646275899527 7.810466337293304 10.794356545813168 -0.7953368243820625 1.4416813058914009 -1.6789000253023858
P 5.068563852435057 4.860140191736896 3.267519707699433 0.27296528088297506 -0.06585109416685433 -0.36440476504189495
P 5.441072469543782 3.117763586136992 13.44256596959562 -0.45508500243728717 -1.2365116444961608 -0.35014568401971957
P 3.2656744406465203 6.947747959680559 1.1124046749505825 0.8112398687655641 1.1592764768620807 -0.9696463058633364
P 9.229052737803944 4.763310363439068 1.689380274365166 -0.5597813516061133 -0.28156870628126995 -0.5708792612914877
P 6.628720336559841 1.0254679433929144 8.043761881942515 0.5527365289441901 0.17183093803379437 0.6189792021225081
P 1.9199928978387604 3.1900427713067465 6.760379580481395 3.7490926411764463 0.912534648452009 0.6141774098584907
P 4.604566969550093 7.600203012579842 7.270511875047582 0.23873592738645982 -1.2431836571996977 2.241295931713211
P 2.317491062688347 1.2929009285210082 1.7926806772630102 0.47493186195988535 2.6310006089724753 0.015953180895146718
