# total energy = -340869.560648759 ev
CRYSTAL
PRIMVEC
9.25542988161490 0.00000000000000 0.00000000000000
0.00000000000000 9.25542988161490 0.00000000000000
0.00000000000000 0.00000000000000 13.54625718493304
PRIMCOORD
 96 1
Ni 3.851193689459565 6.022878535449126 3.319686737042364 0.027052633242417926 0.2284240039374905 -0.9326116217075422
Ni 5.678567283033042 4.172060937618507 6.651984923038846 0.023795302647384824 0.40660839499313844 0.8869344313854015
Ni 0.044674109651943704 4.4909382683217505 0.9086000124441705 0.0868814324745923 0.8919560529697089 2.359788049114549
Ni 4.176494288601204 2.7630790583932763 8.08727813874343 0.41566613432003247 -0.12688702633325247 0.21930738634820293
Ni 5.852532345811267 5.040146230664646 4.234167649725377 -0.42559007830196377 0.6986803147985774 -0.12738453479496126
Ni 7.607260069106691 9.029329126389403 7.010025680356251 0.8489227280283186 -0.1557905967414801 0.5397833112176317
Ni 2.826682373535432 5.634511436106869 10.97523238459734 0.8269395388890082 0.27145861443046154 -2.1605650922210464
Ni 4.419726989697807 5.886610839168866 0.938476540569735 2.2921346116316332 0.6376559525964051 -0.7871985115456442
Ni 6.422213319372795 2.7901326803607556 4.998460699368262 1.1184627852798286 1.199917647422211 -1.0080804414698188
Ni 2.2981232755816734 8.85469767264927 9.29985794172018 -1.1484945557552286 0.22073614837492955 0.3613603217886163
Ni 3.4248885824386552 2.5541654918349614 10.565457475603774 -0.05663394644396053 -0.46411111719529746 0.2899474172632684
Ni 8.228567831356076 6.47156327227413 1.7141435881721943 -0.19759082060671776 0.35197450969834215 0.47966140622507075
Ni 7.993285544652243 4.539149803329826 3.7058491929523076 1.2753000781182682 -0.5047494595419502 -1.129116408338933
Ni 0.833472761376011 5.06700548860157 12.415212550067348 0.45707915004918054 1.713176429986753 -1.5398640223114255
Ni 0.0329271178623011 6.7933560634357235 6.968086550277141 -0.18063079571361149 0.9892699936315349 0.08979166414285181
Ni 0.8431428346677055 6.569374656794256 3.190252324750672 0.7198710899435795 -0.7368897359887633 -0.856955368524808
Ni 0.6284520286868451 2.8523106592788294 13.025579468482402 1.2339006892358748 -2.2581176312562397 -0.8701947500332173
Ni 8.247800614951156 5.7816912843883825 10.110086616127623 -0.18845877639846254 -0.3536688666816296 -0.44259921126545065
Ni 3.9030518638980833 9.09247892546026 0.14707341083620853 0.0982354240348308 -1.3925837770338014 0.7846109533241261
Ni 2.2673767370336173 2.502816366047901 6.5349046587465365 -1.2768926194163688 0.1887667945571846 -0.012064387363701804
Ni 4.909311471809945 3.495239106070134 0.6271155445910175 0.9462436106686801 -0.5002538856644416 0.2534110129001313
Ni 8.321621924842576 -0.47482299676286177 0.6450581212404038 -1.4869077818293683 -1.0804248566705004 -3.0995970156326362
Ni 0.4330162193331299 8.752397404566288 4.511255788315939 1.9854853082326513 1.329101183099124 1.061792586281294
Ni 1.5426117779479385 4.140333323487641 9.957881069341715 -1.6014766529169 -1.9602247338936498 0.27290280307615583
P 5.517300670251185 2.3191423571718706 12.220606952787014 0.5908780730109178 0.7723709596145085 0.20247771638537385
P 2.728732157564909 4.192330329376557 13.030741221808183 -0.08512202658132438 -0.05194862515314924 1.2682202884533513
P 2.2261900734156614 0.38851888839469245 12.439609863617223 -1.3405091678257492 -0.5659239741687414 0.2846036364528518
P 2.523761404197886 -0.24075224584949856 5.576966725460065 -1.6604981257564309 1.4472063494746883 -0.9571427740796871
P 9.0078195070078 2.5053153321550576 1.9988045196104443 0.3961797434606467 -0.355003269222337 -0.4463080275756056
P 3.6168924783385417 7.181269646706682 9.085122709675192 -0.011011006398522972 0.5605567963195571 0.25702906926869284
P 6.293572097434375 0.9922191205616501 8.399817350964524 0.37762409194564645 0.36164571423951913 0.22337615710093786
P 4.613776335633551 4.104144592083999 9.806975910474533 0.38900122343433646 0.5539007244556202 -0.2477121627431411
Ni 0.6341431926101443 4.000132069446114 7.695804917084278 -0.3350548511248681 0.03214316039144787 0.3949394432956424
Ni 7.84006190056342 0.9644158087620233 4.529787010315011 -0.6549749034908268 -0.8627994860104109 -0.22704229309861543
Ni 1.2169779833253447 6.322300952236653 9.028200889469172 1.7212381239489647 -0.583176333491286 -1.0652206381262366
Ni 4.674760364078205 4.803882868378004 12.232812088362968 -0.77752447879099 0.6737498701054848 0.12201195762913825
Ni 7.890633570228254 2.810994419640503 7.318798858099557 -0.240617717790205 -1.9933667678632574 -1.4072460070316668
Ni 6.917267760630598 6.92606041915578 8.000988839063304 0.5472971030961735 -1.0470305974807708 0.7503489468174626
Ni 6.722598300883078 4.427168355439118 11.483202778457136 0.6833012612393458 -1.5217876244256887 -1.7068854547717185
Ni 6.705882994255207 7.795034233484463 5.067112851589878 0.4280801917136692 0.2516621485298246 -0.5230127766275121
Ni 6.948541858690166 8.841323576260969 9.863843123643395 1.3274626190544365 -1.0372917729264524 -0.4689974987533213
Ni 1.3079588604859078 7.912096912459723 0.9528604043739294 -0.6658061897783759 -0.4905040053665294 0.35934329135858756
Ni 6.06592554050241 8.214110849654672 0.5761819876121472 -0.4862981948152979 -1.8914796060084522 -1.5901833393912679
Ni 7.631490784916086 3.052801784513023 0.18877375082063558 -1.4856227444693575 -0.0419586038199729 0.8688711461257874
Ni 3.8692140117211733 5.345843829010144 7.81667805660145 0.04946905326440513 0.6193563829562688 1.5964064374828442
Ni 4.697019673291955 0.5211057001534123 9.857557761112394 0.22873202209621252 0.7784680736511819 -1.0456218900587024
Ni 3.671916009846125 4.551385481824868 5.605766847073546 -1.358201957119822 -0.14908001749052388 -1.5898593803929457
Ni 4.170246873333312 8.086978262810572 4.665575275319901 2.30101751594356 1.5734989367570513 -0.7419406681491094
Ni 1.442866008552273 2.3258525439410884 3.8609137420734023 -1.0042993771608317 0.007985846418953989 0.22225309924008824
Ni 3.4672599411000036 1.9818282098558253 13.041144325157978 -0.5012167637983432 2.0781506943788726 -0.3825469831685605
Ni 2.3020383224828858 3.083363214460549 1.640682314508806 0.2647161535003054 0.41846837965551803 0.02886680363302125
Ni 5.3232976014655735 0.9019610924861571 4.047797534082625 0.09793871873001843 -0.6086963321392614 -0.27876954626957795
Ni 6.618308115344398 2.7615241461488234 2.592293235829157 0.8697941721606892 -0.13946794832205658 0.14932581495274283
Ni 2.6801966825059065 6.689611948268608 12.899708396750913 0.32410966496727406 0.7247574715016035 1.3677240376776445
Ni 2.6234146192932863 7.438931563214609 6.989665585383941 0.6959536598960336 1.648385915873929 3.5942574663697
Ni 0.036184103688628885 9.517543804857617 12.28766069224305 -0.5457187028654602 -1.3628435696568915 0.5956906639082128
P 7.2258252868542865 4.603151101963121 8.092859163049415 0.67085326528398 2.084685667283913 0.7992233039206622
P 8.916042662864959 2.6528376313475523 5.222461542412785 -0.5955122293488195 0.9091981278796084 0.7195491878277865
P 1.6210515474225846 1.9837996164514713 8.77595617615576 0.5492639970145573 0.45905375727704817 -1.229354207515773
P 4.338556868365341 1.5783747595703612 2.323955180785654 -0.5739800117039986 0.6023325947047627 -1.9211925596918527
P 8.991150477530063 7.836859521774249 9.480890450866646 -2.2697403030968335 1.1291588315410939 -2.1162575285529233
P 1.8483463980135422 5.563799950704356 6.889802272026939 0.06940101630164176 -2.1383703012915625 -0.016039827071682056
P 8.79349151388398 3.797086445524605 11.232570361054341 0.4459447306989159 -0.18064133723657277 -0.5661684860793798
P 5.096382223505703 7.269982943510752 12.320917303414294 -0.42262508213636896 -0.9160627162099255 0.24630782619644678
Ni 2.2991321174545627 5.481796840669505 1.5460483191167804 -1.443238880186508 -0.11125214800947292 -0.4528918514407103
Ni 8.865998552711636 1.2118504750906598 9.208908533021706 -0.9826887408695915 -0.5914897384529878 -0.4532212097556711
Ni 7.196966856031638 7.513919057289368 11.983168150887003 1.8542361482759615 -0.6795981013561456 -0.6272280723948617
Ni 3.4072292219480795 0.513730047965289 7.501117872019707 0.3475887219258207 1.2865100879014748 -0.6224900434892441
Ni 2.5158480115252226 6.73944318353132 4.932923924893569 -3.1575818196775365 -1.9217222069430775 -0.4131140573221402
Ni 7.7322453961846405 1.9736186434223137 11.680490599359155 0.13177675032538597 -0.14860487762631824 -1.0282857127731
Ni 1.290577162896128 1.3915168827652127 10.859601520647184 0.5687213344082205 1.667209733448651 -1.0400708783334862
Ni 6.101346071213852 0.23652436541339017 11.973699845969886 -1.384876381087215 0.6243857178500601 0.5736966761356249
Ni 2.70877745042776 9.57622323122567 3.1340487259147087 0.07319802145022877 -1.0364649061497826 0.44623912201088306
Ni 1.6441808670588256 0.9899978173552885 1.0140276903331085 -0.5411400823558422 -0.2974522102807458 -0.6503430611457702
Ni -0.17315613819390774 0.229638325473669 2.419699827780861 1.2035588437192237 1.9256338832926578 2.685602355477755
Ni 5.980220258456956 6.993995275550342 2.4792085406792896 -0.46078873769028383 -1.5019564486323744 1.9016321210614218
Ni 0.6780870488329966 4.670678719436516 5.251870671322012 0.5770830761093545 -0.1557826263216801 -0.700914860556051
Ni 3.5039577211551034 8.38509566396436 11.27338495638523 0.4605012883568521 -1.1983513313763556 0.2056406874943878
Ni 7.558382143136708 5.48673924030366 5.894328942267969 0.13613528440439782 0.03549690735502919 0.5787794899751709
Ni 7.009664718585217 5.593907864580584 13.365739660531597 -0.3389143340802744 0.08874291116336329 1.3281146508161383
Ni 4.990768511473232 8.151035094024026 7.215874774032789 0.9016439696814343 -1.0563349056008324 0.15045350079928282
Ni 1.0191894436588913 7.449964035806206 10.98849356473932 0.6314806770236285 0.18635792800537582 3.1719733125125176
Ni 0.9812699468402925 0.0758649088412721 7.269802462625234 -0.7200394972006439 0.3210724208028471 -0.24945357091428005
Ni 5.258768743320767 6.1433009355240085 10.126707517369223 0.41395352250429995 0.9381184104583844 0.3867453375206243
Ni 5.8174172442906995 1.1140390905705344 6.352584719283383 -0.6229093904148498 -0.8567211410268148 0.8222621880179968
Ni 4.401660390286065 3.6663072192500623 2.9594376341206345 -0.8984491168932205 0.010540751630323782 0.7740622312740024
Ni 6.581712145019589 2.936063045588691 9.449923633083959 -0.2953922424279235 -0.12755088516949645 0.0821734854759617
Ni 6.096098242388823 1.149903881923249 0.9472840077829588 -0.6866966600741399 0.8110881736790483 -0.2523041529891977
P 8.901446849713157 6.926939685008298 4.802595438061317 -2.344298181009066 -1.9589852050595937 1.0692775818044293
P 2.136828896509737 4.447437747197168 3.558777633202104 0.915731815233068 0.6078254994985338 -0.7779795640505375
P 9.130305867978594 6.830340761821645 13.251490632284394 -0.9668448318587992 0.41936595176912295 -0.41478373171507926
P 3.241196062702572 7.664088409469444 1.735126573585288 1.0647028179495532 -0.637128105117393 1.2022267551713617
P 5.077899129742768 6.433921438356326 5.726829722906262 0.29855572775756967 -0.9515220854587999 0.6495920419123586
P 4.171181671765989 2.309211280753429 5.669975467339436 0.8879443607071548 0.7245062747227458 -0.2305752459525384
P 6.4973859220480845 4.7534592855935935 1.8250467784648134 -0.07401743202773059 1.0982937665311214 0.35748361244202953
P 6.944867452969643 8.848857496302545 2.476391187779221 0.6438476832294137 1.1424398649207166 1.3713163830145931
