# total energy = -340866.8853412818 ev
CRYSTAL
PRIMVEC
9.26594195720529 0.00000000000000 0.00000000000000

0.00000000000000 9.26594195720529 0.00000000000000

0.00000000000000 0.00000000000000 13.56164267013336

PRIMCOORD
 96 1
Ni 0.5857150276553844 4.420808788884743 7.68694219902135 -0.30560723528771233 0.43115831641836067 -0.974008182376458
Ni 4.311007374623496 0.5027644605035241 6.717827503997869 -1.4853802894412484 -2.224487601906621 1.3771707849128412
Ni 4.435587966584886 7.368749746217024 5.330593656438623 1.0355650200433326 0.9617861863889694 -0.23382126369366182
Ni 2.685779656598653 0.199614338155883 11.949637877964108 -0.22627661857718448 0.12254957530016315 -1.3828164132343925
Ni 1.4493138066535514 8.533487938120242 0.09847380000518255 -1.003929652526239 0.3809714111513245 0.6873270945692872
Ni 3.0700475427444944 1.9543539825446334 3.5025520704398043 1.7141917586251445 -0.38779589027232564 0.9361324903766071
Ni 0.9745917934175582 3.6689980421408714 11.662294526299021 -0.32110481670267926 -0.26937833486266505 1.0921570575057642
Ni 7.7307423074781365 4.929370022785891 2.993149488993094 -1.413562436167998 1.6306033950795271 0.31883067595652187
Ni 1.8994810732404048 9.063759274436082 7.319367834220071 -0.23499394384552433 -0.8621202005551992 0.625141107958846
Ni 0.13937088879209142 2.2883356007414624 5.005304418555589 0.2755047594753771 -0.4711695667039757 -1.015982984146347
Ni 8.09137277524588 0.3672871205951943 3.7355414055600407 -2.15144976018334 1.760132487021317 -2.107968034850621
Ni 2.974497147481879 0.04471373035097708 1.927922882613814 0.8659951101295731 1.1305084035904531 0.8397647156781344
Ni 6.273700705086704 1.9774817741054835 0.22511421090246142 -0.9609071262181257 -0.8952174973298003 0.08902830361426603
Ni 1.0965593896977952 0.46630483140351064 3.4467868509082877 0.8627452357337078 0.5313539495033559 -0.07597044198904336
Ni 4.345096775726207 5.923262773663886 8.719173712063679 0.5162947411773882 -0.6618891141121569 -1.427418882435116
Ni 7.817545653368379 2.9475517877627477 12.191659653474376 0.3571398559493656 -0.6112437811514634 -1.0618149548787972
Ni 5.619840232617571 5.724647304069806 12.056232349653557 1.6252902103967297 1.161235914581297 0.1414937205028337
Ni 6.5808296229857195 2.2745756766758123 9.331020549719026 2.1360809910367533 1.377068455007022 -0.5598078339686746
Ni 6.097101113997665 4.397542008191917 4.8723724329508515 0.32947324327203253 -1.2823785822316043 -1.4860431198362278
Ni 1.7324809981998586 4.388016619680477 5.3041755288267876 0.1674631479834019 -1.4750375127543436 0.3628749586609299
Ni 7.637554727459118 7.42037957577514 3.08135477192787 1.082501536693871 -0.11168794999531088 -0.5905242892159249
Ni 0.6130217591176542 5.326600961974051 1.9749957218315348 0.4570297848684839 -1.0241963731950747 1.2157998658701061
Ni 5.570601016129448 0.5217791003520901 8.86633077202908 -0.9198782333012738 -2.323818315888159 -0.521198863347225
Ni 7.062454763109867 4.127050625481845 0.5162547456531402 0.06808358304179887 0.44673225959721774 -0.19189248467035983
P 2.94634721528562 7.208856648791531 1.3721803979720042 0.9298507711329534 0.027200471674191862 -0.8308147055736982
P 5.718754164874012 7.114195783973564 9.90964157207834 1.0995078414438806 0.7187112653075235 -0.6772607114722207
P 6.361439911132254 6.289832710338082 4.347361371983206 -0.5775067939103344 1.7874242328577343 -0.527209331207363
P 3.727827508735358 4.1264483392432805 10.187695816756348 0.032274800873305705 1.311758063834986 0.6830968585380236
P 8.957858821812302 3.339760586315499 3.001747356697145 1.3137146733407246 -1.8624058285709473 1.5638161622516487
P 6.781622588980761 7.480756454705629 13.009453174138445 0.20861442541073105 -0.036478297431692015 -0.11785319826575832
P 2.059151788054736 1.4916776940799163 10.44729323130212 -0.30140939515628085 0.8133234907674703 -0.5786517061480551
P -0.01190302926244719 6.345743405161067 8.44791325615667 0.03393264819170285 1.4420559156220003 -1.1875488414442128
Ni 0.01810379773701488 8.96616110596235 5.364565380076261 1.1341303166137564 -1.2901564264048102 2.8992715697035747
Ni 1.3107138442468216 6.130023006391775 13.435315874513716 1.4064741618626486 -0.8411091455211707 -1.603296222624142
Ni 4.787953213971109 3.50525031278857 8.37472157925797 -0.15512031014733282 0.22850036570138066 -0.6887509715000074
Ni 8.586831966972733 4.500004796284818 5.304799126732254 -0.20853600676431183 0.3867178267167985 -0.1714660984952079
Ni 3.111707218568846 3.7736012628662072 12.772897377891699 -2.177875044254404 0.22983142580797838 -1.2028862431322316
Ni 1.8764552070430038 3.543481590024174 9.44781311731868 0.12708371572509083 -0.4820705298871955 -0.16735181921651823
Ni 7.06204706165607 2.6181104812104765 2.3348265387933096 -1.2158461457270093 -1.0122248026554954 2.0484678226024595
Ni 5.927089607764299 7.7346062053470765 7.541019362547898 -1.9891005363877354 -1.0409537951590717 -0.15924590227993218
Ni 0.89123908437718 8.949232229687642 9.902928397003889 -0.02058785145368067 -0.826005457110513 -0.48208132852047303
Ni 8.153139545496133 5.481861088333669 12.288801011001013 -0.3438919898005239 -0.6645514914356684 -0.8457147626139823
Ni 5.626678497910803 3.7276607217769864 10.995521963469294 0.6392394950334409 -0.4777230515517773 -0.06023426220070916
Ni 9.043837498852817 7.609108285114642 12.014327126362716 0.5819321766715397 1.0480577531937048 -0.8279083305601806
Ni 6.619283282832486 5.300387611683328 8.347340720258646 0.7906108796613028 0.6648001171113647 1.4665317892761776
Ni 8.084321393283618 6.464523517347982 6.673494603868507 -0.42945007547800235 -0.026460765294689916 -0.16709548023133802
Ni 4.635482136193148 2.677458840564341 5.892981674777324 -1.065427869041036 -0.4287821028767002 -0.25710131726752494
Ni 5.007454117130155 8.850642605405811 11.164704167881867 1.2564081263097717 0.9545919826333753 0.22500032296792216
Ni 5.291242126799291 0.552182509674791 4.235884675384538 -0.36809609785055314 0.06125961814142998 -0.7458544013812186
Ni 5.3881916793238 4.5434991286512565 2.2777047853337047 0.07276941855324241 -1.0691438844400425 2.600888105857811
Ni 3.2004378804224927 5.221932879653793 2.103790464274446 -0.8957661707444186 -0.41097952747764055 -1.6285562827425113
Ni 3.31272256717505 1.6742352859596723 8.684266128270732 -0.2407745550830434 -0.011628585377863843 -1.0030171680142985
Ni 9.209216034020308 1.8825336650814322 9.882315382137596 -0.5539488040847363 1.8113681452678416 -0.9779031465554899
Ni 2.558280292865761 1.390447276290538 5.752130088432579 -2.1980173235302343 1.2070750844025988 -0.997799628369101
Ni 0.49256265821646633 1.4148259700391745 12.22864188171062 0.8751690633193573 -0.8884115301515603 -0.06389885553648995
Ni 7.930793998102637 8.48807555573253 8.118718423665104 1.9049395881680997 1.0712339341998518 0.3192533653162372
P 0.713396930448272 6.424161073422075 4.218810323818361 -0.6282007207207762 -0.6161440466665582 -0.628584586422756
P 6.242270629375806 1.548199941083597 11.334970487523856 0.05713068357472096 -1.3701380464357757 0.39624273548809824
P 0.0952844627234339 4.25970185303999 0.10319479752130961 0.08294738752750877 0.7223488620601108 -0.6246595403367371
P 3.781773823826412 3.9282961667557883 4.022763373383202 0.6729219748875508 0.11944496823291041 -0.044818441866271194
P 3.141432360927503 8.954217306554524 4.333839582630342 -0.2247406415486323 0.5152850689659514 -0.22412049146613014
P 6.267177481825953 0.5572074300928396 6.512545189039995 2.403803278353234 -0.2093255925451427 0.4677122042829945
P 4.774777044259759 4.414007587360038 0.24473206358380442 3.017447184305758 0.22068909718707796 -0.222346687395159
P 0.17163767907748753 0.9403912010092657 7.767132442012161 0.557305379261795 -2.107143996287429 0.5010892370815435
Ni 1.243906401476898 6.62497257130138 6.205604369766254 0.7340491812161746 0.41905484828660733 1.6059308320335117
Ni 8.803951523003919 2.2846940854836846 0.7877107129391273 0.47898006388733 -0.9468491054631629 0.19619291181792664
Ni 4.957501423097887 7.539419134341744 2.6799430396498636 -0.4808366574800945 -0.062480635032724656 0.558251031004516
Ni 3.2920317183948504 8.620328347779012 9.363487484354467 0.6793062811473397 1.4022593524503528 -1.0611274418934693
Ni 3.941972697342253 2.8534932091833443 1.3036643154729854 -1.6533620289322817 -1.470127734157552 0.12561227338588687
Ni 6.913754923779528 8.14471680409837 5.256655144604103 0.2803849703858139 0.438242991179284 0.5403512679059598
Ni 3.7939678036717956 6.865192121067022 10.744102669449004 0.45644228779613 -1.7213880192632676 2.7403799654392675
Ni 6.604263190636917 8.896258838520422 1.2536041365119883 -0.81425860098723 -0.35774329386131937 1.5116258534013387
Ni 4.431492420162652 4.937023690986717 6.216901406413284 -2.2560352948059146 1.5785375276222233 1.5227268484105065
Ni 8.593318126464958 6.922131335466632 0.6719614904235084 -0.5290528121740049 1.551582082079302 1.1396468755566114
Ni 3.9892197362720503 8.620921368075443 13.486877136100057 2.162139378686702 -0.7424767431582375 0.8411037462045322
Ni 4.418770281615758 2.0224586572130026 12.34772684339367 -0.4250869134133002 -1.5807386490386002 -0.252690589794339
Ni 2.182157169853729 6.606820590665281 9.019102992926323 -2.5437826190940704 -0.33153166846295806 -0.9211771546183555
Ni 1.1482818786772286 7.589177243589246 2.386930784588571 -1.131161720903736 0.24718097283001944 0.5677692549075963
Ni 7.847585837759515 6.794094547090098 10.027180048019602 -1.0925064704253828 0.5341001447899253 0.16366228618007297
Ni 6.800710429772168 2.2675428265978135 5.297598563101671 2.3134398008673123 -1.1255695715279388 -0.6060635225021046
Ni 7.913605675448239 0.11657296477113155 10.603360421221414 -1.7081067287733291 -0.40006005235165937 -0.27812985580305005
Ni 6.517635897647179 6.1447373224969954 1.3254670773089956 -0.5986816282157367 2.8194951237048795 -1.3811842769476084
Ni 3.0279801654663454 5.912727397460085 4.209045873999922 -0.6280549391715312 1.6134705920539825 0.49953911898560416
Ni 1.5845502320664555 2.895643979940679 2.1353752812189453 -0.6878546849379831 1.2388629183371567 0.5957803954085417
Ni 3.7505753966688067 6.047148419965396 13.22856861410481 -1.9551429484953686 2.4622537091806436 -0.06047903122166359
Ni 8.407387731649244 2.536477531029751 7.146918458611842 -1.2880890023528202 1.4054719458503797 0.14891315289535645
Ni 0.4648018955897407 5.386069778575629 10.235079991629695 -0.3092803132639254 -0.29722723875413326 0.5314315968188268
Ni 7.7669906730975455 0.30075765608922295 12.999201335763878 0.6690030994491188 -0.26488996007400833 -0.8028657857692559
P 2.539961525271289 3.5143494679619494 7.183792275325145 1.190386568003324 -0.6287658491956268 0.057666244363216816
P 8.967245221191764 9.309214081506163 1.5181171333586545 -0.5406140346490431 -0.5486330482987777 0.5837216644717946
P 5.035724506574128 1.205767783662611 1.9335788136910348 1.0851307467866023 -1.8726599021987878 1.0627351527002213
P 1.846544745841712 7.317397894922861 11.191759792312366 -1.8445302338421072 0.14647677553972194 0.8917164261550772
P 7.793898969048151 3.8271491424455957 10.20040312979583 1.5253524589588117 1.8487175324505776 0.10745000065456332
P 6.573565124354427 3.8516297615576813 6.93003981707608 -0.5280997042321162 -1.0729455175743199 -1.0869410605224634
P 3.319996331748474 7.314043623871167 7.169538476543873 0.3014029673983777 -0.09711313750492952 0.537330735912081
P 1.846507682073185 1.8588035872820183 0.3691208505430678 1.0643395210728637 -1.1880278379631604 -1.5926721672513926
