# total energy = -340860.7438754834 ev
CRYSTAL
PRIMVEC
9.32227859837384 0.00000000000000 0.00000000000000

0.00000000000000 9.32227859837384 0.00000000000000

0.00000000000000 0.00000000000000 13.64409703908158

PRIMCOORD
 96 1
Ni 8.518604721889071 2.101138992177476 0.4099872756819138 0.38783265704753206 -0.28650728123346786 1.3589974564379241
Ni 5.910399044107996 4.166927904899712 4.943215463291206 0.3369186438064843 0.7367449828807828 0.7508109740555456
Ni 7.493927853882328 4.103741502329139 0.19058372610099472 -0.35065219134249287 1.713223481174604 -3.315915237445528
Ni 3.9881825400593214 3.054612298243522 4.092383238402909 -0.06317560421722024 0.3785347766853739 0.23003300029582316
Ni 8.33221508881205 7.164963295913843 12.493134785323338 -1.3442331536445558 -0.22446064841436825 0.05974472415880033
Ni 8.767984989691579 3.3658365605360254 6.635424326150224 -0.5869954501270599 -3.0480965337604986 -2.2828513865574944
Ni 2.835109932512227 2.107655264735285 10.618204605913048 -0.30849149881404286 -1.6268814661432498 2.0530248458455223
Ni 2.5818236300863675 2.005166136694435 8.169907697363913 -0.5441513583783404 -1.106986409209113 -1.3698878780981827
Ni 4.401812029887639 8.587058211720247 7.091860785875829 -2.589414558000573 -1.2702853985124962 -0.44807360411646063
Ni 0.8294217482309002 7.440651033184361 0.16305969930996234 1.9604803015478818 1.2750396253680298 -0.14845138276758948
Ni 8.572767159029086 5.472848588066033 6.792958711089638 -1.0928774806115564 1.4516116776312356 -2.2234267647422743
Ni 6.147576449566911 2.2498293316582436 13.746836726382982 -1.3422852858895655 -0.5419841755236925 -0.9186757283527405
Ni 4.2581091093173535 6.254092801849497 5.406350912230032 0.2960342468872966 -2.006808752300776 1.4138324019999329
Ni 3.1288922120355442 3.842335495471446 9.397166995919655 2.0199206070923856 2.0620152222695904 -0.6652935118080155
Ni 2.9155332277285644 5.838309865725251 13.449436470636938 -2.985981766707625 -3.0983741989691285 -0.3507000138612928
Ni 8.359603942567192 5.166807512529098 11.252313436242416 0.5721198185668083 -1.3186355076811098 -0.12734134026185165
Ni 6.345208750318777 5.668467276697032 1.5003871381948226 0.9515344267539741 -2.20999043673171 2.004161544485916
Ni 3.211282507981063 3.911059331374406 6.867619906065658 1.1583866180579598 1.3287988213673567 -0.375137835188683
Ni 4.975393171428244 0.8524226055726494 8.690403124912466 -0.3882682019230539 -0.13259358979972646 1.4239311809968314
Ni 8.303362637357944 0.38956029938910763 12.408187388429885 -1.1384947642300391 -1.3363732912805049 -0.44969134222554163
Ni 3.363533957786699 8.729446691044965 1.6449598273339818 -1.3110787783797742 -0.15593509273914433 0.5195425586907246
Ni 7.448808026729544 6.390943847841828 3.6050434259889816 2.69785649025476 -2.290712534473126 -1.5277227589632012
Ni 1.6846289183429168 7.888707696912519 11.572103940099112 0.9035095621352633 1.0888542183847763 0.03672820865896901
Ni 9.02577395255438 7.931040162842436 10.238120402453859 0.2485562559109913 0.3290970908795364 -0.20890650272985312
P 3.879876310335963 2.4382885105261556 12.781503617816156 0.9896096363591408 -0.10483390318795495 -1.0014271978193594
P 5.392854117653213 3.2784868125150353 9.306515296911574 -0.9183276009847023 0.5400717889923279 0.7278271115658627
P 3.923178293212964 6.767424058495796 1.3443899969532385 1.3522159147397164 -0.973984014006742 1.0237793402623143
P 5.116681621909154 0.2327185597301592 3.694930698173399 -0.3805852314564994 0.0543592914771709 -0.7145530201647758
P 8.54860381357867 6.063657299974066 0.8702290894248258 -0.5742250378352692 -0.09786852761371533 0.3610610453806427
P 6.405691692171519 6.446038512815579 6.5964702538897635 0.5244667354652194 0.735821442625249 -0.5380213342212024
P 7.443410427572217 1.5202678289770601 6.602405748507157 -0.5292232763135982 -0.41923893927295536 -0.9833929660254678
P 8.58820485195574 4.439707091328975 4.537808222956433 -0.41437826874654443 0.5319496741058258 -0.5528787109490091
Ni 2.704532779840935 9.254076549036135 9.36815979464515 -0.4287121688707133 -0.571209648047713 -0.1828149478491239
Ni 2.589113651746177 1.456848369448053 3.0911108823899234 0.6147294257072188 1.8721173994317561 -0.78279498316131
Ni 5.964384357959602 7.1486213419884646 0.03790065480833912 -0.23914884655416233 0.9124739704174027 -2.079560687352522
Ni 6.985490793363139 6.894924859315762 9.88044043052283 1.3995730638674413 -1.8336598667865065 -1.5461699099247952
Ni 7.399017738129745 2.460978935999271 4.0874032773150955 0.2707965553664304 0.14701465032106295 0.0031997378842202957
Ni 0.629277093467117 6.617997259026377 4.431889428715271 -0.9614452581097829 0.9035131616796892 -0.6406014083779742
Ni 7.377893455417305 4.503471475156464 9.110162944975427 0.733130526056647 0.054716160595957374 -0.4249840692868487
Ni 6.011769498748364 7.415928351033703 4.628322884472955 -2.3252108253603114 0.9394319870634854 1.6927017070721686
Ni 1.013639290455317 7.316021494092298 7.389302059646557 1.2418294571646484 -0.13619364844615897 0.4118264488589682
Ni 5.364122855817493 0.897405395233875 5.800623623318671 0.9104366282723998 0.5818817830495786 -0.5316015467377878
Ni 1.635929336308589 8.927759518115458 3.358044068073833 -2.2299563383306755 -2.8391578922411296 0.7851660544966478
Ni 1.0633736453850913 4.096796404967812 13.31292755225959 -0.8089814117486906 0.8498717222051493 0.300043882267322
Ni 3.333273842303654 4.59647052384989 1.8362501821329478 1.0751525525279677 0.018708117932464557 -0.8022813740206958
Ni 5.171664419542858 2.606760724638785 7.201954096356458 0.3107201310342455 0.6776360925337684 -0.3138026266143112
Ni 1.1987238045651079 3.886327326945411 10.83166613528174 -0.36119937073071984 0.30668864127734924 -0.2812879418160575
Ni 1.273852045685829 4.625705188715826 8.096489162090261 0.03547685275037116 1.5805915819377747 -0.06528365169915855
Ni 7.113168717471514 2.046640953017315 8.79074160334089 1.3040864062223412 -0.11089862132479611 -1.66539941971279
Ni 8.984653382808318 1.9310726684691595 10.342675347374268 0.2386860479851309 -0.26791152050915146 -1.0408771762848654
Ni 5.692406887467351 7.841779347762288 2.232023780033901 -0.325663125497323 0.8699294121869728 1.1691253446317025
Ni 9.243122871989746 0.6929780858019122 5.64096096223484 0.9920215882347431 0.1375203376773825 0.3696241044593053
Ni 4.405876543242724 1.3666739710908453 1.567160753469609 1.172814877668148 1.0450395351926711 0.23017672496253908
Ni 4.874106617292913 4.556021158144119 13.562682575651259 0.6402501956861425 -1.1767581785866121 0.2697544872551612
Ni 2.7136033566631785 0.36194211758686795 13.131638137660934 -0.18222925054898295 0.6360096752422336 -0.23102467478513117
Ni 9.178416938050185 1.107440055085755 2.5263821763584664 -0.6912469984489837 -0.65167000748731 0.17530629817690452
P 6.2985600695186665 -0.036062301520213266 -0.11591227661880356 0.6055513587523764 0.35045370217844163 0.028230712710919124
P 2.182009756754006 2.4493354103559177 5.743577805488912 -0.10038589471893035 0.7293546039539827 -0.70685950817526
P 0.03590568724414575 3.068418592461141 8.536360865438224 -0.08679710029090212 -1.0623633711830993 2.662104786576448
P 1.0994415402723068 5.928446974969109 11.77718847015386 -0.8975929395405122 -2.006811066293621 1.1826619456655567
P 1.1708688368930993 0.3166675406136833 1.0278520360084442 -0.0048969230809851145 -0.2866183528900354 -0.06067752038571485
P 3.21509531982104 6.410958779432122 7.332583453786438 -0.28296918617322236 -0.9359260307927558 1.0693436591556744
P 1.0473113598098334 0.3913035654381925 10.82593573078777 0.37229188109945566 0.7417156966224967 -0.5831647635270601
P 1.7648191566008204 3.693057852455425 2.6514713037725595 -1.7513876509491513 -0.7914683425655917 0.34084908920914203
Ni 9.145807608426127 0.10590667527932345 8.321425483864399 -0.20153874951087225 0.8429528835981289 -0.4639013151773365
Ni 0.6474415528074479 2.5042156629279106 4.100733203109675 -0.0470550445062738 1.6701361630668268 1.0836004261850047
Ni 8.520972580586758 4.111460348792466 2.0697275753197677 1.5085868094646988 -0.20846041633137002 2.78142145676161
Ni 8.277922139775312 8.55409463551937 1.1799580582720177 -0.438800920565283 -0.37635628097681634 -0.11854508212646035
Ni 4.7504838842612855 5.552078631655189 3.3231153555994415 1.9458517530014297 -0.4890909270690867 -0.4209919174083201
Ni 1.3778140937039811 4.664411288372513 5.452031008310892 -0.21203116440176387 -0.454914538297694 -0.08462657500214457
Ni 3.6207635839492585 7.650309072991412 12.791913806035476 3.129182956819869 2.080820527901552 -1.1142389770064682
Ni 3.173778982229895 0.5499575560059222 5.4588390681806604 0.8626153950240628 1.4780153644357448 -3.584528412007394
Ni 0.8932942704871026 1.7028073611007535 12.588098038062444 0.7837905143053598 1.1568421563889755 -1.1664462551376427
Ni 4.528669593502327 0.5644070874288181 11.3156769621014 -2.363270094125878 -1.3228644581607927 0.7430668113337526
Ni 5.520485430369902 4.843054108151193 7.599188495272872 -0.8548956577823019 0.17766888487181012 0.021238597663802133
Ni 2.889216435982219 6.791484858884502 3.420561131059784 -0.1415268877336143 0.662631134484504 -0.10547050833068931
Ni 4.382375079554259 5.074134743577479 11.391688022980668 -1.1521172401094804 0.3336633700939802 -1.6215621108128655
Ni 2.5262348843607363 2.492404336274485 0.733707119857804 -1.292293013131839 0.0973602205187291 0.84359103140276
Ni 6.656582169064678 0.8976459100149786 2.1286154753489877 0.564915073288253 0.257113401452383 0.20945389059289085
Ni 8.298962521982716 7.858084012574317 6.2314359365783965 0.0856493598397041 -0.9350042903094349 -0.43457171297528385
Ni 6.537452774191655 8.46143118884609 7.65291931092587 1.3591602072680333 0.4629991150780413 -0.7608156506767413
Ni 6.004190486460097 8.00059368151742 11.455884028295177 -0.5836424744944271 1.4921919130464432 1.0828735753213092
Ni 2.5081776312212853 7.595149152069298 5.614873498535594 -0.9152870143861657 0.35257871894124443 -0.8070988500139971
Ni 2.078560434044409 6.15926658660195 9.898273948982185 0.8608588173442722 0.06243409806550537 -1.015451280012593
Ni 7.124532574764747 -0.025322104647749793 4.7453622245427445 1.6096674162578084 1.5465653455910011 -1.0581843001047453
Ni 5.004739703634229 6.993545241846611 8.753929790642353 -1.88847989995018 -0.497573253508485 0.3219103433231101
Ni 6.296630357902835 1.7069371304042005 11.013350814481898 1.1062654718826883 0.4985826686096058 -0.7070160883577824
Ni 1.2403477773413853 6.056190155025847 1.9359743224189394 -0.5309330599158534 -1.8223482984284294 0.5872039665934403
P 8.605507000549869 8.297051454923558 3.496217945362233 0.7513663323383833 0.21283411991903342 0.225613788182205
P 1.9264394961354956 0.016386700861397704 6.868601541974581 -2.5980879174048543 -0.5835074915784596 3.6916140873440035
P 6.946122811944501 9.289948676078266 9.524398382895672 0.42127730985922285 -0.6724656040764225 2.135030695395368
P 7.919620371879179 2.6326580138599494 11.9668008148521 0.0751767424431544 1.939350718658118 2.681580893023188
P 5.8187051143818 3.4383172746089383 2.3285429210275104 0.24648806052805292 -0.17255753178717378 0.30428851647628885
P 6.36414229762194 5.582376036251585 11.785675472352183 -0.10730807576006036 1.3092052155061453 0.8187796287860349
P 8.796212848497081 6.45965836146645 8.500504586269267 -0.4030774990217445 0.575034678220758 3.12766137796902
P 3.7756252716893535 7.722743175672638 10.55849820984581 0.6431660837813569 -0.3334309423682 0.29246504147879954
