# total energy = -340871.6794020742 ev
CRYSTAL
PRIMVEC
9.20911145449256 0.00000000000000 0.00000000000000
0.00000000000000 9.20911145449256 0.00000000000000
0.00000000000000 0.00000000000000 13.47846548490264
PRIMCOORD
 96 1
Ni 8.464214258610605 6.401152224811733 7.809126862368807 -0.3256050185658779 -0.5420973040627889 -0.7553253169861315
Ni 2.6835627693242357 6.840739961488854 0.8667717208396732 -0.9941260361722557 0.8574389930294459 -0.22552714200566967
Ni 3.546668342806236 1.137813374736421 11.93541024759852 0.6469242652722084 -1.8766703089097616 -1.501575154033556
Ni 0.41168044465830106 2.2140085832578458 8.654698287222297 -2.0403961013379184 0.1553907901999001 -0.49606350173217795
Ni 3.7783603834284274 1.3468141641923068 8.383403382754498 -0.5566070676431898 0.11172934475620758 -0.8701592688095918
Ni 4.426792354662965 5.837278316973712 11.83099273487565 -0.6186593568892442 0.5536721533845819 1.3469711214010092
Ni 1.0557233532687071 8.366026709935625 13.070351300403622 1.2288852382991546 -0.893987481577441 0.45972558653309215
Ni 5.922020562603722 4.959594719710761 10.274499990608204 -0.5110309216752876 -1.1038856587966022 -0.1705636412855966
Ni 4.113258938588276 6.746153175478658 2.609364035650518 -0.6042077002402885 -0.8345366345099756 1.2584410975794005
Ni 5.159588997948853 7.450944910161974 0.07650101159237672 -0.10184833819706976 -0.28832299428596797 0.13283064551119705
Ni 2.1234093426027676 4.873959190248312 13.334758710249961 -0.780793379350249 -0.7963850631409187 0.3459614707350429
Ni 7.667598471419483 3.764316488124606 7.246090983693177 -0.01915163322778637 0.47545148190878117 0.593171754141101
Ni 3.090154258871132 3.0023730063884924 4.28542420225678 0.6248081500994594 -0.9602692355238106 2.220517561515279
Ni 0.9228266626920211 4.672187553457016 7.969021905642026 -1.0452164270901676 0.2800281012670274 0.08805436973677094
Ni 0.6624040354672972 3.952587567200884 4.052934652563565 0.8640618976626021 -1.787933311283669 -0.34335951433582157
Ni 2.726753503078283 6.596873475232793 7.838657720775865 1.1682835654566976 0.07973016614179171 1.866978278432978
Ni 6.779278350172327 0.13825455174898982 3.813529980913866 -0.637352048202741 -0.38786968093305463 2.5502440584486985
Ni 6.837820673087994 6.366968002275481 4.208408401321791 0.11283980421156696 0.29228789247098697 0.5284442320557285
Ni 6.065535358941264 7.828822389507353 2.157444377529891 0.5511313892405991 0.5056678575911614 0.18256940749722106
Ni 2.986505706973093 7.256577399157086 4.954171473845567 -1.627380260156539 0.5256247603290626 -1.428496688880327
Ni 1.979360417788096 1.4871794443371233 2.8565725085333056 -1.40509733611978 0.307074049641226 -0.6269411372820622
Ni 7.532049556680502 6.598660042897672 10.06846821875622 -1.2558833641545533 0.3700354809651111 -0.7211342729267193
Ni 6.407847248999194 1.137509474051158 12.159759863482524 0.3630760189281424 0.471422049034414 -1.4961017896238105
Ni 7.717180328675729 1.9926675841579464 0.5968894941027624 0.19094888981016794 0.34280724137677737 -1.4161649067878512
P 1.8084945597768818 2.288501087593984 10.104252984901525 1.6058745248742794 0.5228045172714479 1.5219786573905725
P 5.5552216446029306 2.5498925133668804 3.712791508305012 1.4227757272361496 -1.767425164027988 0.7453864606058647
P 3.0302766147626428 5.136124181401878 4.100297113906223 -1.1762748111922905 2.3321823715821384 1.365005867415533
P 3.3527704964967544 3.1518829344262236 6.543471678453908 -0.6249472467804851 -1.903410810228399 1.8418737700558665
P 0.44027749914155123 3.5046655844582166 1.7424154998666919 0.097621958820548 -1.4192661714209944 0.5011679128382788
P 6.992948159247254 3.5346504520708346 11.79686560883178 -0.08081028657984793 -0.18243211058840839 0.5941006937132736
P 3.0188849436211167 2.440792167357456 -0.0464572056650411 -0.017323835990428228 1.7420344918690258 2.3601163789882453
P 7.2095833022814135 8.171769708270833 8.622417588069194 1.667449617373599 1.607761200374031 -1.606807321101194
Ni 5.909523798061239 6.56382197343252 8.160657994124216 -0.23813146103324148 -3.0154651208787224 -0.9429453995333824
Ni 0.6975892884425826 4.260825744062658 11.39779520078956 1.8133185841259933 1.1071139359259126 -2.1055810226756835
Ni 5.354868211009529 3.685099709499379 6.077898591364463 1.1634213522683898 1.6858615442218836 -0.009478114693764321
Ni 8.894611301836438 0.39446677311606965 7.065425709948983 -1.5228422909424484 -0.5251316227427278 0.6777924156059746
Ni 0.3847999685912032 8.35803320100204 8.897836332744896 0.030679431361727807 -1.103417718021248 0.5374168678679841
Ni 1.7335876454153847 6.673695884822615 11.171531931499567 1.5084978492953183 0.448944179646872 -0.026660797120637958
Ni 5.189850138911709 2.8122232685305883 13.4407933429829 0.2656738894278844 0.696118210498356 -1.94336986711984
Ni 4.165529856453515 4.578263823487394 8.26130253379399 0.5731330903226711 0.31620917917327473 -0.9486432212491082
Ni 0.4814265728373316 3.0400014366910595 6.325026024064514 -0.022052351814349117 1.300765055158592 -0.9060621533537879
Ni 8.446431463966881 5.095907990718739 2.643639428392349 -1.2747467767179594 0.38884027237644 -0.8981992056659435
Ni 6.743869315783348 2.159536687702368 8.982899055461182 0.21944776858080917 0.064528775811005 0.7871308915325024
Ni 2.6123487087442676 4.140112708231516 2.3265715552569333 -0.9343867113300939 0.16776216728105947 -2.5240113500044146
Ni 5.472348848642873 0.7561573968709387 0.7279517296338608 -0.26115183318781476 -1.9472578893203365 0.7580393734831848
Ni 0.2897343087739258 0.2626595204504931 1.681802968646566 0.500048454521855 0.12619385692096977 -0.4539881698286826
Ni 3.0168221026059983 0.4609040674704031 0.963301629413218 -0.591696198036839 -1.472953119421489 -1.3401114181666984
Ni 7.74236724910586 0.1805446343812577 10.370129248059968 0.055906581359632744 -0.5624465571431023 -0.44479570469613716
Ni 8.805697328617818 2.2320031874700867 11.233937476762744 -0.3774855094852531 -0.3680271922858307 -0.7068091145532989
Ni 6.391961531360446 3.726761730715436 1.7429008200519451 0.6939340583628436 -1.4558442276553443 0.5426660320820654
Ni 1.239960841431494 0.1999021871213446 10.768862602614899 -0.6065108944521683 1.2167568304667369 0.9367436415980447
Ni 0.9089835260227067 1.8827292089861305 13.372039957042395 0.8965562707458817 0.2961859419738125 0.7038027236268072
Ni 8.884389187877591 3.9213870968472135 13.178286693786205 -1.4399967191001266 0.8486221660687642 2.2298156989877533
Ni 5.566116023714026 7.972143794499728 9.96286365153849 -0.8011847985224072 0.654545272152576 2.0620345055433003
Ni 0.2980547411719603 5.817055107736209 5.408234092252883 -1.499459907462766 -0.6270439814085137 0.1330674441123515
Ni 7.085610240917451 8.051600010028496 6.3990635982839255 -0.9299222478008372 -0.2221615679675464 -0.883614365873233
P 6.472826740975433 6.86341279443181 11.959955292944931 0.39595245794118905 0.003674363527793672 -0.10899986164018646
P 3.689041209296123 6.4190179014605295 9.954669383970398 0.29665311141821815 -0.8632424870851003 -1.5805010791064973
P 2.3103727278212474 8.43365842607416 2.69182518431872 -1.073218054509416 -0.6512784284758462 0.42210031998115044
P 5.180585772567024 1.038520732660485 10.108107919048528 0.6096766937746596 -2.4290689948985587 0.9402783942241806
P 0.3864944451393364 6.073427567646428 0.9108474502256533 -0.26780584816922265 0.9701762102248775 -0.6650263741895579
P 6.797908383090118 5.5912108530274125 6.275897255102661 0.2544417681574908 -0.8094079577631481 0.26975937235116765
P 2.410162661927613 8.69297780172026 7.979952200288653 -0.3434245632458021 1.3408650085032714 -0.47638196414285056
P 7.287206904586929 0.3502934271463385 1.8003592305235074 0.550391168640465 -0.818039665296217 -0.019455023400818106
Ni 4.840189377737419 1.5061870508335742 5.7675027196373225 -0.7954697504155009 -1.7784066027401566 -0.7819930560853048
Ni 4.122937714958319 2.1387240953176887 2.1317270122672998 0.9235582532560224 1.879868504132085 -0.4016523365394437
Ni 8.10872412974627 1.531051652355094 5.293856004342724 -1.042119790442715 -1.0876707395996363 -0.1437704323521524
Ni 2.740097505894832 0.4826348082890439 4.891267715640793 -0.04282455136469399 -0.6620855463936792 0.6223833427080507
Ni 8.112426192639472 3.9892029952192405 9.832217667855085 0.08266250929723828 1.1818448490809002 -1.0263414445625358
Ni 2.3421073266520462 4.474182443340648 9.735711702971892 0.5768660750025421 0.3729421130889448 0.569381850810355
Ni 8.529681833505599 7.641610358273658 2.7222189364896914 0.07648877638635859 -0.4731562581167012 1.2716041173239199
Ni 4.903327047378729 4.50707739024245 3.512636070612615 0.9194200627179326 1.0477278806581118 0.03061721066522469
Ni 4.6506934868084135 8.33759818219602 7.6394195106062615 -0.672986509576899 0.9267029695325911 -1.1652182962678124
Ni 7.918730946786833 2.1020994581876575 2.9536844329646867 1.2081932571674416 0.9594634517930637 -0.03694289577293637
Ni 3.241773073482355 8.617002630404507 9.96723153320577 0.6645484061118748 -0.17424288990939668 0.33808772441392093
Ni 1.7094781910511851 1.2866786649569275 6.9243458027382125 2.6665754207532912 -0.19769880693949177 0.0019293558122289352
Ni 4.47373119686859 2.92848830342288 9.962257691990297 -0.0332163388509686 1.3775217404943565 -0.4354831690459597
Ni 1.3281933403861907 6.271920760681553 3.278245760269755 0.49475969531908986 0.7981845782435028 -1.1983670151056396
Ni 8.755341905980902 6.789325491009357 11.920692245320117 0.41834676647598923 -0.7715276377776067 1.5391122317470656
Ni 1.051864735477034 7.59387032335234 6.577302271101854 0.22243101957884917 1.4622143928477462 -0.30841719393268174
Ni 7.854552647526289 7.887051602626082 0.36781284119616786 -0.028789413427866548 0.8742470657257202 -0.32063456193448003
Ni 4.2710018124631315 0.00444708002768219 3.226718017716659 0.7570813804452897 -0.21717774159970987 -0.23541303366081393
Ni 4.641281774676934 6.243188332256685 5.970664011380321 2.211343351215179 -0.7127069680949726 0.8950688875670778
Ni 7.115042561829591 5.540873848613847 0.1488966012002003 -0.06852401301332715 -0.02715264915539195 -0.1031886542750481
Ni 3.4240950664168177 3.6347534959741385 11.736724584129394 -0.5109486463741265 0.7322869471094292 0.8363906569995788
Ni 2.5244109013631597 5.076384673968508 6.250908330573534 -0.5748037931568746 -0.9868570133146682 -1.5337751358048681
Ni 4.496505330039967 4.875589203014723 0.7133543667183936 -0.2314738465074078 0.8480259272456621 0.17352195258297212
Ni 7.4271854020414105 3.5741207047083283 4.745228701793232 -0.6571775675691004 2.299992931333787 -0.33943035448474446
P 8.80162690125763 0.4664939982569077 12.39099605307682 -1.7920846144478813 -0.9401045876504777 0.23282110456392163
P 0.24486935851742944 5.953156569175668 9.776699617213367 1.6920450473247766 -1.1666534860524425 -0.04493131329505165
P 3.3498235807608707 8.119544835963968 12.681093200850727 -1.083508894912463 0.6974024765274182 -0.734421991174561
P 0.8787187014151798 1.5238685452488772 4.707219014267336 0.6548563756350915 0.995516488761879 0.09135232376175235
P 4.90001176717586 8.403793276913312 5.243446247946929 0.3867453375206243 0.3694068462421767 0.19024672153682076
P 6.62532963030742 1.7956570581024378 6.919602189314608 0.32087830251416993 0.41976267298690934 -0.11168383623025281
P 6.129243993506402 5.743133568323898 2.151594749794161 0.056872544817327855 0.4732570453606237 -0.13286098452850023
P 8.80057706252672 7.99836213543742 4.9702920238320205 -0.5654313508030391 -0.07195566440269542 -0.5993246611163743
