# total energy = -381169.35210343375 ev
CRYSTAL
PRIMVEC
9.25686697953926 0.00000000000000 0.00000000000000

0.00000000000000 9.25686697953926 0.00000000000000

0.00000000000000 0.00000000000000 13.54836052301378

PRIMCOORD
 96 1
Ni 8.433866491140828 5.261584542776054 12.993066830399854 0.28628282392748755 -1.2664197449095027 -0.7500836089712178
Ni 2.728924315726623 8.298234879627849 6.160087502162417 2.223141372291371 0.11686126666613424 0.8470967305631735
Ni 1.695219263444139 1.033853162150366 5.655018041697866 -0.07864104684267102 0.6966388588885164 0.12537624611568085
Ni 1.373728281472682 3.6634050133948812 9.064042505631992 0.6315668089795315 0.09163000290317123 0.19284122173687435
Ni 4.618056423695325 7.196880645190242 4.823825463143846 0.3047574856929074 0.8051275852202392 -0.7224049121090268
Ni 8.819683440106804 2.4151443037517746 4.84570684475007 -0.8189521498081572 -0.0010438678834820733 0.146348991712606
Ni 1.702430362636646 7.456757922122769 1.8886146491177898 -0.9040682628522106 -1.0226886783012967 -0.015427133188347627
Ni 5.8585413652746245 1.9369715952946018 5.813303057503404 1.5830194746529769 -0.15126494095698467 -1.5225872375088487
Ni 2.9158111983935324 1.9210775550975103 11.624194701220354 2.252222091707411 -0.31156499553304406 -0.46121451237379274
Ni 6.50987302301939 8.88462961717308 10.400750725627558 1.2990997516410272 -0.21329897537059395 -1.690059127242999
Ni 6.017481767245541 3.5302264715686977 3.7929178359909845 1.6848019926091178 -0.1358123538473403 1.0974982672130196
Ni 7.2728517505469865 5.572670806528799 3.304946734086741 -0.680514185412512 0.08252984037411593 -0.5013579173618979
Ni 5.023618269423327 4.062477795536301 11.534789105160034 -0.8133828832504959 0.4808713673727718 -0.5542244263436261
Ni 5.998949520026801 0.0497325165747669 3.7468121598059794 -0.2803435756249172 -0.619664658225307 -1.0406568327439434
Ni 9.122836569061116 7.169526603965777 11.074077624439479 -2.0329841251445635 2.076943818554965 3.037461422644156
Ni 3.248845493193046 9.310741707069715 9.478487240686219 1.0575554082714946 -1.3667740150595493 1.5083811212117957
Ni 0.49220334137897315 8.557760395624156 9.337204312026865 -1.1825732426064923 0.6347858301374616 -2.58635443101801
Ni 7.949695333034433 0.2084183547102609 5.011972205374427 0.279441375525622 -0.6727669373669253 0.8030794444419589
Ni 7.152040382688953 1.6847034628245139 2.369689385298776 0.8100165378814242 0.33931722594564784 -0.20264535231148972
Ni 3.792556818188022 6.171312378774528 12.235619080750975 0.04254198712726867 -1.3577270743659327 0.1566855977519237
Ni 1.3199921700317283 5.22165041964836 6.765414383569671 -0.06801570591834093 -0.11087779538918968 0.11303237983834727
Ni 9.023825122381972 7.099137389254836 4.079844603232145 -0.03160785671326814 0.09104044894828836 0.2805225244049427
Ni 5.895976134381812 5.210144134287273 13.470727634126158 -0.5430154450016842 0.37128349443959924 1.257138319607577
Ni 5.489275694044467 1.7862975753248522 11.08740936392221 0.4910333955074382 -0.8158945939287561 -0.8536090777603943
P 2.940471491395892 3.9772035391032152 10.600128824276968 -0.09711416594619404 0.2939393120314809 0.9667769547353413
Ni 4.6572685112170955 7.127879960490695 10.245391805399365 0.09162408936590027 0.3263418967319025 -0.17701531044821128
P 6.807194325925846 6.545910005248439 9.556539289686706 0.4738250020489517 1.7696108588253976 -1.7529318555078197
Ni 4.999587443359466 2.0930701391755315 13.378138601593047 -1.580228285061085 -2.4342117154417626 0.8916701462981741
P 8.982465441775911 0.8125270324541851 3.2766845942348244 0.5265688694098867 -0.42268935971540106 -1.2234812936747639
P 1.6508418442799822 5.256826513270345 3.1180061615927244 0.1435367190747915 -0.2797717622818472 -1.0609564635332438
P 7.270195029791852 7.338899494755634 5.410429405877462 -0.4724998554796249 0.18189757824117705 -0.233153805312992
Ni 0.533004832920453 0.21802142826906282 1.076905923683653 -0.6780963199996387 0.35751652256249394 1.7151793193493943
Ni 6.144884024224326 5.956997399949213 7.412741520761576 0.232885896363586 0.3256376715760263 1.624296221914577
Ni 1.5736580893799532 6.385821751801437 13.195384909926721 0.20374218492009427 1.1506511970869153 0.35163666674294924
Ni 1.2393278332364712 9.11819887882306 12.423764897294882 1.1906657898066397 -0.8881114824126383 1.0007016325072444
Ni 6.021295596343505 5.296519957862732 5.251818548362583 -0.7090282336918048 0.0945633744998823 -0.3053976903800676
Ni 7.904808786199432 1.9542171380361173 10.228374907266392 0.8672014717328485 0.10596878812334652 1.2717820376626807
Ni 5.469521540415699 8.93712530847052 12.344073457194277 -1.7559122782923824 -0.02829961827564158 0.06081738839768881
Ni 7.186892485974946 8.45701791486414 7.941114217564017 1.3445635404007812 0.06023503353165755 0.3371284458244452
Ni 2.0529786493132116 1.9711664610418684 0.33381002023254613 -1.9904786476821847 -2.1827717102250728 1.0371089674916847
Ni 1.4992051101689992 8.888767436607035 3.9271951678995176 -1.9192194951258819 -0.9053635846248665 0.11888626751596298
Ni 5.35002464763512 3.8883005909070194 1.7208182027342014 -1.2375267160242365 0.3452862990448892 -0.7784184513601691
Ni 1.0948374002507968 3.170921188953607 12.081532979699894 -1.5979066761774543 0.45222516439098887 -0.6670693727615157
Ni 6.888016029455729 2.042990490097916 8.155950357986942 -0.28136661757279285 -0.28667877381432566 -0.8346749598600529
Ni 3.747161143682176 5.525016456537752 6.329752909941342 -0.18097609486817218 1.1014875908780708 -0.055639957961807394
Ni 2.052191815640088 7.055083960426671 10.07587450748832 2.028941322533757 0.65472499226355 -0.7184359001589498
Ni 4.893466723021982 7.852405663569416 7.939569246504673 -1.802606597025128 0.07801266923005275 0.3688913400583389
Ni 5.603385090380837 6.54904808307419 2.235181557408351 -0.6346557323175005 1.1754312322450724 -1.1872953306725103
Ni 3.535947215215642 8.488250583253766 2.668918528440888 1.4279798971449085 -0.885977466788771 -1.217874746121264
Ni 1.2464833912285225 1.0463129047859427 10.475131501277918 -1.4090866597848313 1.5760289022677567 -0.071880845300702
Ni 5.671561913940289 0.20351128964999401 1.1656579849519435 -0.32690933919959825 -0.7461685901875278 2.157438373666607
Ni 0.8098471695321944 2.752705206388433 6.768097023551684 -0.821558477082753 1.3366306587069494 0.7436486519791515
Ni 1.1331052873648193 5.419136414735577 11.21225672568003 0.6572850396812422 -3.5943006609028103 -0.03970914566416387
Ni 6.518296771755181 6.289068980607493 11.62989878250716 0.5744415247214494 0.8032226548880425 -0.011945602397650395
Ni 3.739079899015862 0.4567773123549372 4.43044935679584 1.122772468398776 0.43114109002718004 3.453975249676464
Ni 4.168561488406814 7.713358268228408 0.4639745262473302 -0.5433954540489222 0.06405620704996065 -0.6302815145092049
P 3.7075047265567593 1.0562825502677526 1.2723526310274698 -0.39525543187416445 -0.9139829508627614 0.027823964190803695
Ni 7.8218672601854875 7.816859295277727 2.1758663323816156 -1.3261649832889353 1.3990382744098937 0.9040255825397334
P 6.648059529753335 7.711701289081477 0.1049339900210782 -0.4472020001447847 -1.479175703292433 0.6952990570311702
Ni 2.2113728961463126 6.833474570608167 4.475010061921501 0.32341135334866883 -1.5850167075886639 0.1294218769399642
P 3.2021446004764895 8.18522705043385 11.681789074719633 0.38454061655982164 0.4727829339376826 0.12010137086998672
P 8.99627668695591 0.9626863706330449 7.829367173620366 -0.02333404674025014 -0.2359064283574647 0.07433984836415583
P 5.162369445028572 0.668668843467032 8.62574004792199 1.6131252928994217 -0.27383868462686384 1.2860164360945077
Ni 4.0176653036352405 3.3257422852240537 5.23875803507541 -0.026620687911321893 -0.5035685518599714 -2.291933808474737
Ni 7.649745079973069 3.9188482511576908 1.4633717790082876 -0.361959388825196 0.8015565800395292 0.3739160469664399
Ni 3.3462740156592017 5.6439579373137745 1.2080803538600575 0.31203010809492066 -0.3323263964501115 0.1944828711053554
Ni 8.821210823119339 7.390867544648747 13.821766534740082 0.14088668304645413 1.3617269395539453 -2.2521087060579985
Ni 1.784594311844209 3.4183942644510137 4.435069458987086 0.33564800462417677 -0.024442963533712742 1.3376902103197155
Ni 4.748096887695758 1.9099785718730997 2.9565506689278362 -0.254106239194943 -0.53697283835203 -0.165975764804598
Ni 2.3058021937878572 1.3619257763758317 2.8967614923238787 -0.49453909466785156 0.7423651572810376 -0.9143069098610835
Ni 6.740183867575965 2.9588278581465226 12.816992893775007 3.907195945211503 2.0214200744560475 -0.9587995929568196
Ni 1.9658437626648575 1.3343310566160584 8.272534114803618 -1.392798721258085 0.7477739870014347 -1.1356657794216765
Ni 3.377367831047688 3.5108240788761504 13.358669559459955 1.3132089373488998 3.938700186467371 -0.7997447236417711
Ni 0.4403186032865453 8.13897048732094 6.2767249488062 -0.8416619327008471 -0.24357294376378696 0.7560639949243688
Ni 9.214951650017005 6.135358708346161 9.21608191344628 -0.42978637577149853 -0.798005115242845 -2.9081596162218237
Ni 4.07656674671858 5.359790642048592 3.5296729109374887 -0.4402420238871837 -0.9906977272169969 0.49899224534319875
Ni 1.4085155866914763 4.3092380922945255 0.6271703098598325 -1.4626651072319197 -0.08517601974771137 0.8153598044712087
Ni 5.81794074774146 8.771307054509833 5.989472339855699 -0.7332552245599694 0.8017429850187224 0.6616682563506024
Ni 8.800688349550933 2.3525308571046413 0.3966049014678349 1.179697206610278 -0.030019429180225717 -0.8290298457591335
Ni 3.5733542137225998 5.328752367860561 8.83527848350811 -0.13676494756859672 -0.16605958276765592 -0.06800799260885708
Ni 9.071460958639534 5.749199255310708 1.8081234157306196 1.2109553932936115 -0.4075396485581562 1.0831553682277861
Ni 9.035248095942375 4.668460063108933 4.291619497823282 1.0239086667513269 -0.0756372270193407 -0.15988559274646014
Ni 5.088055318818758 3.715391577021478 7.270388498306773 2.054361305268759 0.8950989694740649 0.5025771344809796
Ni 8.393349185408347 4.140152164373689 8.259500446429996 0.231586203715556 -0.7603479670117034 -1.5376976107877258
Ni 7.43505982647805 0.5870519750839586 13.391213000180334 1.3781670873878393 -0.16749348700070507 -1.0526363737033224
Ni 4.0066866596784845 1.3803932255273736 7.0557013934384045 -1.0401163868594407 -0.13471295013557444 -0.9422252335379063
Ni 0.3972121519261512 2.7933706219887964 2.625875023774344 -0.28770104443125294 0.25990716214743625 -1.1477031702021847
Ni 6.515038354661777 4.463096474423739 9.451268349716196 -0.7266595736203227 -1.0218350720517497 1.1794570655750138
P 2.9728242406613754 3.528264015819261 7.039172332182769 -2.0166815313297977 -0.04055375305264629 1.2605123782861325
Ni 8.249182742758665 5.7034888473356125 6.242799457881143 0.8419082443836984 -0.48748038804885724 1.0984845423856888
P 8.018825613868376 4.057395775694598 11.169091956059159 0.07872409347478054 -0.4129168537096695 -0.06360292156262595
Ni 4.392485094910976 2.8827549272556086 9.271955435418105 -0.8507451259490381 -0.7024315543108934 0.5013466045079882
P 7.3523774927329 3.628617708176087 6.036268578299704 -0.013982173211704951 -0.20158297248524637 0.7214412626441769
P 1.9426460546078328 7.075254673058858 7.709301909221788 -0.13391307994209842 -0.46660457304111247 1.1956521872776376
P 8.602804309193782 9.295005033607247 11.499441759503311 -0.9735132450179105 0.8058212688531542 -0.9556466491501349
Ni 2.9616419456362815 3.4806744638954124 2.397747874082355 0.12146225577325533 1.058467635673119 -1.033311962343098
