# total energy = -340897.34453714755 ev
CRYSTAL
PRIMVEC
8.99214353017075 0.00000000000000 0.00000000000000

0.00000000000000 8.99214353017075 0.00000000000000

0.00000000000000 0.00000000000000 13.16091099620820

PRIMCOORD
 96 1
Ni 6.239414736733654 1.9843143406216242 11.246827551157608 0.09897358775243599 0.07805689220442687 0.9438239454835938
Ni 4.714077396248019 0.1925541689219077 6.123522189945662 -0.635980364666195 0.054097038954719734 -0.5205272912014971
Ni 2.777529323106555 1.6446361113175807 4.685600176277588 0.3855289486150199 -0.3653226488704741 0.783838851044792
Ni 3.315960905218203 4.360290493435621 4.947463091407485 0.8884382696244376 -0.3278249090353322 -0.39956408655184733
Ni 5.130134894372937 4.497132936679802 2.5480318308948333 0.2558191081209917 0.714579245417021 0.18398608533908958
Ni 7.422178377635009 6.265114283506677 2.505890149316186 -0.007081075216497483 -1.4432548210261078 0.49850322152192206
Ni 5.013515782371768 4.330085882655151 11.473577044246223 1.5990312767002008 0.7614242307950178 -1.0703289058870793
Ni 5.41396291898585 7.698596875816513 12.371585570516368 -0.2798355256402471 0.3444239510445939 -0.030591242523295696
Ni 1.9550359206450796 6.385492111585915 0.3786447849325315 0.10292563042164855 0.1591111764742808 -0.15829459411025643
Ni 2.647161223346131 1.613388411864727 0.35814539487708674 0.5441174198166113 -0.3486642143781867 0.024674362818228473
Ni 0.6088733384292943 0.05067522597598772 4.707947451869023 -0.2377295976091325 -0.03556786980228068 -0.2735116403047483
Ni 8.704754813910949 2.411261324800472 1.5333646271911208 -0.2279534920589752 -0.06400838453116074 -0.6914673419899059
Ni 6.7976829879080345 0.7170317423973145 4.768264054349571 -0.2900929417021972 -0.3035287554921289 -0.6375603075588052
Ni 0.9135298655580772 7.4036545615564835 2.654305481537582 -0.04336216903571887 -0.16883997372627052 -0.18144994918079718
Ni 7.61975375961432 3.827371095428894 3.7600855815595793 0.3012777546744231 -0.15729109254640652 -0.8846836876780119
Ni 7.583560381111375 3.8895068085855042 12.566840979413998 0.746558883647411 -0.597876358705622 -0.8824931077845964
Ni 7.827571193299184 8.841920974329318 6.909689130177026 -0.11335813860888219 0.035523132607274306 -0.10350027197819595
Ni 6.693374120669731 0.4755468233825424 0.30904559248214647 0.5427508784863879 1.4463745976020124 -0.2364059937017025
Ni 1.781118868812664 6.493074119141006 9.297210296322683 0.8369763542997197 -0.27596164450713767 -1.1542129462962445
Ni 9.223691428421507 4.907363525669339 1.2499745199777332 -0.6014368223633707 -0.5773489281762315 0.9422244622069579
Ni 6.195856792517935 2.006309124178942 6.929838725841473 0.5432640706773805 0.02032199938680371 0.38453033214717647
Ni 3.3349343284831012 4.246171197390681 0.36289504519392046 0.2929208980692955 0.16377721449138247 0.5148500383110617
Ni 5.994486725885645 5.449994438901702 4.813103379046451 0.18909383887930015 0.9137484662544522 -0.39510630789080986
Ni 5.50124965814811 3.0078361082537466 9.10578464143857 -0.46970300946077814 -1.1670787465153192 -0.4501258586597989
P 0.17890139710053563 5.662146085863193 12.397354356796091 0.11194557453207173 0.16400141468704657 -0.9055859850483179
P 3.995829916018754 5.995269042389931 12.277142883375811 -0.18098509372923668 0.8454090584481054 1.9621995982318334
P 2.414858182291448 8.381181514022751 1.4087703829180858 0.7339206260581101 -0.1953454762159668 0.7617217074307785
P 6.320335038136885 7.498251913569152 5.797552483754101 -0.28211532281335927 1.028731542061267 0.600841611981533
P 4.632275864759498 1.0369470382171904 12.536267690740702 0.13770519999467898 -0.08516496400411784 -0.4564690272690074
P 3.994436133741001 6.088175871381841 8.154672111171656 -0.16761355751833715 0.07142138916578022 0.82618363455959
P 4.779450281146507 1.0743183875484306 3.6691696131889255 0.45683001015285196 -0.5198418350986983 0.7392782908255978
P 0.26496610393023595 5.4749746141765305 3.529308507295443 0.1426157499224189 0.6095807916267438 0.5449753969415324
Ni 1.5830579110720722 1.0714049329807402 2.559560658367784 -0.29642145502338624 0.07091873849774884 0.19530228168285718
Ni 1.8496210197283012 6.509889427911319 4.854415085759055 0.12931723304129986 -0.25988376510866856 -0.5533235117959115
Ni 5.996195233193858 5.432351852908465 9.180038167482277 -0.9188731890755273 1.386892125965663 0.15128808088543622
Ni 8.446752226083243 2.2283970899592536 10.220474157465715 0.7033244984388081 0.9473849233619747 0.030749365367714783
Ni 2.286621220594427 5.236709781830554 7.0183061334751455 -0.38093207327295686 0.058454544592467066 0.503963473305545
Ni 0.5041067710752644 -0.1335567139261743 9.064314672996362 0.5731816841724193 1.1085396126288456 -0.0876602196221458
Ni 1.411218044440695 1.072690809533764 11.28278353706615 0.028255395301267465 1.1369459316856807 -0.045545549840282855
Ni 4.1271421908705594 6.840422647044556 1.59853788649886 -0.13737609879003437 -0.6427356811121576 0.17745471197847504
Ni 5.5242515618029016 7.790406663273675 8.19910319254331 -0.36353213262895456 -0.4377156579209042 -0.7225324388258265
Ni 5.327305629884512 2.949405158312842 4.8363849383711655 -0.6289509686232393 -0.5799917651157173 -0.8203199766899615
Ni 0.8268860646723298 7.465709345419546 6.921731409056814 -0.3727487661312161 -0.3403364112387816 0.2585773875924192
Ni 5.054097327013705 4.487421421454167 6.992089538437794 -0.06043429402665721 -0.24815979180352102 -0.1223379735099893
Ni 7.970141632097745 7.214073195350867 9.00466888443788 -0.5577200982017105 -0.49872253662157984 0.345017875874851
Ni 4.5166458885683465 0.32561811337181823 10.428271808434378 -0.06783650002799929 0.7376376698983812 -0.4888140192586162
Ni 8.210276830339028 7.11304646057308 4.822841870703267 -0.14385939252153288 -0.21440994904658559 -0.2118352463408739
Ni 7.158196014228556 5.89302836820894 7.08483450884261 0.26704197342000463 0.4956274426360238 -0.7422854530830377
Ni 2.3668671112181006 5.132607733897982 2.6886033161427836 0.6931053918139612 0.6290173030848006 -0.6779034872625422
Ni 2.318471393677019 5.1347208876739305 11.29840558836383 -0.9537270635299188 0.3896218877374709 0.14826292090586723
Ni 1.1680255173320822 3.43132111709753 3.803740640927555 -0.8052373713252261 -0.8399205245297083 0.22793292323368486
Ni 3.7502005179600046 2.656602974259943 2.6080579871329856 -0.5095977887731868 -0.058988562719066155 -0.4243441217100047
Ni 1.043502310994494 3.356101834817495 8.182769862676789 0.11223868029245833 -0.010760066729981468 -1.1864368393269566
Ni 3.509831523981808 2.6183953555620505 7.097837148672488 0.26725717475460425 0.47803158393113154 -0.8812402092141016
Ni 4.10188325914018 6.722571611352728 6.0137209213186384 0.26832546811811847 0.7285642468422033 0.11760534392101037
Ni 0.7011174464284913 7.537196888052693 11.184445453262866 -1.021365588614499 -1.4964861695464227 1.194345295540756
P 0.23717228688309186 5.641635006020901 8.020943647300289 -0.24630936885834356 -0.5810446318602639 -0.7458765128684058
P 8.580177654710996 1.6047109931677475 8.103002354099415 -0.836656766176772 -0.0696270162695188 -0.8260846470878804
P 1.7149906438410707 3.426645202359261 10.18562420523565 0.2664943284466507 -1.478749928608924 1.4644854482701102
P 4.115362482587613 6.07599151663116 3.8840872435609763 -0.9341393712059783 0.2745758199032045 -1.6585919098726534
P 6.940703033892966 3.9414634150426524 10.343646743815441 0.3722723407154298 0.18374697274509 1.0852040232266988
P 6.305866678879434 7.845213779292421 10.284936138204614 -0.9626634467876002 -0.08226655941040024 -0.5737241869394506
P 2.4272583484915873 8.424487678214101 5.761070457437504 0.9501372892961314 0.43397470282123324 0.5542161988135101
P 6.95698780618336 3.874975504321961 1.509135295917534 -0.04031541178959508 0.6741316789249359 0.4549194233937004
Ni 5.335686307838486 2.836751581695474 0.384069745243296 -0.4297465236724986 0.12155532970769388 -0.15886280790890062
Ni 1.39736115095671 1.0302299068527927 6.860611808141404 0.037864122035625114 0.9306485844439004 0.5683115005643116
Ni 6.691908401242158 0.716956208390004 9.061510922582146 0.3543931464421638 0.3811645009987371 0.2085879430481698
Ni 2.629311818047163 1.6413539788570652 9.15627013318191 -0.5306579518775958 -0.22772029300224655 0.7440322605708153
Ni 6.418331420478526 1.913672059498856 2.348328008495238 0.0359134260671575 -0.4113657071724657 1.3190769660939023
Ni 3.9590250717423423 7.034949692300264 10.357281531349358 0.9361296621631298 -1.444120768570829 -0.8688634328163037
Ni 7.920567943728368 7.305622210639933 0.21316955763143644 1.6103880964739168 -0.24682564637312973 -0.13497880220245143
Ni 7.702463497619313 3.7986591805071783 8.207197021112378 -0.16286241598659693 -0.5604395540154026 -0.5132451557177871
Ni 3.038643192663956 8.298202011705936 12.415280195316743 0.6691704782649185 0.13289646575212596 -0.4373202222546985
Ni -0.03076751897780846 5.017220545587473 10.14651017845003 -0.14628625679547066 -0.7618908860187911 0.6932948821169479
Ni 8.455357707630402 2.2458508409342146 5.671813539584563 0.917397375860949 0.43519906214663756 0.8332317996556231
Ni 3.5839537647270956 2.70824485568663 11.47489349408792 -1.545593725706351 -1.316930609174861 -0.7150446150892136
Ni 1.0577818352336688 3.252629236945844 12.561668698341974 -0.02173816300803998 0.6842258299361442 -0.33697135142129064
Ni 3.0356578009464457 8.393770515241165 8.12061166916086 0.382667825017141 -0.5010815237720596 -0.6617639013882023
Ni 5.655968483122441 7.7839592962211 3.6225408518902857 0.0825097857694579 0.03254682358776975 -0.1265134450439176
Ni 3.280208141757902 8.372917733937234 3.7108239205775453 -0.2528535977347645 -0.3876040859764937 -0.4595710632330988
Ni 3.5225104466374986 4.123707191966677 9.152611229899213 -0.7407929276979113 1.0582506345663065 0.042930995035571226
Ni 7.098371282009898 6.234523010545926 11.424697549372606 0.8278962463753226 -1.3530978031240375 -0.9324128754331749
Ni 0.8414362524377004 -0.12952733432190847 0.09800807212848603 -1.7857782126138795 0.2418698450297512 0.6992202464624473
Ni 4.5220231905173565 0.2859681548200446 1.4349213353062267 -0.24724113664399353 -0.040636542574439695 0.9586895497415168
Ni 5.9485458635821535 5.436137545417718 0.2701446795028686 -0.5286422069991477 0.94987837920779 1.0887326052052475
Ni 7.816852557976076 8.982513141507841 11.326766809680176 0.39759513575093464 -0.37723585536829224 -0.46009788227084636
Ni 0.061536836384362414 4.889586057520191 5.769059077924962 0.28002295906070485 -0.7432488454375715 0.2267324751676805
Ni 7.9161348168707395 8.707308582729542 2.3971148842884635 0.06751896878758049 0.9339419104831915 0.4799236587475219
P 8.559837425599527 1.6139279404883733 3.569173378082302 -0.683327743601907 -0.6265734695299983 -0.1543502647505277
P 1.8041207724674553 3.166070861425507 1.6502732862203127 0.5737144167474377 0.5013345203231301 -0.48247239331130454
P 4.506502750443795 1.1286399278058952 8.236888180486012 1.6904455640481404 -0.8630959342049072 -0.14522079164543375
P 8.507647023405465 1.6492670653372121 12.484216666774417 -0.315883677513056 0.010512212385233508 0.4840276536135664
P 6.188564163954981 7.578857489941923 1.335187670796445 -0.7146545787396466 0.4022313489713654 0.8807938657053024
P 1.789274743173452 3.2556326129508086 5.962116806895606 -1.0176709133717312 -0.6774021221460914 0.12088684288575954
P 6.988739065684951 3.8713426782560756 5.897114398318689 -0.24811402616725012 0.17189804382630394 1.2405906996615408
P 2.318696197270205 8.446932068957791 10.228528420602382 0.7425158239262889 0.8791884688913955 -0.42159561243059
