# total energy = -381162.3247982449 ev
CRYSTAL
PRIMVEC
9.23260567046842 0.00000000000000 0.00000000000000

0.00000000000000 9.23260567046842 0.00000000000000

0.00000000000000 0.00000000000000 13.51285164482200

PRIMCOORD
 96 1
Ni 7.51461154605832 1.9732109244591012 2.854022729413783 0.18169908907712579 1.143651111619998 0.28235160719388147
Ni 1.2443151810906268 8.158687342191573 7.697865840680394 -0.3570722359362237 0.06124444863277839 1.6520965319562968
Ni 1.0030856631455045 4.580267918096344 6.508194758828515 1.3801753760671198 0.33462444845566885 1.4961784084980168
Ni 6.4827386187918385 -0.007096180629693084 2.2633621727198854 -1.1773312774812628 0.08106071202775716 -0.42545638093757693
Ni 0.9190070941363632 7.394319928280189 11.969008582839551 1.3980797671513665 0.534719266431163 0.2855256340464889
Ni 6.286305703000333 2.74902676925888 4.821899054383115 1.5101703519017347 0.29595891356467097 1.395187533205236
Ni 7.433272291117393 5.53121705767188 0.4036264333575428 1.1245897241131728 1.8295795260695458 -0.2164884288421691
Ni 1.3352932762311363 0.7674704926384728 6.409212917932241 2.3456847769439473 -0.028557499922718558 -0.10521776888993492
Ni 4.4769735271452555 1.5896792570923561 6.2755035545008 -0.04312896997899024 0.6160630569169777 0.8929744669318944
Ni 3.1080551014822406 6.767536802351742 0.9908136838415909 0.7372466051075497 1.1658513018661212 -1.5990824416531104
Ni 3.913406051452964 6.100554911836145 4.9219075610171235 1.5070693443789078 -1.4247102252547013 1.1556391372198098
Ni 5.667951945943744 5.663012501971736 8.099089950072486 -0.4995249779182171 0.09464950645578538 0.3838389625071067
Ni 7.963943993216664 7.016623267624302 11.94450894073839 -0.23075290918098323 -0.7368604254127246 -0.6408348645450189
Ni 5.293357440754391 7.831040636250189 5.721746645471418 -0.3945031270891722 -0.030271140179715605 -0.6127800152903318
Ni 8.910267597409067 8.000819019803957 0.5685410803048545 -0.36464464896684295 0.8874388818256458 -0.9831769933599198
Ni 1.6428959955122766 8.458663929284155 1.8829215816930063 2.78206166144877 1.9706945230767223 -0.5112101275656292
Ni -0.035808660645673465 6.196887918198645 8.359523287572332 -0.38307560197852086 -1.638524449698817 -0.7287092570604998
Ni 6.923032345111684 8.749057071810483 9.676755740816471 -0.6612751346772419 -0.127723920412251 -0.8237966223846521
Ni 2.2756526172349094 8.88403776502687 10.310130023850743 -0.635626580871202 0.8129442530511806 0.8556402492578102
Ni 2.9233291295346744 3.386298135097984 5.30968622693924 0.8076979170505766 0.9520419625180119 1.5870154831862475
Ni 8.434308315829652 0.3787353287808416 7.175959574295188 -0.5407927263187524 -0.6576233968572675 1.6172639976581438
Ni 0.6543175254755891 5.906199332294552 0.5729044096902214 -0.5462856311125237 -0.2305801310485448 -1.9253078674118067
Ni 1.9354495677385124 4.69584167443579 1.956053050295399 -2.030614339360806 0.9775329077002649 0.1474262839371848
Ni 8.372782232410092 3.2125866615777197 0.6911214610001083 -1.1901209730467632 -0.6225322095810891 3.2988922205249698
P 4.2530828424327165 7.213296231160241 7.463052983596104 -0.9798898379682156 -1.3895053952187941 1.2935672518585721
Ni 0.6959621160926768 5.243593696812098 11.270542584120317 0.043000671931242074 -0.1323717035969075 0.06216953155020906
P 9.007440770877087 4.6549504644320026 2.6032106901629644 -2.1299131716631448 1.36100471667594 -1.8299163405836743
Ni 8.646011961209386 3.4336152385681595 9.157402289867267 -0.07425603040109793 1.9130205654040215 -0.7796685217171863
P 5.419391739187828 6.571833262399095 0.5916456757066331 -0.21603025825882793 -0.5079042031208479 0.40078896009788395
P 6.411093599683825 0.12219076474082625 6.566340785354333 0.04349509506915735 0.8735731795871472 -0.03452580169101151
P 2.287590376217726 8.719448105795099 12.91334071401371 0.3194873357039143 -0.40504259316791535 0.8089919532716519
Ni 0.13277594700981288 5.785630736349766 4.783063022375906 -0.04458807102301998 0.9217623376978641 -1.258857873401845
Ni 5.304750476009454 4.1111222994166345 6.593784705367034 -0.2745729916897271 -1.150142632881613 -1.5414532211754162
Ni 1.6580282360171776 4.158596357181248 9.551248624160232 1.2155414700023968 -0.02719712924008219 -2.1284815814229407
Ni 0.1675062393266441 2.4748737799040708 6.95865912342792 0.176180987472374 0.3999191558984209 2.456731236700517
Ni 1.5831979679926362 8.467185624211565 4.4785910796385195 0.35330299870177867 -0.06926474783409362 -0.9521522628436312
Ni 3.3464409769163743 6.943990359721888 11.787463243505735 -1.7143126004737252 1.3451559225691414 0.3628829290807299
Ni 7.08328267973253 6.743615121358332 4.850370563394105 0.04022876561305975 -2.6970059693290067 -0.5932262615281202
Ni 3.2933904253964466 0.6359640288924939 8.383048889787425 0.13003585637487927 1.7136153172963842 1.3231783898567857
Ni 2.6127812090814393 4.934855367047674 12.96062181032222 0.7168713838853074 1.240261598456896 0.3430003312241899
Ni 8.523439889859132 3.6884720823126926 5.434963451717156 -3.181991101759836 0.03169450288980348 -1.5580226954983232
Ni 6.816432681371849 2.258027573230116 7.092652851110459 1.3860117802432388 -0.3508907897158602 -0.4058082676893463
Ni 4.544408478120117 5.108862283945704 11.722654968811318 1.0739785868245246 -0.7293255504882601 -0.09891496660035867
Ni 0.8902502976137181 3.7016562430454556 13.097574588085186 -0.18571952309042852 -1.5875757265650916 -0.9714715319975334
Ni 6.125196736062858 3.857834998616479 13.441584240851972 -1.201558011239111 -0.22039496298542688 -0.32460537365677
Ni 8.772581750765022 9.299818923597774 2.5764952227285645 -0.3672432629319546 -1.4636683516854534 0.277412003800419
Ni 4.502935613966355 9.07052716463547 12.642758896487633 -0.36790840731977925 0.06554359022876455 -2.4395125588293856
Ni 6.2970524558665355 5.100026680429419 2.4342863226230484 0.6210250289079434 -0.15207715244563488 0.163746361253447
Ni 9.204547666874117 0.5074904760713839 11.938739485526972 1.9337989356019536 -0.8181365958853974 -0.24404191298040553
Ni 7.5185077056025955 7.086643348154607 2.5036878185811577 -1.819132619704609 0.4837522884649927 -0.1951449301693865
Ni 3.8250500162901186 0.7207682806982706 0.9921902653298647 -2.686397854795857 -1.4976213115921304 2.80302746506716
Ni 0.1255920566273458 1.366194807024244 4.706972503693086 -1.6696512530106085 0.1664061674737973 -0.5800814966160461
Ni 5.682465601876451 1.6647034098335556 0.6049775581282787 2.372325262349611 0.5128355789841942 0.3458244309365463
Ni 5.223060382057431 3.0332156008521443 2.8986014420762993 -1.4764529050446313 -0.8488296540938799 -1.0840765944904749
Ni 9.007440770877087 7.837143388522148 5.729895343134399 0.3163701302311712 -0.0128107786114231 0.6551870195016329
Ni 2.8737131072812647 2.8664378141038016 1.0301048833026694 -0.4031178653413767 -1.6052446045997646 -0.6751866025520114
P 7.530630116696516 4.330904474657129 7.231821454206662 0.3245696353228281 1.0506972476990806 1.368090676988444
Ni 3.268222342653091 5.016056132905272 7.447040875781798 -1.082981047433451 0.2896229440443141 -2.0378288548313743
P 2.9178264966238014 3.2589712718868245 3.1641828804337013 1.2817630601347925 -0.6378151038820886 0.04146135246858021
Ni 0.3570848687540002 6.919653211478497 2.5660226782473505 0.9991088340988278 -1.8316320377232003 2.3808546399768606
P 0.37899291847583044 0.8707482648995616 9.181847459595653 -0.34650114528859677 -0.32545332347936207 0.5062548404428829
P 7.889076794769902 4.725275220945628 11.16664253424481 0.4398810410033392 0.9623788256676458 0.050685956390641745
P 7.883740348759021 0.8757098671249025 0.3866873719454976 0.6374623485283601 0.9483717127552763 0.5248009788761865
Ni 3.2221978039606367 8.779358483242508 6.48781747510773 0.4455732062921101 -1.0198126423050824 -1.9954308494811377
Ni 0.9808904793909089 1.690130005532456 2.6093993056665856 1.536885913519708 2.0895021148359496 0.17818156284217057
Ni 7.1912210712778615 7.172257299467571 7.318559936876243 0.49251872180371314 1.0269901338901282 -0.03834260433394042
Ni 7.31191892370042 8.92688628740835 4.561141652428282 1.6675105525185216 0.7844541160312878 -0.2913491827068015
Ni 2.234678313781126 6.628179854102214 9.353838898700994 -0.5686791683163755 -0.3542972442942479 0.20805932423820944
Ni 4.087726876939869 4.732827492289745 1.5347489470813984 2.855402636234766 0.5079790222228413 -0.6335740692175474
Ni 7.9845880992379925 2.6330098478527866 12.078151829409832 -0.151145641770301 0.6171089816829888 -0.8140164030694368
Ni 1.1400329013451371 1.122657137690333 0.47678190673437876 -3.1702388463199145 -1.055060409763783 1.951509208397523
Ni 5.4479943511977025 0.7542521712651556 4.342476622459962 -2.523209422928409 -0.2987616731207887 -1.539518980267181
Ni 3.9028624159089755 4.910416660143175 9.474022494994129 1.1244845659938763 -0.24581854526485403 2.431010692005962
Ni 6.108965815496893 3.866559810866101 10.601683704895356 -0.0413695640857223 1.2046469345770803 -2.017093422056236
Ni 5.290993893732271 2.409682352079112 8.661305772311502 -1.567096375664817 -0.004469605735579399 1.2547883313181616
Ni 6.598312375131283 8.390231856909338 -0.018077441676995914 -0.08870768705005368 -0.9155662361894813 2.7431199900782497
Ni 9.248024006433349 7.921160099074069 9.805465648339794 -0.48925110679603484 0.9296245140547602 0.4386561674573026
Ni 2.665416293351385 6.560394064116257 3.2073296159746136 -0.5134953240553801 1.099004419444901 0.3624856936423112
Ni 7.331048882410704 1.8542857323031336 9.882934595031998 -0.16506508006487058 -1.2603745671566873 -0.40466078434846436
Ni 1.0012022116122525 2.3773682326360652 10.799835731841231 -0.8881099397507415 -0.448782200147711 -0.5103554928748177
Ni 7.05225189246165 0.4113135007427659 11.753019161961115 -1.4759134876013937 -0.47747853964113895 -0.4267707288736263
Ni 2.3706561283974668 1.6292502045017558 12.462929898526522 3.2873978467321257 0.9613570692713508 -2.6061100163783824
Ni 5.133901110211287 7.259985517452666 2.8423065529642897 -0.941256956087366 0.11912872254407227 0.0772379958475573
Ni 5.530459984016359 2.146109928690512 11.783639098284793 -0.3643420301247596 -2.0033768438010915 -0.00185376537928713
Ni 6.8381293044264675 6.452843442004242 9.755576340961952 1.2127158276281438 -0.7887470869796869 1.4382925919248262
Ni 2.744613583803515 1.3139013291598391 4.201050647305523 0.034942577513455954 0.5722285762305306 0.9871472908615773
Ni 3.5794073128896318 2.6061429656872823 10.520214270216103 -0.6758291212320167 0.08723495915926911 -0.4736686789767455
Ni 2.011646261385217 6.705595251682199 6.095147374762491 -0.3659404849601311 -0.47087980337769875 0.137779247765724
P 4.860929894367538 0.5920491405693933 10.196135966321785 0.11328589061005007 0.49249506765462925 -0.3643582280746757
Ni 5.6798989375321165 7.169349028717697 11.871297148467667 -0.2584357198082323 -0.5925919703782311 -0.8587230019481921
P 4.036892150753179 3.2974804696573807 12.778428342078431 -0.09176035783344841 -0.42445879291099803 -0.19111318330217406
Ni 4.352259491306206 7.655815015418879 9.799992559766698 1.123558197524865 0.13009113509284692 -1.4489454436529818
P 5.581211616753052 4.699488553630076 4.446498542728796 -0.2924393304471867 1.0318796007719455 -0.1419773450074716
P 3.644552577686814 8.892504064320947 3.3912800490555464 0.45568792612860876 -1.7668777761649506 -1.2802633356608144
P 2.426254879050618 2.8078200014341146 7.629977568772774 0.2889791398127281 0.037867207359418655 -0.11361344915279789
Ni 0.9610219122362127 3.780964324764248 3.959481369475971 1.0713948852577484 -1.6446161644188513 1.0298237466841813
