# total energy = -381158.98842012923 ev
CRYSTAL
PRIMVEC
9.27530146531593 0.00000000000000 0.00000000000000

0.00000000000000 9.27530146531593 0.00000000000000

0.00000000000000 0.00000000000000 13.57534125633484

PRIMCOORD
 96 1
Ni 1.4379128376081192 4.10609234575862 2.5386972314890017 -1.5074267277183264 1.1529595335051177 0.9873331816201384
Ni 4.056970350816013 6.991870419119387 0.6426874724267807 -0.7034787646284852 -0.732222412420081 -3.382600397477904
Ni 6.815342887444972 3.130989210123927 12.147635611717494 -0.30250237111014355 0.41573658254665175 0.49236137029024235
Ni 3.162246975032648 5.91198420628178 12.388095939226575 0.29667985089109555 2.6575981569553457 -0.5157015876780795
Ni 5.443915408550714 7.265046588879519 5.381672572587372 0.581278859358257 0.9078866081570365 1.0724793765711789
Ni 3.051332923763068 2.6078065729009867 2.5167592891857065 2.1493815648004015 -0.46728925781296293 0.7963071587151318
Ni 3.386328975753653 3.882539037203727 11.776187626168667 -0.26287935740188273 -1.9507468763102018 -1.4181670248195446
Ni 3.6754493882075816 5.304887919465606 2.094105148523653 0.4332522228329119 -1.5989888534980397 0.3023506760236277
Ni 2.3306698495455946 5.646812621422605 9.993907899808157 0.5800303316631366 -1.1932749452947127 1.0991319461617004
Ni 4.437313350177144 0.6961642212639411 8.7052142521996 0.4400242514494228 -2.960717335713882 -0.3203429988359902
Ni 8.999147618425377 4.463432598243303 0.7375153688948192 0.025307882637169318 -0.6715142959067466 -0.9574572199963124
Ni 5.2814863346392835 4.788170167151086 10.699350204822306 -1.3363966883192726 -0.2295257216421015 0.5890651881718952
Ni 5.977467832470375 5.837336582547243 3.8616955804372948 0.9389277937335571 -1.3822307159342517 -1.1979846920655564
Ni 2.0937415567181863 3.3978767256976763 0.36068956373350725 -0.036769346309549575 -0.33558578392767363 0.06128892871746863
Ni 9.064761098830212 8.839519685464225 1.7304762418525867 0.013940007119859862 -0.30283121520447204 1.4978581101932849
Ni 5.606075498728508 2.4804752385784585 0.9653520115253348 0.6915223635975575 0.26681828744497277 0.061961529304461034
Ni 0.58793536968014 1.5202218601006976 9.983577069376308 -0.4033582634869569 -1.1291858281242875 -0.523640125798866
Ni 1.1990274562359808 1.090599185677243 3.4719752516035487 -1.1701560998890623 0.0017547779075776232 -1.5216037905496569
Ni 2.428719058106452 1.0516614714081598 1.0645402270686224 0.42428344367539833 -0.41864938531807255 0.3077543635377022
Ni 6.533967351459525 4.9316776266964055 13.647833024144175 -1.533972853637971 0.03559666615768708 -2.113154207037251
Ni 2.4799836476169856 2.8039420912273405 9.723745275394863 -1.4859253633114409 6.289452093521581 -1.8809244562004253
Ni 0.10367838883477479 2.101699765113344 1.7529298909003705 0.4543116146063724 0.10222963279588845 -1.6511843045546724
Ni 0.6202848375353761 0.5087029645822865 13.474571326008146 -0.1802854965590508 -0.3621830748002278 -1.8229545645538603
Ni 7.247989310046541 7.677213146520121 3.2601997204614426 0.19184080549681798 0.08027164046755852 0.08873262675071815
P 4.274216454582203 5.42723841706529 4.987892444435956 -1.5663947216121024 -0.5400969858033084 0.25376351114354356
Ni 0.5534572202087165 4.409468896095251 8.208085008404584 1.870533085663772 0.8087235301016136 -2.7557983568768667
P 8.009667765992905 5.040718067131695 11.644764028974409 0.31001770565058223 -0.9939316607732623 -0.10137705498760605
Ni 7.819394237999582 6.968199850559429 6.274155963140632 0.9308781839562033 -0.11060654400567402 -0.770764277249021
P 7.3127216368411885 0.06141455156976662 5.387903719906565 0.17201451479951022 -1.0065120685414344 -0.19359558340439562
P 1.6068531729337698 7.446888868118531 13.288751797631786 -0.4863015372494076 1.2213598764563869 -2.788487619579772
P 7.695114477758647 2.5961196934395656 7.854176617349049 0.459771352169363 3.2085084313240744 0.5733084395582706
Ni 2.4886467789002933 3.540966796690803 4.626896795764174 1.6938990698143794 1.1641160643425692 -1.1720252918873169
Ni 7.123561144987048 8.869284126886209 10.2045425689076 -0.49286247829637697 -0.2606352985627124 -0.6009290294890167
Ni 5.953463353068664 5.779690585838727 7.991708000357073 -3.3853887588563176 -0.8401238987897661 0.022537261870567638
Ni 2.145191652251918 1.9160175111941509 12.114212991518063 -2.5616484436308977 -0.45115532836557787 -0.4918929152942561
Ni 2.512873865529842 7.505972536506826 8.548758472235118 -2.535942040003729 1.1022424667662243 -0.28857933327114815
Ni 2.2798133732860943 1.027323081164693 5.346742715949463 0.7582044383061393 1.3558311428948002 1.7499758582032896
Ni 7.757936092514364 4.792501732792739 7.5177113576547425 1.662307153940711 -0.6019147904410537 -2.758796777383558
Ni 0.7453363028328113 1.7742909094715231 7.370093084635373 0.5884023577769156 0.9779283433664705 2.7830723621014717
Ni 1.6743402641728953 8.329563627695242 11.084442158377282 -0.2410902865512493 -0.38567473016426485 0.6948280309320227
Ni 7.300515340514815 5.493807253489589 1.949134046455307 -1.4084513401936776 0.3599585563450833 2.0655180932165265
Ni 7.480094446270822 0.7266586288872054 2.7374808482964954 -1.2421081647473318 1.2572645607727961 1.0547423643027318
Ni 5.448645812142241 3.780065509989618 2.944667887954819 0.14807368771319662 -0.18712540229901967 0.5816239014025015
Ni 7.342161442722578 1.9433239978087722 10.292632886613118 0.8214972848275143 -0.2674878027081716 -1.5132952706839613
Ni 1.0409299479662044 4.949217221189698 12.267669139087445 -1.4685915000186838 -0.435008029181754 -1.6034479177106578
Ni 5.389525042549307 9.182752204884764 4.082335516897877 -0.22092872400170982 -0.07797821644769151 0.7756773982799222
Ni 9.204957275861464 2.4779338060606575 11.899614058702896 -1.2421390179852672 -0.07829086259210387 2.3418263224298057
Ni 9.212665051125306 6.301676709212046 2.4547205098478813 2.5652425887400594 0.16043735148487206 2.689073087635175
Ni 4.497083390851268 2.3351405447046463 5.153729263993518 -2.0519398403114595 0.19855678406441288 -2.24203718075461
Ni 4.540250642449246 7.137603950943072 9.48013598314201 0.7884174715544099 -0.05515350524369211 2.4952584462414378
Ni 6.769272466583959 2.362474857222747 4.948375023844382 -0.6054495430671896 -0.9950282362715509 0.5069850337406882
Ni 2.0801068640131954 5.704811079575195 6.6415858882270085 0.010712244211181552 0.723508943806483 -0.5423238182512983
Ni 8.533508949598195 2.9551480507353425 3.7909686265030307 1.0215663917713955 1.1897471346471122 -1.905647669978718
Ni 3.3067376165009135 8.809050321154093 12.877147323241472 0.1881247900978115 0.3263879194784895 -1.0404390603061822
Ni 6.751890552210385 7.779185807471598 7.984336918525334 -0.3892313371672716 1.460987976639813 1.292505129142645
Ni 4.4035419786541015 7.512975388882519 7.303818275257841 0.2074689989523782 0.45061873913581757 -0.5045422286271504
P 3.650953317844397 5.1327939817456025 8.452427976979182 0.622171998028193 -0.27057029828823725 -0.929742013469231
Ni 4.989082465574765 9.176018336242707 0.9765120538808757 -0.3753260399400891 2.302551950310215 0.28474093336166445
P 0.5261182700400355 5.199743105517457 4.652146948111655 0.10649946381583593 1.6195826184889917 -1.3819077853771942
Ni 5.5479564616608394 4.080483239256253 6.385772154708014 -0.3283488998596022 0.42946318810412487 -0.3810719412849308
P 4.214761774147515 4.167819474977475 0.11625291461719404 0.6521631450736445 0.517429883223096 0.9552800098393354
P 3.019398061869678 9.244729767234935 7.028279686292293 0.2806135414568522 0.38081945895449254 2.148420229328397
P 8.33033347769151 0.18563958753385848 11.97594885971841 0.5375042853754679 0.36964904415996985 -0.8365078993037335
Ni 6.218950298167274 0.3185249721909096 12.384579672556873 -1.9767404721604858 -0.13985772756130752 -0.6672704330287282
Ni 2.0249188221120415 8.024805057485793 1.6653960912644443 0.7350501116768631 -0.00018409098634807007 2.0326928191563898
Ni 4.452320787453793 2.9055437401324227 8.640948473053292 0.9443055131057028 2.5658462837623297 -0.8859486704333646
Ni 1.6971296791226658 5.70446789343228 0.7514042048515902 0.5891469492524242 0.030788703246082464 1.7610552559459027
Ni 0.6183221838099501 3.3874141859893565 5.674722930142733 -0.11206487371875538 1.6494153855797078 2.2565117202217007
Ni 2.7676663883911368 3.4565151796302973 6.917817342189197 0.5042704630230024 -0.6802534755519575 1.1377288325982924
Ni 7.737391300445279 4.699693069387201 5.31526141628279 -0.21578651767913806 0.22302263041626105 -1.7450910193071623
Ni 5.427090012246731 1.6763159033199448 6.962914783958542 1.7957787754700172 -0.302561249372537 0.3352386850009001
Ni 4.031518924433364 1.8641685777105454 13.057672509715784 2.1272284257421297 -0.18478004199529466 0.24440263875393392
Ni 7.544056923069203 1.2347559163037531 0.2807689312895923 1.443878570653036 0.7371201068320143 1.2171268122116456
Ni 7.480354154703299 0.6681491016407064 7.9252161489324 0.5645944567240405 -2.102800631717069 -0.2197670995934409
Ni 5.047127300233156 2.3005251207760566 10.752470782094926 -0.30610242975657603 -0.9890200824042581 0.6949259899624677
Ni 2.370006401764552 6.357059532437557 3.883946100389678 -0.7112193278058526 -1.280782184278762 -0.4393565359584368
Ni 4.730496344539089 7.436704587445008 2.468893170020144 1.2053976967001756 0.7575760606935211 4.6200697779016435
Ni 8.695214550019157 7.06468153322427 0.4448545739881732 1.512870524441717 -1.2459951585065636 -1.9419493326232298
Ni 2.909856755171757 1.0253845432222826 10.274374456279938 1.3311462385536108 -6.451508211556798 1.6148075656978513
Ni 7.914902014042638 7.180455842301615 11.653357595499017 0.8305131151728794 1.4689632815358058 2.8930687833269726
Ni 6.63086642267656 7.691209575970347 0.7166051299600357 -0.6581887824424342 -0.3384566777175655 -0.008159395882340787
Ni 9.346349966742336 7.861216570929382 4.6104164406633386 0.3493553269079403 0.3437320671838919 -0.536852767834398
Ni 5.328428633809324 7.1432618846505855 12.131630152036042 0.09985470480580867 0.23992274860570936 -0.5075933567486485
Ni 0.1761908382423113 8.601663862520832 9.195447309582262 -0.9407411927932121 1.3688113572045522 -0.12761824807232214
Ni 2.9184735099492647 7.953431615060688 5.364458541164792 0.23008827901379084 -0.16276728516962938 -0.476394819658657
Ni 0.7754439303977098 8.767905085208962 6.986236601194889 0.468698993676296 -0.8205822292124125 -1.2099619190320905
Ni 0.28095814743325337 6.610776120364307 10.10149211796135 -0.7351604120024824 -2.193450787205474 0.02004997667233966
Ni 7.219282252956781 4.314814447758901 9.479416219772004 0.23267198058056704 -2.304115695252909 2.8281522851592458
P 2.9887617421386676 9.205773502363531 3.5022210811557293 0.7194136906911868 -0.9396273909037429 -0.27584414509266686
Ni 6.703065366904893 6.410438890612539 10.099429290983398 0.30554295770868023 0.9788994490304882 -1.183855708863342
P 7.540087094172783 3.2509003035185695 1.8015157734359377 -0.5775607870767214 0.21140921454704883 0.088740340060202
Ni 9.034764774879232 1.4726210145483072 5.47260020491769 -1.8174477758030183 -3.7174197355531975 -1.2433078414823877
P 0.386212409935088 6.748198982348762 7.883186976786736 -0.29774145938639046 -0.5897670993349262 -0.5620737471847158
P 5.33125760066308 1.6129284951934766 2.9811179664528287 -0.4934905987986791 1.3137249577533696 -0.45823820335428816
P 4.718540481344033 8.998591100355787 10.922515805788716 -0.33957073671735066 -0.1463857584878124 -0.479713856729561
Ni 0.37904074707828594 3.863162933080784 10.163450202179083 -0.8995616332311088 0.4973451966580789 2.70758991549244
