# total energy = -381165.498346705 ev
CRYSTAL
PRIMVEC
9.30012798010380 0.00000000000000 0.00000000000000

0.00000000000000 9.30012798010380 0.00000000000000

0.00000000000000 0.00000000000000 13.61167737022969

PRIMCOORD
 96 1
Ni 4.239258763198317 6.216828689020617 3.9158886612612114 0.9129041159762858 -0.02059685031474517 0.5769807462035353
Ni 5.509572552004668 2.4129740201663408 13.662584667066726 1.4404242935558482 -0.027583308934907333 -1.088545943115738
Ni 1.7215188006865547 5.0580513357711805 7.331576446100862 -0.1461643865056257 -0.41332411645041717 1.6594658278371743
Ni 2.787480876119097 7.338470631015257 6.939478397964673 -0.018380559389716732 0.11047001842780975 2.1028517966699787
Ni 4.011898533059078 7.966415276125146 1.4243257691373459 -0.2919351371172585 0.21788119542463763 -0.06264441430409856
Ni 7.627062904155141 5.9341140968006 8.838661264607866 0.16284159005099053 0.9789917516339784 2.881294159289548
Ni 5.962749191028879 6.691842028677499 2.1126552155836387 -0.10886127917979316 0.7114764381219811 0.15330896797020693
Ni 4.487693083471132 3.262410514623639 7.0406535608747145 -0.6555166349269098 0.9509641560728009 -0.2221615679675464
Ni 6.856919301347826 0.24585260472953133 1.0016191396032652 -0.3435554323967115 0.9626595901328583 0.8026667823845725
Ni 6.563230558043247 3.7662170506854413 4.2824243774727995 -0.030620553099334365 0.6191347538637659 0.20317628511429522
Ni 5.149890100144109 3.1173936181307704 9.704976561440905 -1.6903105811321728 -1.5857332740397143 -2.008466342508857
Ni 5.148318378505727 2.2796752850010558 2.704286580757271 0.951014292584446 1.620915478367802 1.2389637055810792
Ni 2.6238358231665853 7.33700121078529 13.203735879952283 0.5315313556214846 -0.6055256477207636 0.2066200206885216
Ni 7.229928836686502 0.7278828909909071 10.075989359289872 -0.1555352861975644 0.9907743460912033 0.08918154136267867
Ni 3.783915194341308 2.3682218040486154 4.637213101959887 0.10359591701579578 0.12160340933680994 2.468445696923968
Ni 6.7755059805052325 7.019708742520864 6.811269622874457 -0.5759096246265436 1.2527931552650038 1.3822726249157808
Ni 4.748626775826703 0.3501740009547482 9.594612872029552 1.4744656994112735 0.31532137725168274 0.6818866402800062
Ni 9.16256054383032 7.83291193814303 4.679258980818622 0.1416685555178012 0.8604741803113439 -0.25224990271249464
Ni 9.444931031312942 7.188152661540862 7.256004535678788 -0.49052714529498104 0.7711226890297042 0.6237282867717194
Ni 1.3237337242552727 3.5488079575466105 4.918742857867891 -0.8908895593784076 -0.409938487807636 0.04311894267666122
Ni 8.92443076542335 2.87264214856091 11.629000070072967 1.8869333813986664 0.5583433336080061 -1.0382847329673408
Ni 7.338275328326463 0.8769816136795509 3.214941731106083 0.6560426826337089 -0.11930150067651067 1.4436510280232622
Ni 0.7891093539147288 3.705105909349288 1.6690502683358963 0.6878120046255057 0.681196299081201 0.800600386773847
Ni 7.478986265537848 8.272928895993802 8.73048868536221 0.4313655473331603 0.19233779973789455 -0.9824815099547918
P 5.964878920349526 5.4979380918294245 5.6917369499187815 -3.100588433011628 -1.7819171869965762 -0.7352861389470692
Ni 2.5195627876071645 2.138517941643859 2.8644143252858996 -2.227685282908312 -0.2515536479764184 -1.157433253005755
P 7.457809873995856 5.138023136767921 11.21847195820434 -0.025261859890582297 -0.5927066415792244 -0.9753544119917072
Ni 7.636242130528415 9.2925577335422 6.1849831905937025 -0.6166940056327572 -0.08754143465609439 0.600969652918965
P 1.2106255670599757 9.2477869171684 7.542965566360848 0.28806048465320067 -0.08221025225116808 0.3200012992258553
P 3.6880401743999895 4.111595905623918 3.3815628250306795 -0.32707080447812703 0.39434037625906276 -0.35704858178713994
P 0.6694594866576677 5.8655535529061975 5.621363811069817 1.026950024680812 -0.7584934303014679 -1.2764529607757888
Ni 6.03606210035058 1.794868910520407 7.751169392767898 0.8072718852567518 -1.7236215365794767 0.12272569586671121
Ni 8.275932837350002 7.314262397732954 2.3335183762756952 0.4801175199258828 1.8959502401852963 0.6248246051596917
Ni 3.3570207171518214 3.2600668823581223 0.8233105747736094 -0.1470835558857854 1.9285220034737303 0.5957917082624514
Ni 0.2316931597920342 0.5509870156101877 10.367755766129047 1.5004451541941708 0.3322996569772342 0.9751389535467916
Ni 6.4463558489926545 7.198522304302971 10.585937699907815 -0.2604653486437514 0.7734680493334293 -0.8908368517636013
Ni 1.6792218183707999 8.008210051526861 2.3052869076042564 -0.6430640109858538 -1.807803567845035 1.1200720387484773
Ni 8.317104504173185 7.0740307903894495 11.74101081215981 1.0617218809443585 0.7807851518201326 0.5568595499736281
Ni 4.40248531038913 8.358257570740296 5.40359108292471 -0.42152953507934493 0.46981330978639735 -0.9343491732239393
Ni 4.260239852051515 7.412332247891186 11.21093141439132 -0.3289983605181431 0.3076368641232315 0.35734760108479746
Ni -0.1614567328252258 1.760281734347959 0.9174613509767264 -0.045813458789688837 -0.2304790866943063 -0.5549592476271217
Ni 2.686667488189725 8.49351863292155 9.116189175421221 -0.6846600892600854 0.46560004303599817 -0.6163661899796933
Ni 9.160058809388163 1.3482860622749722 5.102854702593112 -0.1614958746563735 0.3144991384607035 0.45573960530215063
Ni 5.415306454213883 9.052930634521148 2.9152943957677078 -1.9396921611579367 0.2460527727628472 0.3641111450608761
Ni 0.8713940967544617 6.014718306503909 0.7328798497855982 -1.3461313991085333 0.9925584345748196 1.3463103478885587
Ni 1.8624715412269202 0.25404415750519466 0.7758111008335287 0.5794145524560086 1.5010977001765051 -1.7085713271145733
Ni 5.961781977712951 1.5699918145672507 4.983997206244869 0.14783766044299054 -0.8628833039734688 1.3522231138285679
Ni 6.621607461736298 2.9160458461131595 11.315291871154297 0.4256877802220927 0.12536699014430022 1.549031033522674
Ni 2.2408937510835756 7.346096736006225 4.865739568155061 -0.6784999831959605 -0.5446678930034425 -2.2511630543152776
Ni 1.9391882974104433 0.35005681934147237 5.3834730459534175 0.3556442452404456 0.1735900868167462 -0.16864379855506442
Ni 8.601595420848415 4.672495927709559 7.350455706017525 2.673116821416235 0.5138079701997925 -0.9538031681834929
Ni 3.7366147431412355 1.1498492303331818 6.799686313403421 0.7820028262773177 -1.5773651045806771 -0.014540873928652377
Ni 6.426323373199309 4.4482326402068955 7.767912413274288 -2.3019845078425196 0.06843042485825634 -1.4527128811152143
Ni 3.1971236157985294 4.5966905840737375 5.68603318139322 1.3537071545732622 1.1209310443146632 -1.3814622131993435
Ni 1.899830155554622 3.969555050103134 10.648742394559646 1.845723225708944 -0.9390802601510214 1.2529757035894549
Ni 1.6188732875337433 4.218426476393724 13.254521089128106 0.4872469318818125 -1.6576236324221127 -1.5885229209697094
P 1.08660835967638 8.2267537602863 12.100536091856531 -1.330125253488264 0.3919896166386991 -0.9311085547994545
Ni 4.182862786777311 5.511265175307542 8.053035738656085 -0.30667707131312344 -0.7842016337008495 -1.1609767473826393
P 7.672763733332718 5.814505150106905 0.8787653782371941 0.2385513221794795 0.7724036126246568 -2.4449239596529444
Ni 2.8920794161598393 1.5455975787241933 9.013625503395144 -0.5116256178364931 1.3528121535628184 0.7956273590392878
P 7.074672499224055 2.452992471112843 1.8194863494363709 0.9996886178616976 1.0118319380924508 -1.2396345063958585
P 5.4742506657172365 9.045695134907767 7.091561531740635 1.0941725452738962 -0.08477467054423465 0.6405903526343807
P 6.082293036826309 0.804861910785095 11.786678160876452 -0.7117492321673936 0.5475182179680441 0.54180368408177
Ni 9.058743214544752 8.583116066437377 0.40231051873445844 0.48932181213297027 -1.1447209476454092 -0.20233450593929023
Ni 6.708163753383776 8.175082248908478 12.882527127771153 -0.09720441166715518 -0.41537534255249114 -0.6877839796010478
Ni 1.5834118993257453 2.184851179528004 7.132450474671473 -0.10078055905418772 0.22291078742874512 -1.7722174432103093
Ni 5.173335722927314 5.261305634036534 10.271943057045581 -0.06182268973375159 0.7269987021272963 0.466699446747764
Ni 0.8344167876763082 5.830808274557107 11.875004266889515 1.231293590630331 0.5311989119827303 -0.7135379486367002
Ni 8.791029728849649 2.9752225608174574 3.415319499769355 -0.5724885147601366 -0.719142182197355 0.28557602766845014
Ni 0.2694730699198467 0.7493699068093592 2.9207805412971855 1.7458304685763482 -1.522345810922004 -0.3726366660333841
Ni 7.62457046984102 2.981983753900913 9.017981683368031 -0.36488581844337153 1.2614096932894212 1.6435481281656534
Ni 5.748660243599529 4.844613397304475 12.652189926647026 -0.7556029961275502 -0.24248768111940822 -0.786784049716045
Ni 0.6019963578717209 5.176999973374194 9.535442667414882 -2.585325989753496 1.5728530756429364 -1.731242286349528
Ni 0.658543926379743 2.911330681198012 9.07634835692024 0.6165831910865058 0.6678587014320305 0.8542528819919805
Ni 4.823185902305465 7.54646799457987 8.612108285582305 0.9384151157631968 0.4875037850876249 0.1408799981782348
Ni 8.055938308616671 3.7111323923177593 0.0027091272974009268 -0.769912727882003 1.0026353591948474 0.6829623898426883
Ni 2.6112899504436395 6.373675348377523 9.93701475598314 0.7118698169056578 -1.72858299434981 0.011801877730934513
Ni 8.789086002089757 1.3083513124808095 8.229402436751455 -0.2997114386285677 -3.1063057951113793 -2.141384662637854
Ni 2.9423559083319963 0.3351859146090862 11.19089521854676 -1.7411996546725563 0.41729775638618455 1.0501138643917851
Ni 8.159597535725599 0.8100932328063378 12.558187952492514 -0.40447257959705823 0.25699358804506706 -1.1710886390056607
Ni 3.3827262710482042 5.534971201675804 1.708006644660486 0.7142442306751053 0.456064335631421 -1.382581157295135
Ni 3.507003882016857 3.057584494719904 11.992146819627596 1.0632074643509495 -0.5599944960581839 0.4391814438331533
Ni 4.546293190237089 9.188145196062212 12.864682042092289 -0.48215126252645996 0.12598868288869913 1.0073965280289165
Ni 6.527248362665135 7.817631827776982 4.45429911372593 0.7611218690632504 -0.5457174173138795 -0.098257792632334
Ni 7.8690243353136715 5.900475533688004 5.11665702261396 1.9897808502842116 -0.9102815907517743 -1.736366494949971
Ni 1.7008911166987921 5.444546056764616 3.2171198210925276 -1.030097054950226 -0.0022276037789380992 1.2393619694607623
Ni 5.818625106827636 4.518560208428474 1.3031506808820914 0.0787145803930838 -1.2197747913574541 1.0222485054400845
Ni 0.5764154256910445 7.515182363860829 9.811106832569468 -0.8511816992658244 0.3502341299684678 0.10331772365374464
P 3.0421276819211385 9.27537109692841 3.4066220200284376 0.6933789571903219 -0.11104517420498941 0.04973104867654016
Ni 8.086266026147822 5.054861391854226 2.6437827377819834 0.8400974164272048 -1.5988417863972142 2.497269048913563
P 3.1562774534566658 3.788704760280757 8.752512318568442 -0.751487688407596 -0.537598644861487 0.39600336578378253
Ni 7.860431017006776 2.8148697531903144 6.425677944313488 -0.6593506639610193 -0.8593500940092297 -0.7108367476554531
P 5.2623379482487245 6.770855916486349 13.544844116095817 -1.2537940857256924 0.6177754116223941 0.9711398596897276
P 1.4756048151119743 1.8804114882117688 12.46720758993747 0.1697671135262302 0.34823021216456157 -0.009319477628712982
P 3.323056649557904 5.388140780215572 12.210504525826279 -0.29814383703113173 -0.4837898265711474 -1.1213578474394366
Ni 3.9765580465155708 1.2985768779131186 1.2151398492095067 -0.9768711057465498 -4.787209738217672 -0.7051270988651857
