# total energy = -381171.90808899264 ev
CRYSTAL
PRIMVEC
9.26088617019700 0.00000000000000 0.00000000000000
0.00000000000000 9.26088617019700 0.00000000000000
0.00000000000000 0.00000000000000 13.55424301479767
PRIMCOORD
 96 1
Ni 2.4581263307927372 1.7128657608358948 5.560533452623011 1.7811836512646613 -0.7906625588348447 0.45226398804872436
Ni 1.5577273923203863 8.336029433319617 12.814601491867535 -2.324021690148217 -1.6680491986308112 2.6566992992901604
Ni 7.84476719390688 8.860214123787312 10.652320658871233 -0.4383124109646387 -0.18801114733808263 0.18709917704677453
Ni 5.344244525299911 7.734960864185749 3.9493272197661797 0.12352016674354856 0.4996298789271976 0.5029103494506822
Ni 4.799417319107463 1.0496751659139394 5.213152048251124 1.3378627313418379 -0.12042841519210228 0.7193905507627353
Ni 5.06123183775013 0.3455894228587681 8.254316928498717 -0.6997095273940401 0.929929961110321 0.1758076632933553
Ni 2.897731346018542 5.874041312909463 0.5939876954133003 0.9435665780571492 0.5393847902276323 -1.168902172877303
Ni 1.3266682773214644 3.3516351698037985 4.175384530035205 -0.9173210140970588 -0.7614625402321208 0.07243183270816557
Ni 6.525035320478569 2.6511787681180894 4.060959796280008 -1.6735297621294078 0.38312239605605636 0.012590692180817027
Ni 3.2719267207939504 3.542863212513728 0.7881736652306707 1.1230555468568337 -1.666131412782808 -0.5049734026272981
Ni 5.261433679355207 6.113546356280289 1.7049069550871945 -0.7384141430530896 0.7692822933868557 -1.0165316575609655
Ni 5.756437316862517 7.78469182400716 9.704336507950025 -0.6255506846924388 1.2830447550606936 -1.4547250264492366
Ni 1.2606011139386064 7.728311547770149 5.676598289354813 -0.9830486953121715 0.6796752344509842 -0.4653323911969083
Ni 3.446716690192333 2.4027740129430963 11.57030879883126 -1.5961835228387604 0.30498194299888765 -0.7108359763245049
Ni 4.303700593349456 5.356459634425505 6.948270792951985 -0.5562288583681646 0.5519472002736753 0.49817669142043874
Ni 9.214628245270628 5.2928003014995495 2.7000734699000457 0.7570453850010317 -0.3931478986128584 -1.4542750833960116
Ni 8.408681086913466 6.815530804217494 12.00332654558016 0.028213743430054637 0.3033914585833162 -1.1636854045630538
Ni 2.991303341928326 3.8354609174592564 8.09993424831122 0.7857126710287372 -1.490212677832885 0.2707788147546175
Ni 3.4390394153893626 6.7223107219898734 5.196697305344107 0.2945095827126541 0.6086852763956678 1.7985344838382833
Ni 2.4484024001014 8.370526235057934 1.6310495340876194 -0.7416689025449614 0.28224104975794617 -0.6192571383742431
Ni 3.0237627486646472 8.834024337125308 9.368773846766983 0.10410422411078199 -0.5156967025820732 0.5205375756141423
Ni 3.722885582712687 2.3082574066232966 3.6045749810355043 1.9789966151845146 0.879723515459259 0.6567042274771077
Ni 1.7129305870405036 5.651122517032147 6.599994786956496 1.4683570154103744 -1.1374550101116154 -0.03755661809753532
Ni 0.8812826168218194 2.9297184475498557 10.560192435146954 -0.016357101201784734 -0.016557390138048904 -0.14193543602594264
P 1.3162127366066836 6.288067759973864 12.081913501250273 0.6116039927043596 -0.538212367186086 0.947784987013871
Ni 6.940580552908092 3.8718469400176034 6.004841145948872 0.27697234515983915 0.12536904702682924 1.0270693238674957
P 1.6711362068404982 5.504300424479324 4.298660818985431 0.6669081645933029 2.1148153967897576 0.43878497972568303
Ni 0.17207930795709278 0.6653743119286386 6.698249087016318 0.5965031325071791 0.089850028184613 0.07444526359376856
P 4.098386742466647 7.38396400977396 8.000961303468877 0.7203508577934756 -0.5475850666502377 0.2518817207397985
P 4.338299264837872 4.444280848487076 12.45617370223029 -0.46492847089027023 0.3618724855383445 -0.5179734144313918
P 0.9696518467674191 4.306673337875093 8.63555705953784 -0.061509786479023096 -0.5600608305197452 -0.48966479729468576
Ni 8.627460266582185 2.3794551010566316 3.357020375229525 -0.5709841623004682 -0.1697815117039334 -1.3441886735598656
Ni 0.6688036181524502 0.6666384229185124 11.149707122442239 -0.45256557844954315 0.6805509521877182 0.014064962733498358
Ni 4.468766632056502 9.027715775610377 2.2766787101810193 1.203279107695276 0.8606495295469436 -0.4735614639749198
Ni 0.7146598231155227 3.025476012643597 1.5394371417342991 -1.5653799071943428 2.250590983861892 0.6808700260900338
Ni 0.7313090446363669 6.612967436587377 0.8477878429890299 -0.49875030453572167 1.101219939038981 0.18489059943122996
Ni 4.169241784104192 7.9584816176772915 0.10604177941062741 0.6615890663732348 -0.5148058153366876 -1.274237955402341
Ni 8.35451416251953 8.986615961888326 13.132787951949478 1.5965573612384116 -0.400269083038672 -0.6194319733892106
Ni 6.366692685278106 6.115231837600121 7.817057695791116 -0.5134665276999737 0.2359660779508065 -0.5982494257743245
Ni 5.3602751196110585 2.598215758952605 1.773409731586073 0.02173533479456257 -0.09419724940971518 0.3495975248257334
Ni 7.829301513664467 0.29283478363666954 5.001027741529829 -0.682951591209411 0.13056293252294288 -0.8145367943492811
Ni 5.142496115670592 0.767770080374333 10.93937201896815 0.31299684288356416 -0.8535216602529107 -0.2445877581815465
Ni 5.210526586964463 2.4800838923824147 12.924513395693314 1.2021329099059748 -0.5948591691458529 0.3639671632838441
Ni 6.307450795151929 0.029634836392647284 0.3185828260186937 -2.69776753008538 -0.4063088614748487 -0.2190487333701776
Ni 3.877208993227398 5.101664867653348 10.207523990744892 0.39803890815657256 -2.7171037685201465 0.8023492511441537
Ni 3.2560257788920204 9.034309526707741 4.216833479173509 -1.7407983054690792 -0.6794934574574815 0.09344134508029714
Ni 8.880847378625692 5.638648103088117 7.284728055758631 -1.2977779475058102 -0.45373311639508307 1.4941618922886204
Ni 2.365517467065715 4.647057216503765 2.4918665181144037 -0.10312643357854498 -0.6926474783409362 -0.33604395451101476
Ni 3.2733621581817194 6.687786137592439 3.0446895736010426 0.28510165913519286 0.6579452989730604 -1.593485150070991
Ni 5.669070114822444 3.7143100019315654 8.231329556344395 0.15126854050141045 -0.538292585604718 -0.3088668798755906
Ni 7.198570325478833 1.5983641617238038 12.05514398310134 0.7365138407065832 0.2070504233577208 -1.4380020572676009
Ni 6.654817382105619 0.6670005235756851 2.757027921092164 0.38441129007080893 -0.7338725464289941 -0.19288107383587427
Ni 2.342587512406904 1.5998829470889269 2.2592210132798383 -1.2923686035647808 -1.5160828607314276 -0.9185685133509148
Ni 7.393280461464898 4.076725529240896 1.9327812512625437 0.07051610374269146 0.028049707048364597 0.6484759260300444
Ni 7.100729060951234 6.43525102709522 3.1732788330632884 1.1694544458363472 -0.6531190812290106 0.5601060819353838
Ni 7.79740702099688 8.105544493275804 7.109525976916664 0.8037821269359383 2.3448010887874133 1.5782608769220692
P 5.789452376781201 7.706150246680272 11.855639486240127 -0.1333759764917058 1.154138127194251 1.1930905971980486
Ni 0.24099511998819406 5.2682404308391435 10.47527473755246 1.3179958172145818 0.6075665894101924 -0.7028431879270153
P 9.102552998388184 2.721654113414354 12.738765945538752 -0.6650382012640997 0.2284926523918968 -0.8519221769762747
Ni 3.7726813687387075 1.0050376935975145 0.36427603938160674 -0.23663790720685052 -0.06449406591832763 -0.08199042293087815
P 7.302875688694579 8.042996466714571 1.7766084417392045 0.7800603578389662 0.6960454482788916 0.0863543563265287
P 7.357338961452441 4.701539011034374 9.184639643018542 0.19684777179310617 -0.12427349996980534 0.6892556790505678
P 4.6814521484919815 2.758290179904764 6.560890694247761 -0.19309241851573195 0.2976080191323197 -0.8374283542354739
Ni 8.941959967799155 4.841665482739732 13.357164411341858 0.41940811786096804 -1.3561306764130903 0.3126536006115325
Ni 2.307470231281617 6.083244736068807 9.05437045876829 -0.5488598195976032 1.2604864101442033 -1.09516781930763
Ni 1.5191002352598453 1.7454455590950615 0.02674266157845236 0.8425217095979812 -2.288838200268548 -2.0652275585593016
Ni 3.370258812299303 4.199663795838519 4.866651354173282 1.6709825702275223 0.37189875942609496 1.1596058351770415
Ni 1.90654793843459 3.9918124620895887 12.514565442987454 -0.5970831733803652 1.357418027765946 -0.4619868717634431
Ni 5.897054615545628 5.832922977414665 10.755576763660953 1.487717422214857 -1.5822674269783008 1.1513127419303142
Ni 0.2766615716753823 9.15873879601137 1.598303039873744 -1.0241392947048944 0.6489058144786115 0.42572094745287326
Ni 1.044989157409352 7.750537675064634 10.37997466024553 -0.1408108355031962 -0.679120904609411 1.1716661087756854
Ni 5.481861296798267 8.237762168018874 6.376525894428641 -0.08562519146998801 -0.7429541970152882 -0.43790360556199426
Ni 5.710503320453913 5.454106420339278 5.007249204995011 -0.6091940977112864 1.0940889844211545 -0.5552109586266115
Ni 8.293253399164106 2.921244736518833 7.684212132951978 -0.14274507641143158 0.7663509786726737 2.437045842456448
Ni 1.1011193897143006 2.9483050464998692 6.731742008671833 0.013470780792925187 2.4101724151043715 -0.2749198335061846
Ni 8.090264030760844 6.868364160973761 9.25940555697128 0.3738594826968916 0.2467909364804524 1.047704483619344
Ni 2.8374522366186232 8.793119002017082 6.9654849285415645 0.7753945769321807 0.8233235394029755 -1.0781846544860723
Ni 0.9725690259748203 7.631183371493247 3.321711393756323 -0.2610513030542085 -0.700293167811652 0.16618813792572024
Ni 3.492308033805146 7.0947002239226045 11.255782241043807 -0.163450427279583 0.18945893552820275 0.4361434283377779
Ni 6.942553121705479 1.3174907389261166 9.273921996360492 0.7173714634501773 0.38242974086440584 -0.15979688968739578
Ni 5.61922802436456 3.2093972160054642 10.492502764471599 -0.12958282799786072 -0.08877453573224711 0.8146003005973649
Ni 6.304792920762964 4.4563385225443355 13.510232971753068 -0.8777365669362173 -0.5404312292142757 -1.080349780458191
Ni 0.8389557356553836 0.8845174444318044 4.16498825899321 0.48294624762392957 -1.8495207450781632 -0.01742179502087322
Ni 0.9419988400585301 7.97664221585416 8.126582448848671 -0.7059953604027519 -0.45413626537077273 -0.9414173929246302
Ni 7.344207024575949 6.3504120470348955 0.3540992513466442 -0.28114344581839323 2.078511163042085 1.5776101307119474
Ni 6.685980264749762 1.4859277402728257 6.77946613441628 -0.6828927129470175 -0.48522630190735794 -0.256273679159907
Ni 7.788572135397323 4.102961620334762 11.339073726991256 -1.1998883368461721 -0.8904514433997245 0.1936935424348406
Ni 7.6788769363126645 1.8313588019746205 0.7461662846440932 0.9196907998808161 1.229779725088966 0.9653235101182666
P 3.571229307473315 1.7973250445549396 9.476354785492754 1.4456752575421425 -0.02733853991395292 0.46044395275635547
Ni 2.91928142860782 0.0473333163395186 11.697190350846377 2.415902889830246 2.463949608825828 -1.1879080245558442
P 7.449382911110729 6.625571502940625 5.8745988182691 -0.9381988859873327 -1.9201137248053772 -2.3704447574974465
Ni 1.7210060799575 1.5857137909386925 8.526350835253659 -0.7787673500591555 -0.35286128317866966 0.09250880596369875
P 5.473554281721953 4.5562171820739295 3.0369095029593356 0.10985861009605596 -1.7901683712617749 0.47834757250965365
P 8.628599355606028 2.4693690468491982 5.506696215783942 -0.532585765027928 -0.37014758106294315 -0.506129113498296
P 9.073010770859264 0.4264258478288117 8.880225047061446 -0.6758579175874232 0.18148234508062938 1.1010618161945618
Ni 8.984810089045647 5.20582205668713 4.944276103749273 -1.7090726922310242 0.026072271607019616 1.0894566278554658
