# total energy = -340891.08452427504 ev
CRYSTAL
PRIMVEC
9.06136337723759 0.00000000000000 0.00000000000000

0.00000000000000 9.06136337723759 0.00000000000000

0.00000000000000 0.00000000000000 13.26222123923257

PRIMCOORD
 96 1
Ni 6.584883635197994 1.806382770138283 11.38883968198769 0.028627691039021665 0.7778466380170991 0.9723048265321061
Ni 4.92365484346375 0.44700339362357966 6.097080547263783 -1.3340675259654637 -0.34477850617053524 -0.13902674701957993
Ni 2.9626670930189745 1.745490408887572 4.801295630530291 -1.2866550981197713 0.23222229463765814 0.511729490404209
Ni 3.380966806176203 4.133911726677184 4.566447747685751 0.22343966334902166 0.7005847309101418 0.33543357462052553
Ni 4.901925694315059 4.598388147116202 2.2983694894994975 1.3277503254981844 0.10354552339383458 0.6196142646033459
Ni 7.27556792859278 6.256690118510568 2.455619481747818 0.28807051195552963 -1.598839472404369 0.9770037746696724
Ni 4.889991878873514 4.611644921596826 11.526806187036959 0.9602900614594172 -0.017459847347660252 -1.3970639242923422
Ni 5.392299491012192 8.108470318688443 12.268350100257337 0.36102222172290727 -1.2445429994410695 0.22205023920066275
Ni 1.8856243920337399 6.4259654459695765 0.35609164195806486 -0.1387603807320707 0.7666240298284023 0.009510510593596524
Ni 2.906278229319097 1.3712561053675765 0.4978811361757363 -0.6173419236294013 0.48563613575126685 0.4655969577122046
Ni 0.6392429340465278 0.06242282550893212 4.995719865640373 -0.9058186698844143 0.27141490567671966 -1.1374552672219314
Ni 8.299447611206299 1.9278865903779834 1.3454393752426657 1.0307837966046054 1.7978374577712586 -0.25459423457495506
Ni 6.973126806350966 0.8208100007966951 4.997814852831024 0.281245004393264 -0.6050906170658741 -0.8520077947115455
Ni 0.4541229067537409 7.668776726823934 2.4456066753219203 1.2642366212152552 -1.0566251831477416 1.0473298738887447
Ni 7.6542604228472015 3.884008388740672 3.8101165957265275 0.722275328509698 -0.11389447072832644 -1.480701138798024
Ni 7.538256850119285 3.7435391351530933 12.492322534891594 1.0377954520357484 0.16217901676632715 0.7960572474878549
Ni 7.96000894268671 8.71255516320331 7.247060879709634 0.4826680542618784 0.7737701539548802 -0.08571312319810401
Ni 6.748839942410847 0.5374602648523704 0.22993390553706028 0.36030282705837946 0.4345238904564839 0.5816395851317853
Ni 1.9439161420227018 6.48982087301329 9.176688157973965 -1.0685633293462242 -0.31631125196877785 -0.6069196998548128
Ni 0.021485398476422793 4.563773739381422 1.3524682747400134 -0.42327788522901943 0.5187838261478291 0.4165410807258181
Ni 6.523003585349616 1.8539096205489944 7.234395812251283 -0.3231722407546692 0.26718364120419147 -0.5372255777927845
Ni 3.49857424020492 4.186512940525454 0.4551250935326589 -0.9554826127684447 1.5031545827055337 0.4771864623220169
Ni 6.107675999348672 5.628955115831362 4.711483928367132 -0.11722559198408844 -0.11622748973687726 0.21110762414623
Ni 4.972187505198692 2.5350432370452305 9.799375981305456 0.9468223659902856 2.673366475533196 -1.112816642737645
P 0.2610143815921107 5.45109867734491 12.47533338487538 -0.32140846398602707 -0.8983616993857367 -0.008671816742385065
P 3.937506677553796 6.321578540968357 12.609361821442569 -0.2553833061351537 -0.784722539201326 -0.692543348662904
P 2.3169181001364327 8.508746980279057 1.6230967627736426 1.074365023629666 -0.5502199331699233 -1.1015163872334772
P 6.433151107051692 7.844539990392392 5.997919330466921 -0.17707187471775954 0.5123074743948661 -1.8709930560193262
P 4.792165400887996 1.1614130544979384 12.587174167311842 -0.6137200106060979 -0.28773138344855603 0.14144641220466608
P 4.1570816325876105 6.301407946304059 7.974546993935317 0.42625753668263366 -0.5032188818300365 1.5877081383778977
P 4.704360790691658 0.9997039653788624 3.845486721158972 1.3596422891107744 0.05394688653010064 -0.2658124718882777
P 0.30081098298749737 5.792032470805923 3.5901365977540367 0.5416699867173833 -0.5478874283820048 -1.3358066201437575
Ni 1.3899859432701391 1.1868664239552669 2.656290620704068 -0.1432659819119081 0.6353363033242929 -0.11963677252874236
Ni 2.1987488615842716 6.414629680504601 4.876784035754609 -0.4184020451939568 0.014832437027142197 -1.198858095809445
Ni 6.069935421281825 5.7960466547395635 9.14648935256619 -0.05605570534298733 -0.5941318040615252 1.4519379506224026
Ni 8.82362935430617 2.373397577469124 10.10034825655936 0.0136597568752797 -0.0903897027381669 1.310170664743208
Ni 2.524858264716986 5.416248674164816 7.051019191253829 -0.9916181821487374 -1.4969353412686994 -0.836170827679289
Ni 0.324093249802613 -0.06993922635081679 9.310132136609509 1.0935107433201812 1.387253880180456 -0.08584939166565214
Ni 1.4415632230676165 0.7384558006140927 11.532575557038196 -0.5522511046673392 1.9237340951667836 -0.7180360936173698
Ni 4.291787859128246 6.753153151332772 1.4128513873743123 -0.891597898299342 1.442735201077212 1.2384800810764411
Ni 5.722812716699646 7.889439045451511 8.067408750978979 -0.8977204662573119 1.2160950285130216 0.3524234243103027
Ni 5.376315246183881 2.9654036247299436 5.059033423159863 -0.0933662688679876 -0.8365595784772755 -0.6919301405589373
Ni 0.8988238079675281 7.409784841516221 6.850799308188991 -0.7244900767728297 -0.41787574037684166 0.5081260893236668
Ni 5.170939447411951 4.385591091816841 7.480661918966659 0.08715859739537893 0.08965642411656817 -1.041834140881496
Ni 8.34115706639038 7.023961054359373 9.22095744828503 -0.6402738498352264 -0.15658635316989808 0.23063103889113828
Ni 4.4200333336492745 0.526356470287397 10.539261665045348 -1.0438447435536216 -1.9585758854363176 -0.37585697274289465
Ni 8.098810905430518 7.177578346068198 4.738830216613936 0.2827501281838808 0.8012169373119233 -0.08054186340980968
Ni 7.2346558733774575 6.084995407055438 6.9615119508969245 -0.7639277139431617 -0.3696097062816021 -0.46396867808016223
Ni 2.2300739944479187 5.395951220414578 2.34224098596251 0.32518515741963994 0.08260028860073516 1.786199102201382
Ni 2.3126139525777893 5.486882000942984 11.314226604456351 -0.3827624416134763 -1.6843170825528995 0.9289529419090323
Ni 1.2403465900418291 3.512166285126954 3.630095397552159 -1.5438065518989412 -0.013637388277776514 1.2423843012268538
Ni 3.88225954562737 2.5785559035223007 2.4834704879293934 -1.142873095803393 -0.7539166095640628 0.37155705981596016
Ni 1.0439143568285976 3.508070548923781 8.215322820638521 -0.3958668402059182 0.6551582231462265 -1.1370361774066418
Ni 3.7992574579701506 2.67886519504691 6.869751149491947 -1.2481733971048052 -0.15613563878572467 0.2763115716473887
Ni 4.351937188589886 7.050266191965148 5.862432014411433 -0.12560635984861593 -0.0042801154325926285 0.11401711234911976
Ni 0.7596457986475433 7.329338058304345 11.470959192861306 0.07679987986887418 0.0467807077989646 -0.37169718493825016
P 0.005173132297326039 5.614321014131972 7.800281573717267 2.264851607545964 -1.0113483135878132 1.308184744661431
P 8.602713317506716 1.7374257955671653 8.06506185788911 -0.19140423218003166 -0.8488615357730801 -0.9361736280271876
P 1.7765346394894972 3.262145149467784 10.498294335514009 0.40787132086596206 0.7891906022750086 0.1913273561955092
P 4.225603661721223 5.9606916255617985 3.7232489304934817 -1.6485990603259997 1.6888759055681755 0.373914247194227
P 6.9358936646278755 4.014954149519545 10.352224253282225 -1.1329404100707132 -0.6101019542375363 0.10375583963242777
P 6.430786091235258 7.709960622937696 10.241895812377422 -0.5677417441037705 0.2616092324402075 -0.020100627404616996
P 2.5137127878809187 8.428862001590623 5.899778423175541 0.30620835920682105 0.3926367633043948 -0.4154478476616393
P 6.905873368076743 4.083258705934405 1.670270220016381 0.692445132522143 -0.07416064247381422 -0.7642670995604516
Ni 5.482641282927309 2.840655836435518 0.5050468622586325 0.03597076166765418 0.014361153817678494 -0.7389026526537339
Ni 1.4685932697359008 1.0140390420899672 7.040157335088468 -0.48161441618638345 1.0797471138771855 0.27033915611403764
Ni 6.96486284303837 0.8203678062685649 9.4078353800544 -0.43077573626796134 -1.5940083695643128 -0.9060541829339879
Ni 2.6786114768750315 1.9892138970661997 8.99961099672971 0.2794722287635574 -1.2048950460321444 0.6174864196270655
Ni 6.31638637980814 2.0965729292237034 2.641582215825771 -0.1488128798720663 -0.1652247455711864 1.0010579874053984
Ni 4.1123728661574015 6.924576021889461 10.442035955445384 0.4747907083963307 0.5417630606518218 -0.7474369153769902
Ni 8.290621843370259 7.026996611058626 0.4301021388311948 0.12288664692460771 -0.04812565186263325 -1.0183496846063105
Ni 7.42868684532113 3.8401695131854723 8.12911844719767 1.3111515405992387 0.22269532898382935 0.4576350225526506
Ni 2.9387541553194763 8.377701544504088 12.523170133910313 0.8437183010092437 -0.7971481665591884 0.03999736632854402
Ni -0.019905096720154336 4.808285566165528 10.095733304240168 0.9994315075455692 -0.006136451915041044 0.06940692983891272
Ni 8.643942520436884 2.6278769038627208 5.679758555204612 0.9807231325027885 -1.926631985539869 0.905760048732337
Ni 3.478177111458588 2.8739201010413753 11.934672646512034 -0.6321262810274275 -1.5248302679067547 -2.066582272814983
Ni 1.1554416160955248 3.1000736058174536 12.837352970692107 -0.6175288428292268 0.11835610604410583 -0.7240753578329143
Ni 3.0663381503209663 8.386373269164347 8.041852988116572 0.9155973465377328 0.29449029943894445 0.26013779010100363
Ni 5.6197940775539115 7.835596424833695 3.625121615247023 -0.510717761310243 0.3925881694546465 0.29863980283094377
Ni 2.8640432150646977 8.700204525050824 3.7683808625889306 1.0370740004886911 -1.2509705002339682 -0.5912169444075753
Ni 3.3991529622818843 4.504258705349478 9.368790871811365 0.5339512779168869 -0.4683488094257289 -0.37910813269034066
Ni 7.41532133448113 5.9499539100733925 11.393162858409225 -0.5623732807030057 0.9024106726441298 0.20291274704026344
Ni 0.5286417461069549 9.075589621707552 0.4672174828316283 0.08666751669157333 -0.09985907568118287 -0.5626728142212954
Ni 4.7699831835752375 0.2865248376381118 1.7108134777461514 -0.3869615672964884 -0.6558750467075931 0.03672846576928513
Ni 5.934422733409148 5.625122159163349 0.09114462870184567 1.1149442306036088 0.09579441869350598 1.163767936974531
Ni 7.890916047666372 8.566350066658634 11.600875582771419 -0.25270910173710026 0.49106064920094783 -0.4538544724642958
Ni 9.1494397324506 4.943236449514761 5.546340854522585 0.2806760192636715 1.0647082172661921 1.0864592357900387
Ni 7.625880233049996 8.94358368142476 2.4687756750960186 -0.4044137013346648 -0.05106879365135721 0.5585503074124897
P 8.502567130521172 1.543621357705527 3.595401249820504 0.16859237649183867 0.7290368156032476 0.709700577168481
P 1.8365389871386353 3.2568804974013164 1.6680954928288556 0.9810488912733234 -0.6931154191162902 -1.3673098329583613
P 4.585539133983239 1.08276042121577 8.191728842926526 0.49641522864464177 0.17583465987654878 0.5832362401949439
P 8.567138405264114 1.4873321690017447 12.385097610910654 -0.18854825078847529 0.549781302970608 -0.11606525312740011
P 6.349759380773374 7.687551871542904 1.205171283919934 -1.2502978996469758 0.07013635180576953 -0.38522890087609785
P 1.7143555646528335 3.485960822517273 5.914565661914385 1.24125687249063 -1.009575023737474 0.4508159427482881
P 7.005865511886505 3.9975835161091853 5.875296431861973 -0.7400079699027707 0.6126843702527319 1.6286683828403437
P 2.281832501511023 8.34135641638257 10.157999368164333 0.5693509975724195 0.7410595510957366 0.6911973761579708
