# total energy = -340871.33980930975 ev
CRYSTAL
PRIMVEC
9.16196997062416 0.00000000000000 0.00000000000000
0.00000000000000 9.16196997062416 0.00000000000000
0.00000000000000 0.00000000000000 13.40946915812238
PRIMCOORD
 96 1
Ni 3.370468847404875 8.373051016898456 4.959170007407283 -0.6292769845040904 -1.1598724585748668 0.1443738702641062
Ni 2.4325763103240594 2.737798176339907 5.932617401168405 0.7957718550369521 1.3965579311902012 -0.31827943143874216
Ni 7.124512727607358 0.4000180202184704 3.7414434229673383 -0.8126197798322263 0.6288614942332267 1.5545074832562131
Ni 3.9501741703448023 1.375605650153612 4.543999921330104 0.9034727953600569 0.8857280697821261 -0.2749676560249845
Ni 6.31043505206638 1.0457014371651192 1.741447690165193 1.0604209027447478 -0.929709617569399 -1.1477998436810488
Ni 4.236852209236436 4.777472568484713 1.4276392259374808 -0.2886153287154062 0.04304849445004199 0.08174076881391729
Ni 3.2742864871528976 7.339232654723507 12.54528201987377 -1.7155179336357358 0.6863539320227405 -0.38559682573847787
Ni 4.671376956776017 2.127033775360905 9.793726229497441 -0.1567771290244655 -0.002539992813034335 -0.9685268475469127
Ni 7.1767084702588635 8.45523388710804 0.17714943705277725 -0.3955027719982801 1.2569899669551707 -3.2684153920923515
Ni 5.35085613217775 0.5077939372110508 12.012403525210454 2.311171830768742 1.2686766592644796 -2.1202527657552452
Ni 4.7714989640948975 8.671163194254031 2.926080323046159 1.1200560979088774 0.4364393623116419 0.5300696834742936
Ni 8.265984236377918 0.7370548267920426 6.6722165070080734 -1.2535207774596475 -1.7253881415615964 0.7360744391763194
Ni 4.102895046991803 1.2405032416686 7.441786248859959 -0.22251380910064258 1.0205011837316746 -0.17661961767168938
Ni 9.11093775055951 2.3583185440978944 5.513477433523577 1.1332823667911642 2.0347777267098763 -0.6692992905332988
Ni 4.295323901285218 9.18230949625992 0.45504206298521643 -1.7533334618216128 0.4739643558402934 2.4149703507136473
Ni 6.143394016429682 5.069950134337626 3.0290517030111017 -2.079245212994632 -0.7481655660128986 0.05613001022434849
Ni 4.607682941871107 6.152922465149634 8.556904267343914 -0.3042016131894374 -0.7301981829012005 -1.8720942595033048
Ni 2.595567755254777 5.197777938703751 5.330518391342606 0.6400177679603622 0.5664471936620632 0.2812879418160575
Ni 6.396227738425639 8.130726074404214 6.112008772261348 -1.2039614784742814 1.0137042154144993 0.2275418584428533
Ni 8.746437939141652 1.1518336967535079 9.032055021916198 0.5033062993375202 0.6240584164176285 0.379426692372024
Ni 8.565250821943796 2.1878600936799066 1.1368776970511525 -1.1762339306520257 2.2713552129924364 1.6656999816723441
Ni 0.18725783846885713 6.109119086947624 8.944879794295554 -1.86165918021291 0.5154856150125317 0.09261036453856954
Ni 0.942061233395795 3.089003969399446 12.909818479171319 0.09291684003539481 -0.7481917912651437 -0.7873229529386506
Ni 1.6792333334028524 1.8304608089523986 3.4760294000700664 -0.15868334490824285 0.799658591685868 0.9138029736414714
P 6.947173637777174 1.6508770364910719 12.907874309153652 0.05052166289863557 0.6893477245437418 1.3881406536607837
P 1.3916116116091468 0.22078148641722678 4.826309532962437 0.13494486364072242 -0.5263374701253709 0.9403347013834128
P 1.3496589513315889 6.679186017528522 11.690174294426484 -0.6630103722007936 -0.8558598214677842 -0.7399529482951193
P 6.237652362997823 0.55835976541325 9.659027863886033 1.1320045285200053 0.32135241393711106 1.8228352653671767
P 6.8813265599403515 6.68613079073018 8.115893761295819 -1.630187390588031 -0.13048759920031722 1.670172415621401
P 4.508852772311374 6.605752828595431 3.0732224762070257 -0.12689114009831048 -0.874150649357172 -0.296544867975128
P 4.630981831385375 3.9814073258124143 4.9176012336695 0.32647045188996676 -0.5035459261521521 0.28588404582717214
P 2.7061160843460668 2.859194277820065 8.199515060783321 -0.13572956432554686 -0.225757769959237 -0.32017227758608086
Ni 6.729576852105192 7.178669131822392 3.993701773252129 -0.5467430303649164 -0.2213107899314769 -0.809046203548355
Ni 3.2655734537560956 3.5351277708615845 3.3035837183757732 1.336575122878666 -0.2504524444924396 0.28154273813934094
Ni 1.6018604974028572 8.762398090747572 11.616073197886003 -0.4466546122817469 2.397166232652691 0.14337165425183696
Ni 2.3672972746224645 3.754978401134631 10.727642471631661 -0.034097198794025146 -1.2373932757701656 -0.5579828649447938
Ni 2.2389655619105726 0.8576996467385121 9.536452616876783 -0.575532443792783 1.6008924982786557 -0.727565887484676
Ni 5.557284476513556 3.013316935865289 0.9470352668670083 0.4817951647386219 0.8146643210660809 -0.3663063529399821
Ni 7.8496368371656295 4.677607096323679 4.731451077364338 -0.4549096532016876 -0.5357978442073223 -0.5725957297619623
Ni 3.3556264561295652 1.7831117483901753 11.688229208211823 -1.5403373624034182 -0.745556924745458 0.9082295933187521
Ni 2.1178718054378747 5.035739338645028 12.758224524824852 1.8954650730187612 0.8038551462657189 0.4942596157542197
Ni 7.874355832017966 3.707235375865718 12.26789421848409 0.09146133853579087 -0.684325588738802 0.26105798792242785
Ni 1.901117920998812 7.520996976026515 9.563955018191734 -0.28915551748959234 0.9156955626784941 -0.11474627720566047
Ni 5.358891179800248 3.1358307976760567 11.932858386141707 0.3433266042153571 -0.027733461359526427 -0.13368425176074397
Ni 7.973891473261773 0.5897569201424843 11.370184249091702 0.6316110319539057 0.46215219369671373 -0.28731075097136966
Ni 3.1221703005208177 8.31293933223345 7.725731272123554 -0.2998271382708256 -0.10861419616599359 0.010407311376253045
Ni 0.09707656851646504 0.4814532736823373 0.05758298096624852 0.6359960483954789 -0.6493362171478106 -1.459910170194602
Ni 1.4515583808155372 0.9776463245768465 7.0270715126879555 0.7148340417403043 -0.08288439550005725 -0.2881476450503683
Ni 5.352954223290124 8.424944414542502 8.284692062763753 0.785870279652524 0.09691104879645246 0.1925514584105974
Ni 0.29739113032263337 3.8201933030467643 9.54632189087787 -1.015694763481967 -1.0538944144801399 -0.15501283803519111
Ni 5.843018832503117 6.927594508051657 1.2238577747124377 -0.7673557657881042 -0.9382346243212745 1.3364324266532146
Ni 5.85382079504237 5.527013327887863 5.891704624477112 -0.6405299317100904 0.6643422036383397 0.20846041633137002
Ni 0.6822671628493108 7.56524012878483 1.0821981443535125 -1.7317806753515015 -0.9842504289297566 1.2700228888797287
Ni 6.560904985822195 1.8917452257675516 7.958064170219737 -0.7655104850492493 -0.9544076345367113 0.5567351085806218
Ni 6.615757699751381 3.1447637183510118 6.05939066279639 -0.12941647762332548 -0.018474661765419797 -0.7307486560880319
Ni 3.0442294223855946 6.650206706661976 1.2868838820099588 -0.4564777690197558 1.1070422021477127 1.4621647705567333
P 1.2893915131778921 5.695547764622013 2.1576906429203584 -0.8409489657942226 2.0981690464823286 0.5972430959969972
P 5.237229381192321 7.655439722677068 12.68476751476996 3.046430973132618 -1.752972221827452 -1.024230825977436
P 7.588447398599867 4.267544808478589 1.0413916465133257 -0.6554814108136002 0.11849854515924109 -0.26478428773407947
P 0.6403823011491833 8.603190539395065 8.206688883233054 -0.5923472013572766 -0.9615172489982989 0.5662918990311215
P 3.430571370099957 3.2923997016907296 13.238699300119409 0.21273333267511105 0.5563412155763129 0.5313328664574334
P 4.295928591300139 1.5666876948683424 2.2517987331817615 -0.7615764401021657 0.7761365973045279 0.8716687634755826
P 5.696747982681931 1.0659035808454023 5.964116253763785 0.6094036426189311 -0.32242019307999314 -0.35700924390877226
P 0.7990612068371304 1.9938370566198838 11.162967059145522 -0.31418263566154925 -1.1336986283929764 -1.7866220486714135
Ni 2.3345249082077832 5.052908870280788 8.471123491545555 0.9808218628641817 -0.28624837114512636 0.3457910065954496
Ni 4.6522284396368825 5.3839216816299675 12.37924605233763 -0.8003982980653699 -0.3699022978213565 0.013437099341512342
Ni 7.682504181829701 7.970153389533177 9.85024733814961 -0.2426360337718144 -0.316451634201384 -1.6558403152694452
Ni 4.503227322778633 4.003762532424609 7.2586256433406815 -0.9636983158100177 -0.9689464515828345 -0.3321965557404666
Ni 0.1663438097255547 0.1385473091760716 2.846924567699142 -1.0756336059294445 0.9962276558962908 -0.8478508351203786
Ni 6.329666026934821 2.8391204017187044 3.5754202821890892 -0.22575674151797248 -0.766713504218415 0.25147908598474106
Ni 7.9599561170088435 6.496807844240672 6.413870027709429 1.0792732595645607 -0.7406797991588148 0.07175049037042482
Ni 0.02800264487275131 5.570853353969565 0.11803732330637488 -0.5986708295824592 -1.0591744319321565 -0.41924048193485214
Ni 0.7603134036386485 4.611540131208702 6.960573934986598 -1.1362931285930302 -0.8101852022488047 -0.7044830375232835
Ni 3.077331619717505 5.989646999151302 10.582028535053954 1.4880665780241598 -0.42307553941022624 0.1859298393290217
Ni 8.65437846535504 7.557223405102178 11.949151117255832 -0.359326064967407 -1.215157604300417 0.3013564304311584
Ni 1.7387861379025527 3.8828978251999873 1.4839990839190047 0.31464312023773555 0.4298352267315629 -0.28239043085161686
Ni 2.1836181016055436 1.794600858673656 1.2293787777880558 1.5516088215521795 -1.8649869590345625 -1.5177018843920893
Ni 6.870515435431175 5.775925726756763 12.657881714030825 0.5501597693559492 1.0469629774676292 -0.01960389027385656
Ni 3.845324586545638 8.735370279474632 10.625207066907215 0.028260794617906166 -0.7206470488776556 -1.3434967896991636
Ni 6.390345753735055 4.150986227117791 8.745790187868094 0.25781197018130436 1.980725682060479 0.03021509013079958
Ni 8.53385275101757 8.248109233058084 5.007122841787434 0.7831040297612964 0.5676288726749902 0.8911425559294781
Ni 8.063532186988706 5.894728990748704 2.3433579634105777 1.993299662070748 1.2265298506931006 0.13604760978659794
Ni 0.8842611137423706 4.117975649485111 3.696172297183658 -0.5354224631457746 0.5577784622434716 0.8070857373878745
Ni 0.9874129845147973 7.316996553720311 3.8159329870325553 1.9991170400834732 -1.4886036814745525 -1.4484006268931056
Ni 1.3894860345870035 7.020551854890727 6.7852046686898655 -0.23434885406235767 -0.04222908387254017 -0.06566854584240303
Ni 5.522835469602961 6.994009628023707 10.381396052891457 1.0197751041989276 -0.11180802051294293 2.369263849815468
Ni 2.429351296911152 8.942485771554665 2.4972323320708876 1.3963591849158339 -0.6006572638848687 1.7042819557106004
Ni 7.2001905991715915 2.6097504846956285 10.237553125099874 -0.16003471672981473 -0.2627675144143668 0.4098868086340941
P 8.456635668506266 3.105211494193288 7.510187683911323 -0.8586960053649985 -0.7996902162547518 0.9924969852092649
P 0.35509688168585046 5.849633774787545 5.18721143879152 1.6711111253855866 -0.539320255538284 -0.8087286723079363
P 7.675137958011585 8.16408480689397 2.0554971142018807 -0.02833998459527377 -1.0596930234397879 2.7814314840639387
P 8.681507058297132 2.2728098788062483 3.439287152087736 -1.49701298858417 0.46395093746834937 -1.1748344792013379
P 7.8452757394822665 5.320383420213749 10.675520024739539 -0.06966969658199615 -0.11870731873593748 -0.6763690528958868
P 2.089213163518634 8.884087375265267 0.4873242640090154 1.2846969459521358 0.49875673229362494 -2.6227072586154314
P 3.913911093389446 6.83099069718322 6.388310880215149 0.0726999987678877 -1.127171625907736 0.46428775198247785
P 4.441209948369638 4.347647911515647 10.0220626763132 0.7513071969656738 0.40272680055054516 0.2678014772938484
