# total energy = -340889.0762159805 ev
CRYSTAL
PRIMVEC
9.13008482670235 0.00000000000000 0.00000000000000

0.00000000000000 9.13008482670235 0.00000000000000

0.00000000000000 0.00000000000000 13.36280202699500

PRIMCOORD
 96 1
Ni 6.144127140011598 2.0136767405173575 11.407035834613325 1.5708013353202301 -0.41616878498806387 0.49245341578341634
Ni 4.5428563335020975 0.30722826920429075 6.03210282455688 0.08809062229134507 0.26207743032587766 -0.7320599187002876
Ni 2.506107868494196 1.6341299819908874 4.7741149924408885 0.23723594580216564 -0.7459940122828765 1.0182635526504076
Ni 3.3902744183116624 4.24615596517238 4.930339874814333 -0.280303209305285 0.35127774074163376 -0.9015439537684603
Ni 5.004080831360741 4.522624065409084 2.654133021637344 0.6311780581815452 0.3055578701070157 0.20106001010224084
Ni 7.09096259244208 5.888703885422184 2.6967339976851785 0.9389900144300602 0.2576679884042724 -0.9912926804885186
Ni 5.237856654700816 5.051027727811226 11.445640572509394 -0.7623901942527127 -1.2825822136019782 0.09559927196356438
Ni 5.852320497177302 8.12697158389082 12.234994842887009 -1.222537698814572 -0.49443367943823885 0.7941104081741291
Ni 1.7061572216054102 6.549512038747105 0.42208291097165945 1.2448523031513723 0.5044275574261571 0.6306818352714171
Ni 2.87515502940922 1.6855962704567342 0.43576799519757003 -0.015348714541928408 -0.5882866581346577 -0.0473383800746475
Ni 0.500504862035797 8.996730859768405 4.673199251259081 0.22487356758207078 0.437181382683989 -0.06623161743472464
Ni 8.57100413192133 2.3219449263894254 1.168778685766701 0.27346895999227094 0.2392879432351879 1.23227523781731
Ni 7.01906317401587 1.0026294011292207 4.7686497236320085 -1.6780111949395293 -1.230693752262803 -0.030169067384212562
Ni 0.7484012746505357 7.599855263456691 2.589737619973611 -0.08358193578771411 -0.046422553128597464 -0.06768711893432859
Ni 7.631491007564223 3.6478158525931246 3.95484143391309 0.137885177215969 0.2998729039070964 -0.4028214171468804
Ni 7.778777536840617 4.0703470507323685 12.755021652412195 0.33924420661586735 -0.5559529789989587 0.29665311141821815
Ni 8.325048775351977 8.949382239583223 6.898586225979694 -0.9830350684654167 -0.2589712805967282 -0.1335749798763893
Ni 7.181122180627326 0.48101304382651267 0.30875299337917034 -1.0620720651949258 0.24088896917372063 -0.26322619921834023
Ni 1.9421607856560879 6.185586855449491 9.22464973365827 -0.16534944407450877 1.0518272475384658 -0.4541889729855791
Ni 0.1331677660187073 4.790445975264885 1.4558906389559485 -0.5253396249884759 0.1810722541264043 0.11508180616820826
Ni 6.509896600454874 1.9089911872887966 7.022713381950701 1.36187272110319 1.7761509739367602 -1.5446326473446623
Ni 3.4625755604725708 4.410433582409559 0.47437821114456646 -1.7229129405482264 2.0924488561690993 -0.6091447325305896
Ni 6.004765524410624 5.5732229324952955 4.757838790126172 -0.5252974588966307 0.04498864889554833 0.34849040780448365
Ni 5.530119801779088 3.03998045173917 9.329333460869856 -0.1498292369517226 -0.9289208031195163 -0.5360793800034832
P 0.18161838744884895 5.6384573889594565 12.606240528241022 0.20360077424622355 0.08085913753991235 -0.3864972260655602
P 4.242595232069368 6.492220756128126 12.790246432885866 -2.0587553205713967 0.16092920351962606 -0.3048312763536363
P 2.554479058185886 8.486934310350723 1.595879491388144 -0.5881285352902387 0.33299899703710395 -0.5472235695457608
P 6.521236165875235 8.115531587536783 5.940152826726759 -0.2553789352597795 -0.4385312118436641 -0.055741516536678186
P 4.761521866366569 0.94801323337994 12.667869514186261 -0.3546821384374924 0.6220249309273674 0.2649295550626921
P 4.106566097449419 6.160031747871718 8.301560718990928 -0.3295388064026454 1.469022416908515 -1.2351368756358214
P 4.694141839955722 1.1520980206918205 3.9240803519370155 0.19546348985106982 -0.46970866588773297 0.45708249248329025
P 0.2314896500862437 5.652745971795903 3.4322627656640807 -0.9538707881966346 -0.2994052202420586 0.8121544101600336
Ni 1.6374898532265505 1.135435615786699 2.5708164320692966 -1.0582981999747902 0.15695684913543936 -0.019970015364023673
Ni 1.7126304517849888 6.423462086900471 4.8059452073563556 0.561844147672413 0.7013699458155985 0.3056355174224865
Ni 5.983921540630683 5.426319866783841 9.332153744089137 1.0028829564292792 1.2787145031164557 -1.3606038816930954
Ni 8.577495622270668 2.251451541034662 10.282075165208898 0.2699365213589803 -0.5669231048572172 1.1901271436943504
Ni 2.5378349134505234 5.271610578500397 6.9532535222042995 -0.9923553174250782 0.4261652340791435 0.5727240278097104
Ni 0.5272459676394192 8.94030693521298 9.218008509916908 0.961057792863377 0.9599699591158369 0.5529357894391896
Ni 1.7454896272663765 1.530914372427929 11.490927619528781 -0.6776137239362652 -0.826997388710137 0.06449278036674698
Ni 4.2061205429756905 7.059052945788161 1.7495652971565936 0.35101625955013094 -1.6245916416678086 -0.1319058197040825
Ni 5.5008852699948685 7.972317076116654 8.031164125199103 0.23240792828590298 -0.2597037878873785 0.5662757010812054
Ni 5.472472445849807 3.004756584273987 4.918981136215724 -0.6506065992198021 -0.167637211667421 -0.15998869398322768
Ni 0.8002893730378161 7.308678596479082 7.107434178573219 1.0079932810726513 -0.5981077579901376 -0.12089944129124985
Ni 4.859588108057479 4.637517053532947 6.847086156199793 1.1753417578550598 -0.5464473535013685 0.7754141173162066
Ni 8.261786417221792 7.1644962960617224 9.0258914378651 -0.13279747828041646 -0.7284547178475326 -0.2358020415691165
Ni 4.700532899371384 0.2296289387877978 10.248922000994389 -0.2715995108837 0.7129702490586882 0.23876215263870496
Ni 8.280640042498 7.027435461850388 5.074858162355258 -0.710352608930183 0.28246859238771993 -0.623331565553933
Ni 6.857926305977245 6.169572686570816 7.170933918910271 1.0357311133075517 -0.6437556377362397 -0.8669263636945909
Ni 2.5784455309946224 4.940654131702725 2.7026804219672087 -0.9207287542270272 1.2180768348297408 -0.1423298432508839
Ni 2.494886994177268 5.498831000896978 11.635753590930147 -0.09428980912352149 -0.7752110001664649 0.18988085355696974
Ni 1.0148545847828963 3.3111896230852715 3.89759488871002 -0.14460912620336386 0.9117175518673524 -0.5018073461944905
Ni 3.5907984725205306 2.639699270451313 2.829332959415891 -0.05568983736313635 0.17855745812435056 -0.5189622607072224
Ni 1.1043933271963355 3.414706525449254 8.477228117115306 0.3682876450360689 0.3970891426487935 -0.3957290290764733
Ni 3.4684188147954624 2.5839509721769724 6.786218619333505 1.2984130099866478 0.1621841589726497 0.6949113346744483
Ni 4.3736758606846164 6.973704912334422 6.11807900785033 -0.2937004565477974 0.08880384630828576 -0.28087630819993564
Ni 0.8679661272072482 7.38703298491511 11.440829930786375 -0.17922234540185908 0.5996370501504705 -0.5723064806563176
P -0.1546106833667448 5.39369807350932 7.8587570803852005 0.9673567384982114 0.8595398414225326 1.2954068761704722
P 8.618498833464587 1.6016725302441988 8.042175007563804 0.11460280964926069 -0.23684770922481144 1.490618397911736
P 2.0872195742218804 3.4616077714753417 10.483038376500472 -0.9454383411585652 0.5628736173781919 0.4162271490298251
P 3.771647193814036 6.366289495384924 4.076790151631845 1.4051464441901607 -1.3836692481529913 -0.8492330601798859
P 7.104794671034551 3.9930974025667614 10.740018310561842 -0.4007406233584518 -0.22096831899039363 -1.6315714154197514
P 6.544390061129695 7.861651317292008 10.12844231393275 -1.2537321221395055 0.36914485083004167 -0.36064889754388857
P 2.3181650712493047 8.759001709675498 5.931480159099704 -0.2458416851933056 -0.5958904386238448 0.5311438903750788
P 6.842405161682063 3.743060898056263 1.4660734226220755 -0.06270354967680813 1.4562057247598212 0.3387191873503328
Ni 4.899057464991638 2.8859833100763286 0.643770501931252 2.5019438286814135 -1.785779241055144 -0.44088865633224716
Ni 1.533662527976664 1.1490485723420614 7.330512281459962 -0.4038490870804464 0.2583645002506647 -0.5649986341409947
Ni 6.752811638759347 0.6022505279331529 8.926632807088925 1.501813238186291 0.31544350465184384 1.5640938413930676
Ni 3.006993455069469 1.8005896895142717 9.317601301799673 0.1687677257274384 -0.13153223841474765 -0.44419149545323505
Ni 6.23113684891341 1.981365370128741 2.4925770827027494 0.8521252941260163 0.048342395859129646 0.6650821671281578
Ni 4.156078547751048 7.0144524811517135 10.475261370200096 -0.18675207812000097 0.3839929715864677 -0.20212007593563902
Ni 8.190580885246426 7.213716583647208 0.5126223106878942 0.362275377403718 -0.15434692231641803 -0.45158830213793844
Ni 7.809920256364655 3.5831474613914938 8.478524589168197 -1.1594471981119905 1.142365560039355 -0.8246854527475087
Ni 2.875985867133256 8.681633370406457 12.663793844296045 1.461280311069251 -1.216339283313344 -0.769416762082191
Ni 0.14991873274716017 4.968345679142305 10.318889493460093 0.12331190738748442 -0.9627989439242 0.4127283918479473
Ni 8.724216086284533 2.042390857463444 5.88369512085728 1.5425233143111432 2.050047251274437 -0.1135082910335013
Ni 3.9510351015268186 2.913693117685668 11.514512454789555 -0.5240764420053361 -0.049245367289373246 0.6859466692819929
Ni 1.278111452198937 3.498721566510585 12.958924751034973 -0.691287364768616 0.5716868447944476 -1.8682682008889953
Ni 3.208658769888277 8.598768720039947 8.190609188509553 -0.7842859658845396 -0.31615081513151355 -0.20838122635400239
Ni 5.868416836819892 8.014078084355573 3.787619364302266 -0.6146618056940769 -0.0075999238344449755 0.26546254474802666
Ni 3.038921361893146 8.417500014841984 3.818941946498431 0.5815264565926888 0.2997793157520256 0.11943776914405882
Ni 3.7336112602059615 4.560760429950833 9.541387899273067 -0.75354688492947 -1.5209134493508514 0.39044232675623725
Ni 7.399522941030292 6.240102592265098 11.225074155973006 0.7137588063982545 -0.29104784941629874 1.612259859575333
Ni 0.7842715521251886 0.017839272846091502 0.44127434938840765 -1.0890550215416728 0.1464415514264123 -0.6270059290817266
Ni 4.725795844233013 0.2278577023211712 1.893428957611657 -0.45118900981699067 0.69597448583164 -0.8649689828579039
Ni 5.782676209716333 5.336005067155642 0.25462163313699215 1.4497789952978708 0.48005992721507007 2.1126137611527485
Ni 7.975065231665388 8.85288637249159 11.469800603117577 1.1727284886019287 0.7378356448418002 -0.3566402906051277
Ni 0.05015703429412369 4.9198192780076635 5.7183839780117385 -0.2664555047889153 -0.7925384357013189 0.21413355545674734
Ni 7.891634516036347 9.233985245447577 2.5538983847875487 0.49544180898777906 -1.4253188053729775 -0.2885063139413676
P 8.700377434664109 1.6724306880604682 3.5975602133823017 0.8297551539609321 0.6616060356540993 0.38729221116302975
P 1.7270012053853512 3.2267272078648443 1.6015985765566745 0.9306377858106231 -0.667755857305579 1.1476646036547653
P 4.820392653669705 1.3423963798356278 7.9724750265850695 -1.643381520680802 -1.2797270035413701 2.469020852701148
P 8.812923990973935 1.6287249717422123 12.530179617126729 0.1689001375402446 -0.5877608675381748 -1.1555884864875323
P 6.440827508341315 7.8275504502670055 1.5858573972158965 -0.6256658701140644 -0.4244050568549272 0.011406699175044872
P 1.6475420766789004 3.4270138798668457 6.164407797554472 -0.4955724210283723 -1.048834483458729 -0.7094794622966104
P 6.9963110024961095 4.102028445264298 6.178064578517255 -0.2933654418058818 -0.49997260697859697 -0.21081066173110144
P 2.4659720153638323 8.659118581093566 10.327361299219797 -0.2668689381772501 0.26839720189631844 0.1436645029019074
