# total energy = -340889.0560415966 ev
CRYSTAL
PRIMVEC
9.07132833900261 0.00000000000000 0.00000000000000

0.00000000000000 9.07132833900261 0.00000000000000

0.00000000000000 0.00000000000000 13.27680596805059

PRIMCOORD
 96 1
Ni 6.259452324516419 1.831038529347176 11.436042964202207 1.024048534763301 1.1871256378638653 0.017681990660795354
Ni 4.645644891990514 0.2844995312171515 6.151781101373211 0.9453730351382688 -0.43269712166039026 -1.121495144348249
Ni 2.956336794711469 1.351999828844495 4.923836221565309 -1.2414422490285588 0.4414244742310591 0.3770196255924281
Ni 3.282314974202528 4.365177566165982 5.013348459882992 0.21023062085791536 -0.03448517826106319 0.23029859525238403
Ni 5.246547815765295 4.354019832458621 2.768041420637953 -0.2726660044750014 0.6040614044704113 -0.891856037056735
Ni 7.279686466467175 6.020422825988816 2.8344117935403137 -0.1747195724354991 -1.7011256694698058 -2.6768737173555057
Ni 4.897782459792211 4.569291522384941 11.336188504583902 0.7451301216206845 0.7126442331778372 -0.38920459769439425
Ni 5.372503208063425 8.152892520670857 12.476479861225856 1.7898310425270143 -2.748177607106815 -0.7115664267326262
Ni 2.0424549047811156 6.7864964939454016 0.23885895755711628 -0.5368170295004561 -0.7277772321645337 1.0243467827300101
Ni 2.861886125312251 1.465636357423443 0.35992581107890903 0.39096914579398473 -1.0019352478040295 0.5441996951177724
Ni 0.5360928193258065 8.987853855110123 4.945424168456997 0.03279107838809192 0.5128936859156393 -0.7208031148395456
Ni 8.537788976933712 2.2406452836741355 1.3438247478550043 0.12062716146646968 0.6873175814875905 -0.5762261274256979
Ni 7.15205287844883 0.617554253850578 4.893445457771488 -1.3432463642512544 -0.0033334352486071627 -1.9937010112742246
Ni 0.5698417888256962 7.263866070056087 2.2261747009017925 1.0942591914504316 -1.313279642685835 0.4437747196307905
Ni 7.9797299363295515 3.89550954771184 3.9245441479371643 -0.8023050281697796 -1.8199833977406783 -1.795190507066715
Ni 7.957060687114353 3.857600467091466 12.547523782425806 0.4446110994891569 -0.3306389814453596 1.1814201028386557
Ni 7.880135823831086 8.881002680037765 6.906488395073437 0.2452084224846809 -0.04937726488154722 0.6087608668286096
Ni 6.913712800865747 0.5711262889012754 0.25037228733059763 0.3229853215548437 0.8773195340034567 0.2808374845422002
Ni 1.7538959541866928 6.569455895016695 9.331098400730117 0.2801324880553756 0.687166657732023 -0.7957841963321262
Ni 0.40329583128613744 4.703474609376224 1.2807699454160912 -1.040058537038312 0.13002660040349864 0.23804455774639002
Ni 6.3610874858637905 1.9304512152812936 6.84917211486483 0.6585232829637174 1.133077706979526 0.4721054482546837
Ni 3.949384165994778 4.33611303055754 0.3364519350508302 -1.6146391584407869 0.6562013196987602 0.5017844633763551
Ni 6.000692687116044 5.643082786131029 4.861302113366072 -0.27086134716609483 1.4592069734799902 -1.48046099776276
Ni 5.503819755338021 3.0275104359049254 9.348304896092818 -2.1102205783302237 -0.5548168085119864 -0.042645345474352364
P 0.2542856583235694 5.736980104508988 12.540049007974696 -0.42489022402146187 0.08880024676385997 0.03001608674611605
P 3.9233040973698503 6.235504018022572 12.430077295995563 1.2912056936049312 0.9977628615938946 0.9676092208286499
P 2.41508692529409 8.464102577824045 1.7289189590729963 0.3893164406819101 0.03139445515088142 -0.9136726187111942
P 6.451038776467195 7.6307196544946 5.979036705262725 -1.2148608989956045 -0.39027006284443105 -0.8509654694899603
P 4.779583053119928 1.0718953561486575 12.651375069256682 -1.2282643168857041 -0.372164611492972 0.24023822296359912
P 3.799108542745888 5.921853773578913 8.12779487689187 1.6860985999333544 2.348560812940162 1.0522455660228072
P 4.810498139684713 0.8817575953141941 3.740753595456392 1.4567330580182007 -0.05761147986588142 0.7029174928083766
P 0.36727630833344094 5.431829694605001 3.526080613192418 0.8134620732278637 1.1310215957814458 0.07570510414279864
Ni 1.4092852665371634 1.2818149624267319 2.4093420531340315 0.813637165353147 -0.7040788601063294 0.6362968674653493
Ni 1.6923469922318624 6.592696637909588 5.053763041357004 -0.03373724435144513 -0.10479405108895501 -2.367055786420556
Ni 5.8128436223908215 5.832428620012116 9.213333510679446 0.8141472722203462 -1.3078029358419798 -0.3399929118564338
Ni 8.325138900862209 2.211326750875607 10.183987401125366 0.18496001921658467 0.13185234075832777 1.001464478815198
Ni 2.124804422338367 5.441109663371367 7.049652096999913 -1.2158805985093706 -1.9518388238227995 -0.025388872386749826
Ni 0.488628001561259 9.243229887085421 9.252765667307516 -1.082799527550264 -0.47084535059533755 0.19064652807840068
Ni 1.5357940098565543 1.1692760645620852 11.473562884842055 -1.010812495689001 0.455688440349241 -0.04295670606718408
Ni 4.08804848912544 6.691011693129404 1.6529493066510186 0.6720354585175394 0.6812718895141429 -0.19928569181063743
Ni 5.362969242106973 8.019280927357268 8.067319053065154 0.9305544820681974 -1.2279570700579303 -0.2258827255728755
Ni 5.341143626415991 3.011027832533971 4.6887835933282 -0.04895508974246408 -1.100312339623047 0.6881169374604343
Ni 0.6144074100919736 7.418060507094881 7.057352747523634 0.6977493183438758 -0.1922879203365656 -0.27728036331856115
Ni 5.089541266979118 4.861869071379657 6.75533194585464 -0.5374991431691452 -1.0275429210698044 1.5075653101787199
Ni 8.07916983624832 7.405551145483132 8.729897937389808 -0.5717454659465251 -0.5895794088041523 1.7684808589860126
Ni 4.392436907459167 0.5336190681209307 10.411605168755521 0.1387855775430513 -0.4179469599344093 -0.4563700397972979
Ni 8.146025525210312 7.214254976035312 4.40682403401191 0.6482252434718191 0.926452801194998 2.0737906176379637
Ni 7.276175862447054 5.832628189232898 7.040583490181011 0.6561838361972635 0.3364332195296335 -0.2337122489196233
Ni 2.390893692938374 5.102903333443298 2.5252355281734604 -0.1705199325318547 -0.22531913975992163 0.1877794909432508
Ni 2.240545499063744 5.320442855423961 11.500634449641142 -0.48709009458897407 0.4799354858220637 -0.9845417349179302
Ni 1.4740182646962894 3.1826573624065415 4.01604754279856 -1.1718046912360787 0.007497851038941925 -0.10834705854753597
Ni 3.677843027136135 2.472082080483802 2.9410915205093633 -0.3185020889725095 1.1694891557290246 -1.3417324987098893
Ni 0.7904111344309586 3.085494365870331 8.652786204745263 0.4303998409857813 1.310296391687795 -1.4156411730738976
Ni 3.927304553113709 2.8161666310967246 7.009728274382462 -1.0206585352451454 0.03184054154936452 -0.046474489412455446
Ni 3.893922065273801 6.90189286019852 5.984494016318293 1.2638972355979652 -0.19950552113092737 0.19070077835510385
Ni 0.8608527194372734 7.56637672344882 11.472089701139554 -0.35822049060805405 0.09753171309958687 -0.4016340817069986
P 0.14341951338220513 5.363005527419842 8.110747129772973 0.25704449588766054 0.8015077290794648 -2.434807954264865
P 8.252604560436149 1.585042250748636 7.989862609948349 -0.019108181584360638 1.0720939682073019 1.4370612906208864
P 1.8346126326648184 3.319634418488773 10.65097212069281 -1.5685757884238212 -0.6492403149998948 -1.7437291059626292
P 3.932883419967389 5.978676573532496 3.7672799734296145 0.9694272478739949 0.7268444359376192 0.5334329435195717
P 6.939130662530808 3.9722801984154112 10.710677788753872 -0.6712052493067602 0.9292912990850575 -0.6385987761256486
P 6.457334278250047 7.692849181455341 10.207460370020623 -1.0153481787758256 -0.0863237601989094 0.5328145932092823
P 2.3993572421651765 8.494591311962612 5.89618917178634 -0.1223685696376086 0.43798228131872957 0.18468542539895935
P 7.178704440751453 4.012765536249517 1.7265685779318767 -0.3796362372796688 -0.35716299587781714 -0.8366557377355074
Ni 5.471825180715369 2.6635687478241885 0.6012412843172881 0.40576661581813345 0.3996777293115762 0.05687100215543109
Ni 1.1704825512149948 0.9647538985733438 7.149015797761656 1.539063637897317 0.32404410183666127 -0.5017795782803488
Ni 6.6176881471484315 0.5903212194092224 9.263506119916878 0.6034893340170252 0.6945015008305394 -0.4844500858629657
Ni 2.5535153938910997 1.6847452191857093 9.209695000931461 1.3541748382382999 0.25893014294614763 -0.30842722123501076
Ni 6.479513675741508 1.9650946177434157 2.605267321371175 0.3491321551535406 -0.2724865414743436 1.172193699144381
Ni 4.070812965512444 6.989503748121843 10.250941967564925 -0.414389581600454 0.6119179244003526 0.4566420625117619
Ni 8.044952786212415 7.583067967368774 0.2850619535666282 1.445198317905724 -1.8164779556905812 -1.8196365559242211
Ni 7.4179153658434025 3.933400485675779 8.611840950570537 1.2294912473142694 0.02924655556994318 -1.7847507997906296
Ni 3.1109303701918263 8.483297508331992 12.290458669136434 -0.7904278171162193 0.15218899543315081 -0.4157288692371679
Ni 8.890092150911567 5.283812832082235 10.068757947311447 -0.24752627198458016 -0.6554315314122713 3.194671268330666
Ni 8.739988882898807 2.1936467321799604 5.923340564273739 -0.2854284463469923 1.7814762428044157 -0.9425929012899702
Ni 3.5722618380142084 2.704961218480031 11.630853366201434 1.4883974790010175 -0.7274514733939987 -0.09836783584763704
Ni 1.5660922461025577 3.463188187528595 12.747485791719678 -1.9427790276133767 -0.17194483790383935 0.3176374269793691
Ni 3.133853616597111 8.651525290123049 7.946381012404047 -0.9854480487822834 -0.48222093942213085 0.8449902257431319
Ni 5.798012000755428 7.8699487222429845 3.501731353991363 0.02107841793685402 0.3005465329353534 1.534746755689518
Ni 3.423410413295444 8.20747470255475 3.75168001029421 -1.0557980592607559 -0.18126894351824266 -0.08913037640976908
Ni 3.197044488959285 4.308717619341094 9.333222905798626 0.6654858303244797 -0.5007696489585955 -0.17026822153236482
Ni 7.0884447249886575 6.086979161119632 11.678251963269995 0.4558637895848407 0.14092190715976374 -0.7578290572445916
Ni 0.7323727764962488 0.08926640532299336 0.2695962460888403 0.10906619610174764 -0.08176210897015596 0.12478720638143025
Ni 4.87577541753688 0.13055364857151447 1.4708179001012027 -1.0936575533106905 0.050695469472338495 0.8709241720000742
Ni 6.080402448162042 5.490493974186709 0.49715414295276167 0.07317308174956431 0.6998100575276464 0.22585470054841747
Ni 7.994742984529293 8.969992409850128 11.241072906826352 -0.16911996686053452 -0.6030309063233679 0.22302263041626105
Ni 0.09581227576464489 4.853432736137507 5.654285876479476 0.35137492844113033 -0.0823748028534904 1.5078532737327839
Ni 8.183689679968817 8.93234639774806 2.2873943736423326 -0.6488091409997472 1.5810548947274383 1.443421171400643
P 8.785091526795552 1.6651057935951112 3.686995090174636 -0.9633278198444764 -0.42281817198378147 0.002215776704396184
P 2.211880101896867 3.15445460297875 1.4229548510279126 -0.24750107517359954 0.9908964734913644 1.8773560221228764
P 4.7473798379482774 1.2597534922020968 8.180782319275151 -0.48834839247610734 -1.0934680630077038 0.9771901796488655
P 8.504869126832888 1.6439877415050823 12.436038972900016 0.5716901872285572 0.05220573546927783 0.007893800925779954
P 6.469644070641014 7.63574517032702 1.5408793964552099 -1.4037482782910535 -0.2689157934039498 -0.7147913614278271
P 1.8393660086507184 3.0862019294712852 6.3126166577999365 -0.1997816576104495 -0.004015291806980181 -0.31301072684063513
P 6.922203564077202 3.93928777768885 5.796202270776063 0.8355442498388835 -0.5992367293882583 1.8289246660943663
P 2.328328742223198 8.712067334645752 10.086124098050773 1.0989766515307589 -1.2362432213261225 0.8922591860324247
