# total energy = -340864.5037491282 ev
CRYSTAL
PRIMVEC
9.30792778905645 0.00000000000000 0.00000000000000
0.00000000000000 9.30792778905645 0.00000000000000
0.00000000000000 0.00000000000000 13.62309317904758
PRIMCOORD
 96 1
Ni 2.5871105472558305 3.349736977720314 1.5568746832986726 0.21882761849830698 -1.1830111014748594 4.300911029181741
Ni 7.98292547367976 5.276142901519656 3.355939780660052 -0.9893067604067413 0.5257134633881269 -0.8020746573265284
Ni 1.5909668296482784 8.014888896991675 8.094842133323846 -0.23075805138730582 1.156401726417447 1.2322947782013358
Ni 0.46464243689791146 1.0700672784529857 7.802040793834173 1.2369795852715149 0.17485198424830534 -1.914685097590638
Ni 1.4654121945130407 6.934331584155308 11.689867203405704 0.3025720480058144 0.48768967584618583 -0.9385462420244223
Ni 6.083717314271046 3.9036703638992947 4.7199244191196295 -0.39047138022195976 -2.405832392968121 -0.8645630056687369
Ni 5.189262705481973 7.839481001734535 10.79626054681923 0.20863422290507294 -1.0167136916647845 -1.0068218864723693
Ni 5.855673088545394 4.462397332782303 9.499655065323138 0.5538716709898978 1.079995996663198 -0.2727410806873109
Ni 8.012841152923935 8.050715110249554 10.619718945982768 0.43494195183050893 0.014900571260916273 0.3700722477403175
Ni 3.826619339386766 2.958720247985257 5.673827830573485 2.409774665445321 0.48732972140360586 0.16342883001302821
Ni 4.5603539626409475 3.7979788462211403 11.630211764748632 1.1720250347770012 -0.5671161947046298 1.5331637274731145
Ni 4.008393857109063 5.435941402224064 5.83910311586634 -0.0354187458189261 -0.8250783173105531 -0.889108813328901
Ni 7.101250649458906 0.5002499138576455 12.076681403838105 -0.5257957386892881 0.19314795434401574 -0.2830213795673964
Ni 0.8097636373183554 5.626074438913774 1.4913878280123298 1.7896592928358401 -0.6999648379379558 0.861572041361213
Ni 2.814614913181806 7.510306142845242 6.325487940799866 0.6568813764849203 0.5444069260325721 -0.6514316662242587
Ni 9.260866698791155 6.090307326998137 7.630457526019919 -1.6225620128322895 0.3105476100121232 0.6733811739121565
Ni 5.736438536237409 6.242743256986261 2.8940217741649934 -0.8142370037206751 -0.9785739473702694 -0.46105767508095435
Ni 2.686770527861731 7.177985204433693 0.31656354781028584 -0.06801313481517963 1.2646158589315444 -0.3424128341518361
Ni 7.321997459961337 0.6908976789425648 7.695249079115987 -1.8117921201791378 0.012127122280837179 -1.3084122872912047
Ni 0.9315094684875956 0.269200158316205 13.152251529076764 1.2168020818823753 0.10483158919510978 -0.5652837694815813
Ni 5.741120423810471 8.549871342616473 3.0890908048507164 1.8385729878174077 0.9249564191551296 2.184491264019341
Ni 6.830296877586508 7.448473579927057 12.701382032619923 -0.5024565497427154 -0.8766546467259482 -0.1300479405597373
Ni 1.4633551425177196 4.211548684484087 9.180588615786418 -1.2455956090753 -0.37392324605529154 -0.13895835567548973
Ni 2.398224772861926 0.6137712602166332 1.5791476232063835 -1.7445639431590985 -0.05184989479175587 0.7525865778987296
P 8.252790218025224 9.211180981365704 0.31074516227962845 -0.5064435594149214 0.30397844143503777 -0.3343909922886241
P 3.6395858425814085 3.940334290639431 3.8524060219561678 0.2478422605631022 1.0618915737530035 -1.2698184861784068
P 1.7588259956375196 1.479169311477225 9.488593524186307 0.6906870121804557 -0.1514839989463262 -0.9276421935174088
P 1.3974177835364738 6.384996314201164 9.423434307950801 0.32236362881044484 -0.6522145671368703 1.2572635323315315
P 8.25391647726248 3.6665416008549387 10.33533662698978 0.12344663319313577 -1.9063575515615492 -0.5874708471015819
P 4.958528488685516 7.361835390006471 0.669045457361499 0.2756258584342737 -0.2956606655979618 0.6329238372280583
P 3.951931968404907 8.831035911044832 8.754239923748013 -0.5957420859714385 -0.8237048340017943 0.32529854306905265
P 3.8786413466349567 3.77626345117551 8.049627013515376 -0.17825278239973819 0.6973945061076182 -0.7972571813332269
Ni 8.47027925387443 2.044309442463294 5.826420133744962 0.5256239889981141 -0.8060899491335084 -1.2678829597185906
Ni -0.019070082027212904 7.324789838235529 13.532104330471604 -0.1391092794310572 -0.13599104551704966 0.013984487204550108
Ni 3.408460692826565 0.3631273863251898 5.163847409223039 1.2209502997227941 -0.5477496172525599 -1.127657050184587
Ni 2.6712449046572253 1.6935681153696607 11.868289005613455 -0.8552607544312044 0.35624048406354775 1.8353094865747877
Ni 6.165589845270345 1.7310511397368935 3.69564562881408 -1.3800861587874231 -0.27927193982729326 0.6982514547912749
Ni 6.943648819663529 7.641240760122089 6.416190902694917 0.8670230371734552 -0.6169331182267568 1.8859152245467972
Ni 1.7918225989108847 3.3713406776349775 6.167473769812666 -3.1292904289320105 0.0560662468659486 0.5558935865159329
Ni 6.482496855608356 2.4825080571046105 10.414254821774987 -0.2568244094570545 -1.0002162082303936 0.7807542985821972
Ni 0.4688403122367796 2.3796182256282292 1.6948898410861115 -0.2921148572282324 -0.17171215306774298 -0.037084306446807096
Ni 7.136173993741463 7.003033397628004 8.751065920443017 0.42858078549917156 -0.37924208716504365 0.06446629800418574
Ni 8.500893027687152 3.3374877450241938 7.671135961925584 0.2536421550743309 0.49725083717205976 2.4158725508129426
Ni 7.497796288176863 3.7796980764527657 1.34275325564814 0.2242768145383363 -1.824451460814361 0.9241390654601569
Ni 8.512137004204565 1.9825513429657555 13.125032356452701 0.47531084256585887 0.990831424581384 0.58388004442653
Ni 4.008496244312449 1.7588353035651003 0.6154392408390836 0.542607410929988 0.15027918000494764 -0.7712635854829427
Ni 7.895859119090464 1.0118741152188315 2.302315887071023 0.394152942838605 0.45053492117275956 -0.25191900173563714
Ni 3.7688357249661597 6.163374558506153 12.104962610999117 1.238200087942177 1.3504763063407905 -1.0464592983583332
Ni 0.16259180977135776 7.5456297280137665 5.603001017234129 -0.0013284890034364217 0.9735158161210719 -0.40247971753674555
Ni 6.315326476260083 5.94914329731017 5.149161361086307 0.22661728974605488 1.5954844398892072 0.16487610398251604
Ni 3.1014759332895148 1.4885982421164121 7.309374979369232 -1.5232366981673897 -0.7076704341123295 1.2129089174755563
Ni 3.7746345638488976 5.537658434825286 9.550591768215426 -1.2216175009931478 0.03193618658696435 0.15795160894854088
Ni 2.1510713718132224 2.123733988508886 4.1883793911503595 -0.49788281432910375 0.08611344396031621 -1.8478215029988692
Ni 5.02777946988547 1.5552616194489477 8.652339524973453 0.6448509276829475 -0.3565955534101214 -0.3123342695989008
Ni 0.6352111406058767 4.1232909151644686 3.4888327858998656 1.321769168214085 -1.0691618821621716 0.2537210879413824
Ni 3.6200578105172285 8.172118409683826 2.5589205577851075 0.08685289322950204 -0.5720956501970922 -1.914425159061032
P 1.3678464976127844 0.6037410374557368 5.64618607803726 -0.9214748883644323 0.44301367309504996 0.2190405058400615
P 5.3921755267399005 1.639200510371149 6.115379160729347 1.7203837463684695 -1.4910452010365094 0.06987924148964093
P 5.841255108722984 5.587185917481865 11.530804028980167 -0.12573465789636412 0.9611920044483964 -0.6325517986006203
P 5.753136958317076 2.7603124636763585 0.17689902525555776 1.8442780086219852 1.2468387374537817 -1.0092250965972231
P 6.440555333929997 0.1850862783554877 9.9719272104589 0.527765203710833 0.46103067849776086 -0.6693738525249762
P 4.6408768441410535 7.4657956331546265 4.9703169789663955 0.6187344331015537 0.17000442634801688 -0.013328084567473822
P 8.085098594732433 8.266091246537956 3.181169478442187 0.687690648556293 0.8707315963732939 2.873981427678218
P 8.731999561586834 8.401800830663671 7.622393137564053 -0.5035613527711198 -1.2729755437501495 -0.040712133007381496
Ni 6.043255753078009 3.4350534419244503 7.297264434794063 -0.453824904777941 -0.12136686784597164 -0.5066998984001017
Ni 3.4662815389574937 5.642726321355537 2.247360951842173 0.19499812017887708 -0.13761212606024043 1.7212332388529583
Ni 5.110647949135897 3.651956078336078 2.1789178987562194 -0.2083416313653186 0.0699355486488731 0.4258878120480407
Ni 4.505977049714855 0.8528221103063908 10.916811240087116 0.39554519520044135 0.3997363504636535 -1.7317971304117334
Ni 8.394531339223192 1.2446746919381904 9.56628586490914 -0.3047276608962365 0.4820059951978473 1.9774110158649496
Ni 2.2522299287596055 4.5392808145983805 11.434270581248605 -1.0095742524065257 -0.795867757184868 1.1356652652010442
Ni 7.167215932222893 7.56956971775117 1.4909792099915395 0.5557184943906494 -1.3590162254910014 -1.7800117424437474
Ni 5.844382572390079 5.218517521867921 0.26807762224997994 -0.6912639677298482 1.1884633828386821 0.12346283114305188
Ni 7.32320749054682 4.049078808564035 12.371402968787661 -3.418421778051887 -1.2971909646540887 -0.5629877743585531
Ni 0.012328350080556175 4.671862935057001 12.610065678297309 3.2131202190644728 0.36317012130384546 0.6506567357314471
Ni 3.2823103503261666 2.9338960051276923 9.962322359988438 0.6094884890232536 -0.4969759862441183 -1.310696198229375
Ni 4.863783093842193 9.204339654593936 12.876928615998015 -0.1307285115665297 -1.5222571078629397 0.7036494858783946
Ni 0.5982093360945631 0.39477620168487815 3.186100818474409 0.8496200112056592 -1.4115819154028593 1.2667488461141474
Ni 4.948904091567136 8.865326316251906 6.859854201618827 0.39424627388335975 0.6937476533836504 -0.6147430525539735
Ni 5.045557611564489 6.626322952584388 7.6852086176347525 -0.4702719945903707 -0.2803759715247494 0.33609203414013084
Ni 8.856818870443202 5.587353460178317 10.549341705545558 0.6090177200344221 2.12359365720302 -1.231779272017498
Ni 8.55840671220792 4.4564030274203725 5.627645617089387 -0.1501591094873156 0.8703040219175722 -0.3791446423552309
Ni 2.755937737713458 6.847013915521336 4.047175337373795 -2.2937919447293984 -1.3494185545002373 1.5498303894955179
Ni 3.2706382091400457 4.904300502600714 0.2753294286280557 0.18391486578152197 -0.5849074572497798 -3.4437155196216693
Ni 0.5848198822698141 2.252323008035412 11.020087350558093 -1.0318621172704487 1.9419932984872879 1.2221870003433726
Ni 2.000711109675582 5.398095368681187 7.1542220653203215 1.5187920321324746 0.48427550795831437 0.2495687563359057
Ni 0.8647353268168505 9.106113094835452 10.517940481059513 0.9105638978788833 -0.3913229295889777 0.4263313273433625
Ni 7.289764106749585 0.02621763961638549 5.220205979931048 0.19930986018035352 1.4628929069720096 -2.3577579060583975
Ni 6.111827255564576 0.469020886031844 0.9830465327088349 -0.17862327836527947 0.883280379572582 -0.01928687325407001
P 8.022847175073121 2.9201295802359275 3.7353700021427314 0.3826500844053281 0.9129151717198792 -0.17132880158639527
P 8.249765141561516 5.5841794568733185 0.6339070999518291 -2.090768640253199 1.0020095526853905 -0.12145171425029405
P 4.366665297615433 0.8750885346647951 2.669064057225081 -0.34454402156222597 1.2040440108857586 -0.31848974767733534
P 1.0871659414186194 5.624166313759744 5.071727780750214 0.4022341771848427 -0.3066189643816784 0.629552092542348
P 7.109888406253739 5.328397606957363 7.1491399368612925 -0.015691442593327814 0.4957673106479978 0.8361093783137343
P 2.948621146560263 8.758089682595365 12.218783672626202 -1.9231609962721328 -0.5939204593816674 -0.7590153642432088
P 1.5287154099889657 7.660014850052238 2.0348674807254943 -0.4915087924819599 0.7949622146514632 1.229915736446198
P 1.5207292081247776 3.3576952558017603 13.488946262658455 -0.6518412429578516 -0.7216428371320217 -2.3433437875155967
