# total energy = -340888.9531678714 ev
CRYSTAL
PRIMVEC
9.10087005004380 0.00000000000000 0.00000000000000

0.00000000000000 9.10087005004380 0.00000000000000

0.00000000000000 0.00000000000000 13.32004324828176

PRIMCOORD
 96 1
Ni 6.7599351654163184 1.8341802518687784 11.401703799219547 -0.8326311899571467 0.8202618697585162 -1.0283091098118677
Ni 4.898188378123079 0.3916058884274885 5.874005508494744 -1.17850961406008 0.8106983944397974 0.45869380283446815
Ni 2.921397492348288 1.46142681577928 4.7519920014117725 -0.5372263491237329 0.5192923903531316 0.3260523905159417
Ni 3.4851690902152774 4.485017978078468 4.818845172729371 0.5290666961310759 -0.7371417040985693 -1.4348385719379546
Ni 3.72195552754563 3.143540629745343 2.515609718099757 -0.5348485929201756 -1.3698799076783827 0.3325999618264724
Ni 5.311913931241605 4.846677453559707 2.4409907743563757 -1.606633000306859 -0.4042982588027231 0.5844210045316645
Ni 5.027429833904781 5.05832728777274 11.448670659359863 -0.47726642363033284 -1.3446622707621745 -0.41579648925030976
Ni 5.776613457589714 8.146971469290829 12.469784640215062 -1.5249577946235542 0.1711601372190149 -1.6900856096055603
Ni 1.5961742979498232 6.8581335534090355 13.446850409959536 0.9890792177769675 -0.19077662589836175 -0.1638900859201629
Ni 2.909857589106883 1.9175806251371061 13.317751837837841 -0.3272602947811138 -0.3696837540526472 1.3784072284231035
Ni 8.454207741788153 0.17087338589038475 6.267306889015192 1.5583301994364132 0.20884016826829196 1.1392054171438186
Ni 8.697774327316333 2.453803889319763 1.1390412349730894 0.08940291334486539 0.22903129850418621 1.9081061588215398
Ni 6.968008357694121 1.1073028607111988 4.544305596111698 0.0002637951843479328 0.5107126191039204 0.07482115887594855
Ni 0.8652451994396618 7.490534812430156 2.4292561124955965 -0.06250557473338914 -0.0977065481145543 -0.3685810079067717
Ni 7.921888750863037 3.8268430550355332 3.8364253611261296 -0.2763079721029628 -0.22956814484426272 -0.6411498246822764
Ni 7.614770789676548 3.8307655300332035 12.605036310587161 0.1615598951250895 0.3555689119178199 -0.9473219313345235
Ni 8.341529869523294 7.396158789864404 8.808490962082358 -0.9377602557880174 0.23153632431422708 0.24382645453548976
Ni 6.981850781061769 0.8739292496549214 0.25965965406270586 -0.33331370006404537 0.46148833486046975 1.0982863103319536
Ni 1.9732870508000735 6.620145801230208 8.534218040957565 -0.6868804939501718 -0.0931515817540202 1.5266981743534287
Ni 0.15596434055121253 4.943346895381638 1.2034044082411237 -0.06924315056753882 0.2004879396488547 0.7129314254009528
Ni 6.367724069129562 2.2161528693333112 6.948693581156869 1.0162169545340238 -0.9607914265758679 0.33443984324868853
Ni 3.0523408108319963 4.644155792021068 0.11113709496298961 1.004432560304586 0.15077128915001775 -0.24459984236640456
Ni 6.194052165694434 5.5339023538475685 4.638878197470838 -0.7573395192026827 0.3436634187294856 -0.6495419054007137
Ni 5.169030271233667 3.242776516925378 9.077209622206967 1.3207381558464093 -0.26842908357551837 0.6468486748392667
P 9.214994974804942 5.563798712008465 12.231595758807817 -0.06344248472536171 -0.3958544989107441 0.8604901211509439
P 3.960853366730877 6.665058594997034 12.474140316627789 -0.44975999067994793 -0.7758342355727607 0.6719616678568104
P 2.565890205030448 8.808568319477903 1.31192136271263 -0.24585762603290562 -0.5643226911198925 -0.04620683757336558
P 6.654665401383718 8.40230547981202 5.978554483618258 -0.07677519727852584 -1.990252390603992 -0.5179726431004434
P 4.898889145118022 1.3195533523484682 12.46761408270475 0.34216857935151396 -0.19871207869535454 0.6581311897316213
P 4.340532564939232 6.306693634479036 8.100158413854597 -0.6412650101039021 -0.5717989448922797 -0.7709216287624916
P 4.763331685511765 1.2752776194861357 3.738403530012658 1.4701806988826744 0.6352648266564092 -1.001029191049992
P 0.4606232466463547 5.536741825307598 3.4276470409745023 -0.6894323138377482 0.5376960896712998 -1.1124482036546326
Ni 0.9931961518462608 8.936872385642992 4.463013894437246 -0.3372161204422451 -0.07569944771584382 0.22441488277809737
Ni 2.0751894929089194 6.49483592131624 4.489880572953771 0.6940155623330564 0.6616284042516024 -0.14635464813956087
Ni 6.419762844156655 5.867048803417669 8.92470907280219 -0.2992671520022975 -0.7843376450580815 0.5452229941759643
Ni 9.009542833105629 2.561185055207257 10.615541520289757 -0.8614206033850133 -0.23683845325343084 -1.6266166425176372
Ni 2.781198589009289 5.095431535024483 6.847754011100815 -0.9217314844599287 0.5613227279513043 0.6150500422714311
Ni 0.6068787790130787 0.0994124440592809 9.102851323612851 0.9411785374409469 0.5653328775519618 0.23271337534146372
Ni 1.6066585002637817 1.1723740816702277 11.328790358526197 0.4349447800439864 -0.9577680663685116 0.13987161151837846
Ni 3.9876099247196244 7.142927080328041 1.3913319145448124 0.6373307080465024 0.6319249636498988 -0.15868231646697833
Ni 5.691802449461436 8.11277950045963 8.091100317879699 1.459480538856351 0.08759671337406204 -0.23201943459823265
Ni 5.512233182224708 3.1982459597012483 5.03906529628186 -0.919124900075017 -1.0175878667396216 -2.0489301069508583
Ni 0.8065782607448101 7.044273648832115 6.260420260637612 -0.23694515403462418 0.9171952871524719 1.5678970171892415
Ni 5.152002543343549 4.786830132017529 6.764290841829045 0.573389172197535 0.1086836159513483 0.9153888300713526
Ni 0.6291941124104968 7.175808523869996 11.044194320487584 -0.33397061692175384 1.1707073444068419 -1.3312547391070169
Ni 4.8048953590949655 0.40584783999095486 10.360941949982745 0.33231611203746636 -0.018637669705845322 0.3139088131748723
Ni 8.175438990851646 7.033288898664626 4.4474423057573995 1.0308136214012764 0.8929700960565201 -0.9057739326894079
Ni 7.567874006235727 6.158203838511551 6.441719603273545 -0.5197621309006983 0.15798760439279888 2.1853754663965073
Ni 2.6774395694073463 5.441628632266646 2.3173408931421173 -1.7862968041215106 -0.9234278983257451 0.2242009669950784
Ni 2.4109478921874454 5.6558358109677185 11.267584277083433 0.0823236379005808 -0.8692768662046383 -0.2493270726387448
Ni 1.3392112316871398 3.432283934272212 3.6729091185956437 0.5235020575591048 -0.25129473788807694 -0.9574595339891574
Ni 1.7404230884673912 1.2414860889377617 2.5418238642326783 0.1642649527610784 0.5260335657317069 -0.7705688734087632
Ni 1.087280946569959 3.696418486145485 8.079405699847202 0.9965025068242321 -0.923461579777158 -0.779185925653813
Ni 3.7510874126211338 2.6068532211894118 7.111704725398791 0.4504369621423146 0.7772210886179582 -0.6489307541792759
Ni 4.297267028654025 7.0856006997936465 5.72976308858622 0.36131635592455835 -0.31476061965220625 0.8795468806720788
Ni 0.6722148352909761 9.16530422425441 0.2129312367180716 0.09900007011499724 0.03501199729881067 0.7022718888045776
P 0.05987644432638382 5.671926149241224 7.924879296766133 0.3669434723033487 -0.22491419101201912 -0.916133678657177
P 8.91699608542278 1.7863733814215363 7.8839335722602915 -0.28684743818170594 -1.2387641879757634 1.09629550515417
P 2.0725775432004943 3.182355840569155 10.47075304817738 -1.4899247142788212 0.1037229295119633 -0.8943086123622855
P 4.095382428019879 6.270117237691017 3.6683268305183194 1.6248551797418405 0.3836070490019587 -0.19700049532088654
P 6.848259109389379 4.158569768875619 10.468595231885159 -0.058533477459518556 -0.6267033102396433 -0.36726665997072233
P 6.508423520322091 8.055061782512475 10.31450840082819 1.1296833365859964 -0.5657185430261548 -0.9784685321406568
P 2.6052150645778562 8.498292356379137 6.002903861475025 -0.43104981586495444 -0.4567359077771489 -1.1945977778711943
P 6.994783117422997 4.0916146678133005 1.300639924181048 0.46882292084867 0.7129090568034496 0.8051936625714842
Ni 5.138733474789945 3.2419847412297926 0.3592859685684955 0.3156774750395208 -0.20597570223630332 -0.4984098904771674
Ni 1.7617191244176191 1.1064382780550996 6.973575359912392 -0.6587623955577171 0.6273329734038422 0.05780585526487464
Ni 7.308990656389496 0.8644688952231856 9.163963666093952 -0.6699194406158011 -0.14275201838996707 -0.2757014488672155
Ni 2.974892406585655 1.3606892850386516 9.120180290302095 -0.8361682565761277 1.9054697496399573 1.242598474120189
Ni 6.2702355490018515 2.440671333817122 2.513612077120665 0.23138900010308536 -0.6831480234909332 0.14812870932084812
Ni 4.383179242060072 6.973113945800136 10.181761289897757 -0.5210281420973156 0.9967956125846187 0.0832741747393082
Ni 8.160686480477578 7.091343348804157 0.2533063366708879 0.3535084298443654 0.6117361474068497 0.5695798257537739
Ni 7.748244150038103 3.539155451436111 8.394784520790965 -1.0069584120502337 0.21879933636353288 -0.40725965542389214
Ni 3.2620157562410967 8.791513288977592 12.464097506511946 0.15010100255587053 -0.9005985591360552 -0.43072919930074205
Ni 9.06328347083473 4.724197944235706 9.854487631780087 0.3477021075752334 2.697690396990541 2.3937996301733033
Ni 8.956202633659354 2.569739873067605 5.8579952578778025 -0.6717806621942559 -1.0108304934111298 -0.33303190715756836
Ni 3.896492013636855 2.96192366674417 11.415264095615205 0.7746150184536787 -0.04247102468001718 -0.6881688737442921
Ni 1.0536623325528047 3.560633504787623 12.62505640455439 0.06501214320532674 -0.23251540039804472 -1.1618856323501539
Ni 3.373137379724977 8.46373635274537 8.111186848198395 -0.1253219958389777 -0.4759119664849675 -0.7398290211227453
Ni 6.018396272585313 7.972981035403455 3.8491465573018684 -0.30692261166502627 -0.0858157102142393 -0.22502372000668985
Ni 3.6195252349730604 8.469160471303633 3.5846097469717577 -0.9402477980965613 0.024105377688635903 -0.38109713809591145
Ni 3.220488486138153 4.526900182113916 9.210796743444325 0.17562897162364594 0.15194036975745442 0.08724010136559168
Ni 7.063467383797513 6.193151179558079 11.564980688867342 1.6024912102243434 0.22853507559405803 -1.4636202720563376
Ni 8.035340197083354 9.058196084468841 2.6053870710220695 -0.08789264734792605 -0.3090651119293258 -0.789793268856014
Ni 4.847314514464201 0.5285758030677095 1.4291742423587621 -1.3360259352434152 0.4932473724396214 0.34125120974356715
Ni 5.86083290916382 5.88698880972833 0.30475992575285477 -0.014517991110516933 -0.08415349202046797 -0.16209391325168857
Ni 8.120242213912274 8.751278342423765 11.727205517935719 -0.18942499696647377 0.2945221811181443 -1.002048633453442
Ni 0.4981306624419416 4.7505358622015 5.423295839609322 -0.30686836138832313 1.380967532951112 1.8156654870916151
Ni 7.132870618907101 6.201651392198041 2.4082367429953204 1.5155974364545768 0.6048381347354358 -0.31826940413641314
P 8.95732204067725 1.7380477613806353 3.5036511371416545 -1.2977586642321004 -0.3986677999898231 0.7562817673621298
P 1.7874290823489836 3.2455340805548305 1.360709306952793 0.8133941961044056 0.5139707210299019 0.7946423694181992
P 5.040944625950117 1.17201004686766 8.240191681358429 -0.6342464126942238 -0.4065343472220934 0.3992452697598479
P 8.713027385543933 1.6661781904836488 12.493774533704293 0.24332328964682606 -0.45108565146990703 -0.5384486515666081
P 6.303344514295411 8.086960332087495 1.1375486922825606 1.7067000782337898 -1.638904715856371 3.106950113563598
P 2.009690531056873 3.1267313227367652 5.892041612787974 0.1996243060969788 0.5314071713387944 0.28068861766916176
P 7.191006976877209 4.039912624978581 6.087352654974748 0.4372842268104404 0.500024543262455 -0.6054793678638606
P 2.335701898496641 8.301668058642099 10.216460177191534 0.6105426413193807 0.8555096372172171 -0.02396242435286841
