# total energy = -340891.1959442795 ev
CRYSTAL
PRIMVEC
9.09556662289767 0.00000000000000 0.00000000000000
0.00000000000000 9.09556662289767 0.00000000000000
0.00000000000000 0.00000000000000 13.31228114657393
PRIMCOORD
 96 1
Ni 6.403824655752313 1.914471250804434 11.490987817012414 -0.19195007738117265 0.028493993674634795 0.9927960045069225
Ni 4.7776373899265305 8.955613166170854 6.146692986550657 -0.9701885515200518 1.470461463347887 -0.4460375475230383
Ni 2.9512567021294553 1.3777782450416851 4.836910469116004 -0.04459552722218771 0.49831347410861915 0.5313763181008591
Ni 3.2605241593701595 4.368491515299785 4.781904120242148 0.20474285827046673 -0.5278220250906975 -0.15056611511774715
Ni 4.899618034272601 4.615472532119798 2.4685631660123843 1.021743797889524 0.23283550274162484 0.5914812538125556
Ni 7.322440505157705 6.102715921796854 2.375377266567573 0.05624699541818701 -0.6460151231943778 0.9679660899474363
Ni 5.310110052763578 4.569967412168758 11.604408623583963 -0.1721708378717164 0.7301781282965425 -0.04479633037908414
Ni 5.418865743200232 8.198707396239683 12.601006223221663 -0.019269646862889397 -0.4270610064205355 -0.612874631886667
Ni 1.8773340521715949 6.376092273035799 0.3520630078866437 0.012015279293321243 0.7579619832780301 -0.4437970882282937
Ni 2.400129032092811 1.378451316973801 0.2881057118723075 0.6894690806129545 0.662051350721634 1.0727331444531978
Ni 0.6223123033112437 9.04568656270796 5.024587481819932 -0.2963605198784638 0.2723908964367438 -0.24461526898537225
Ni 8.587433723736691 2.3130480769836264 1.5306192374752794 1.2832381020184223 0.4890143081948804 -0.5882833157005481
Ni 6.833371886375496 0.9381258398701094 5.21748262111109 -0.32897007838336895 -0.9147527391492504 -2.092323643445145
Ni 0.8228449899185895 7.388929097370797 2.54083562905835 -0.45750569606363783 0.1713894796210016 -0.47184936637981967
Ni 7.749959424417891 4.016320270170004 3.8303022888230753 0.14938726431829757 -0.7279965472641914 -0.1289163980584554
Ni 7.772188989311022 3.926137726833095 12.40538241393544 0.3653581300940998 -0.4443884419553895 1.0067244416625565
Ni 8.180534454072548 9.014879878463674 7.100384979185948 -1.0179997574660598 -0.23913367704551072 -0.8180782318436364
Ni 6.8887456961420215 0.6957972053916829 0.28596916326617133 -0.5365717462588695 0.4167421409930307 0.666566207872852
Ni 1.7605742630827497 6.629540237744116 9.141370104754921 1.5068672556704306 -0.12942110560901582 -0.18388684075706396
Ni 0.18762698708735195 4.979531682861413 1.3277999254120687 -0.2665850883882441 -1.00427160924669 -0.016101533547552914
Ni 6.1535055659716695 2.191840555802824 7.096643972622714 1.1825274769702214 0.03753990592698696 0.7897727000307238
Ni 3.3926918383644735 4.464440647892933 0.5488428636941097 -0.4365105818692095 0.4668740246524153 -0.793932230725052
Ni 6.158899236995248 5.798660224246725 4.513528511547492 -0.43528210877874707 -0.18476898625170116 -0.27180339936438996
Ni 5.31559467945366 2.6972084300222234 9.544492895145893 0.1970524316047445 -0.39776611411116014 -0.90261918911051
P 0.2588379975052368 5.661007918562328 12.258494469874414 0.6314451958000029 0.275306527421642 0.9119589784541972
P 4.055376633366039 6.4147757179991745 12.62842935667207 0.10192701395380512 -1.899462881324245 0.5964969618595921
P 2.2704171560940556 8.471137808547006 1.2913003260014098 0.788903410051893 -0.1670070342825898 0.21476321862094624
P 6.547334506359448 7.866710117940085 5.741533698786702 0.945580008942752 -1.0056731175799067 0.7689789032138241
P 4.514866469401739 1.2161500256673154 12.757359013938906 0.9517012913491415 -0.6781716533222643 0.20205939790103267
P 3.972861652715263 6.059311877742014 8.39469775686191 -0.5611705186441561 0.25794592465600735 -0.5262032585403518
P 4.93590934520697 1.0154108696970097 3.779036946512453 -0.19872776242463838 -0.46249852129253893 0.4929686648569382
P 0.18895039203495864 5.581821915305532 3.5438619752044227 -0.6323288839565367 -0.8626881572435272 -0.053098422486876296
Ni 1.2888326987692056 0.7234158935250691 2.7669441395294427 0.5689496483689427 1.123184873345846 -0.4353384159379793
Ni 1.3439336415362249 6.585126585791103 4.941891499392818 1.9119910956982429 1.0856359685577948 -0.13104192904189044
Ni 5.985519545508798 5.432882011408218 9.404434812082515 0.23472089268979576 0.9790578289852236 -0.69754980073856
Ni 8.617576431615511 2.3770171972346077 10.351962739198953 1.2047708617494541 0.7295649201925758 0.08731774868106251
Ni 2.455193592593229 5.132391775984974 6.832382288723952 -0.33190782085545417 0.9733610357107622 1.7999971844267386
Ni 0.5556136035085318 0.07865118393776298 8.95145740176837 0.042173548044256395 -0.3516109557113364 1.8593652419724107
Ni 1.5020600677502607 1.1759294299400527 11.402062280986565 -0.7761026587427989 0.5556153931538818 0.33069503149427565
Ni 4.0941965118291685 6.889455150340739 1.7134237551246856 0.08874342538399556 0.20442172748562212 -1.004635934564644
Ni 6.005311498539672 7.845408300845276 8.014592207435982 -0.9292385914702513 0.5549134819908508 0.7393428255149461
Ni 5.115792366848326 2.9213413834168893 5.0075078267641535 -0.11011931995661034 -0.44389041927304845 -0.5823710639811712
Ni 1.0087892971756511 7.570958672741605 7.110768478073838 -0.05192445678343315 0.08742264969004299 -0.4884034140837589
Ni 4.9553374755718345 4.326251703776174 7.447236227382018 0.36665628008023304 0.007818981823786535 -0.48555745999453154
Ni 8.135111194221361 7.200032369179075 9.12632785662879 -0.08352485729753358 0.46133329733984413 -0.044604526083252216
Ni 4.487443335951333 0.427261514723984 10.47724416468239 0.4866872027236005 -0.6197225080464359 0.5345179490536343
Ni 8.078645916456809 7.444830450003035 4.291932311691572 0.4314015427774184 -0.08779263143495201 0.44238992346812195
Ni 6.940008309782649 5.887214661153244 6.925781024428378 1.2295629810924693 1.39328388842462 0.7189197817739038
Ni 2.3833568071898097 5.240347056556407 2.6661306978917594 -0.8922278185738569 0.09612300567751832 0.16320822936178989
Ni 2.610409437479195 5.444096845087936 11.208115694190642 -1.7246144966203654 0.6112180701198505 2.025930560731892
Ni 1.1392833919063254 3.1425910421834358 4.122068056715431 0.15558902225363527 -0.23675232129752774 -1.9037031446578376
Ni 3.735976714876992 2.5340066776173664 2.804471537971576 -0.8402041172083982 0.6152012231373147 -0.7390733739036432
Ni 1.0841551624393555 3.452313277756651 8.48213252951379 0.3859436675549353 -0.4681996854423743 -0.9460924298027964
Ni 3.6457941715400835 2.441522955917952 7.380781288765532 -0.47600761152256726 -0.2057782415135166 -1.2908465104932993
Ni 4.642477269504294 6.440152348953282 6.252924657241874 -1.0664948768529698 0.6885776791469367 -0.13801913169067198
Ni 0.7602220135318404 7.607231792542673 11.131249969986316 -0.2012155618434986 -0.8022348370534764 0.671009074135554
P 0.09122398571835898 5.736937708958346 7.868849395216216 0.34122524160163814 -0.1349867726222514 -0.9371958986441149
P 8.548304596007453 1.853649196614428 8.12238194869438 0.04683315830345483 0.33912696431171274 -0.5203334300231361
P 1.9289695840448808 3.4084453598026507 10.535459429470443 -2.024419266293688 -1.3815084930562467 0.32173216587403297
P 3.984604029260695 6.197837357824832 3.9485819470991723 0.7441962969525054 0.33175458310704153 -0.30538483486426116
P 7.022095798800865 3.859394458753797 10.401244338423163 -0.49396213911845904 0.1718705330224782 0.07011938252490504
P 6.352061785945923 7.942558048236251 10.328493448571397 -0.1319803816957598 -0.697820023680811 -0.12504920179356527
P 2.611191656211114 8.612273716258434 5.875322207758085 -0.7244466251294039 -0.8476232924906046 0.04008838338045354
P 7.0632532378931 3.9495133331241545 1.42872706163288 -0.043984633111066186 0.46715067535256966 0.7548380929370678
Ni 5.289745079033741 3.256822263743521 0.3401687353781539 0.8955206303925157 -1.69203219180897 0.08899565060411771
Ni 1.3891477033544573 1.1361181347120497 7.0521812046097905 0.856461459607525 1.0963700671458472 -0.4510134034710748
Ni 7.157365066022903 0.7643250236477536 9.354260028213252 -1.713864714303029 -0.6356690040733634 -0.7353522162983142
Ni 2.676115810960368 1.522379563646847 9.28289348360565 -0.11109042562062803 0.9196771730340614 0.06696746715948468
Ni 6.495644401086261 2.1555128626018547 2.6654649024129635 -0.48902562104879 -0.38021704948380325 0.16862374395040636
Ni 4.417452950577908 6.84479591808817 10.42553950650256 -0.3261791459017931 1.3895856136374263 0.2188484444339134
Ni 8.093235205363758 7.2289562711267665 0.39717338024506366 0.9292887279818963 -0.34284375104166764 -0.8508533693921282
Ni 7.746111999724848 4.126694971470396 8.358075367301474 -0.10870752721074825 -1.6409731683496256 -1.0324632411895573
Ni 2.8692783599110427 8.222674214363007 12.329102444223388 0.22649927611095186 0.7347451788419346 -0.04245765494357849
Ni 0.14272945098854706 5.1715663815474615 9.98611449049724 -0.151881491495061 -1.0033992339440654 1.7461253741089477
Ni 8.574627165893183 2.379254706630561 5.884201299922027 -0.09170070824010658 0.3241045227609515 0.5964694510557662
Ni 3.7257987757953983 2.8247828478581773 11.672021427835023 -0.7048753878656956 -0.03294071659207875 0.06905546003676494
Ni 1.1555371695102643 3.5220398916972204 12.634579778840948 0.11686718020340518 -0.08846060403625411 0.1903354245958851
Ni 3.22795293519573 8.297903646126958 8.073578776275973 0.815500186703815 0.18707166624294877 0.13278308010271325
Ni 5.771082466163264 8.0135307548079 3.5476029817676573 -0.5568587786426797 0.5890263645141597 -0.19788212659489146
Ni 3.2367574437131403 8.27285445557226 3.5327062627079306 -0.34528552771394083 0.06378032768075467 0.6986700303859322
Ni 3.582516314354518 4.173473470752466 9.620759221507969 1.20076379747259 0.6535199162118551 -2.3684791491306436
Ni 7.435953176952423 6.2516740168274705 11.469049310252089 -0.6705748148116129 0.302427294897834 -0.5804414510586262
Ni 0.36638124890741647 9.04394930947777 0.27112610804968096 0.6964133731412716 0.1900034951777631 -0.06026665810054137
Ni 4.614435637521673 0.44116408834884185 1.509519341960104 -0.06438350848239234 -0.548873446444358 0.3202360409444807
Ni 6.261797382509162 5.647846633619464 0.29255981086091915 -1.593326770116256 0.2154792708513644 -0.32066618650336387
Ni 7.925467478500492 8.879301361975527 11.462393174577459 -0.08302940571835377 -0.37478405139369 0.21109296885821066
Ni 0.1701525844389536 4.705191201557547 5.777223792765491 -0.9348428250309061 0.7234747481344379 1.0070404302410785
Ni 7.903192435774108 8.985182853350713 2.2983123494536084 0.17904571061467875 -0.04797575654833028 0.8871205792542787
P 8.607252963467515 1.5418349807116627 3.773605983665608 -0.9028135645095031 -0.06130178423327507 -0.13686136393714496
P 1.8892401489167299 3.269292285620969 1.6916980846239755 -0.4175168143755261 -0.6244674789305891 -0.4001428418734528
P 4.947433428152795 0.8277947972896381 8.346161084546353 -0.20369976171793305 0.11804551678222251 -0.5597173311373974
P 8.522273084254529 1.575179328051361 12.504279419679921 0.6367396114297227 1.6180636107413038 0.05733225806256578
P 6.212981476297443 7.689655817526947 1.320255152875713 -0.022083976383232937 0.9706626629429927 0.4530129503996069
P 1.7739083637919688 3.2145278788200082 6.169110829673448 0.8221683427526099 -1.3055845880344223 0.3137494047788726
P 6.629158223944807 4.142894175674434 5.899523691500984 0.9343712847111263 -1.613783495308711 -0.2265362999964744
P 2.3604450747979113 8.688849291886617 10.154541645942647 0.3230128323586695 -0.9500480720164348 -0.06445549937090835
