# total energy = -340890.9449479713 ev
CRYSTAL
PRIMVEC
9.08433499259580 0.00000000000000 0.00000000000000
0.00000000000000 9.08433499259580 0.00000000000000
0.00000000000000 0.00000000000000 13.29584252032016
PRIMCOORD
 96 1
Ni 6.407517499948326 1.8496795903227514 11.429624877732893 1.0196887151327085 0.42345889089157396 -0.5193378988790862
Ni 4.366267456014166 0.3326338222461148 5.868691987127241 0.10201725967476626 0.1548053500100753 -0.06514506923876523
Ni 2.141241317781883 1.596508261998759 4.963204550526583 0.9592796179170318 -0.679544622410391 1.1435431252872241
Ni 3.6136484812039416 4.560163499350751 5.213100067698627 -1.1158132634721234 -0.44460647150346655 -0.6517268288671745
Ni 5.109738505616372 4.501951081542428 2.703363607361619 0.48295190405088434 0.6435766889562141 -0.1526250545293049
Ni 7.18903374396084 6.248796001205034 2.581946021303736 0.6943032687768043 -0.561664170451123 0.04904816367690262
Ni 5.360711424903283 4.191857310960797 11.863440930127398 -0.8982107756301693 1.035283998467804 -1.193611759808841
Ni 5.496731170821512 7.904116247113138 12.333183710041931 0.8611894612108136 0.27586368547669265 -0.10263998086042969
Ni 1.8909315549400414 6.344054336588629 0.39894855831961273 0.5542012864151745 1.1861126232183183 -0.5288072718221022
Ni 2.937919316682364 1.830484390755182 0.4889270782802672 -0.36660742912016864 -0.1717124101780591 -0.6283868685896533
Ni 0.5333258564944364 -0.27516086929571937 4.670643546232414 0.08448053634258354 0.7356010990843267 -0.13732699071965382
Ni 8.614974534553689 2.337372107495005 1.371599207870065 1.6132741597724605 0.22992192863925565 -0.455800540447073
Ni 6.97515216392352 0.6519645445174314 4.910021220498954 0.09423093086112803 1.620517471598435 -0.6291677126197358
Ni 0.740556794977844 7.442550277009664 2.510375089077945 0.6664785332550522 0.04699616624388035 -0.43889270894814086
Ni 7.502915682180747 4.029147789212222 3.7611680866264714 0.9525315005599208 -0.1666447658471646 0.5241584601961812
Ni 7.579278601047282 3.9613604824572746 12.73334866079983 1.0794172413415926 -0.42694376411638085 -0.22524329221666373
Ni 7.775981703856835 8.999023875262903 6.948619547086321 1.2093358554123173 -1.0812622649701313 0.36591837347294404
Ni 6.893066114092682 0.7148481273128076 0.19215275947618937 0.1249730971399912 -0.45387864083401186 1.1209433856098372
Ni 1.6225530500537622 6.936234873366271 9.313604398833851 0.8403542696330172 -1.2283669039018392 -0.513157223989671
Ni 0.09313169259193867 4.919666967257518 1.2012860978403468 -0.4776382051474548 -0.44305918162100466 0.855026012712579
Ni 6.4860879121868065 1.996764056105297 7.091443459817665 0.5577476090055362 0.7635950131940914 -0.7173490948526742
Ni 3.6692718635760326 4.282164683843527 0.5380869563966433 -0.8523492372113642 0.9676796690552688 -0.06992346446401505
Ni 5.759050424353523 5.677464012940205 4.8839355529370625 1.3745359183931554 0.5003891256907254 -0.8405833549246877
Ni 5.499429218276112 2.69851984001215 9.292131756515884 -0.49929152175117236 0.5456037745541508 0.12430872408311494
P 0.23301500612781487 5.586075604208662 12.296433941783226 -0.302857183346401 0.021364067498072885 0.4800884664601603
P 4.341667077202533 6.065492292319838 12.56487694544704 -1.3351191071584296 -0.569090030601549 -0.33960518949971186
P 2.6133905380018834 8.396650714767889 1.4454039780389063 -1.0318243220539778 -0.6185786242499798 -0.09206760466122209
P 6.2866595089180635 7.79256061498358 5.6821905923699285 -0.5219174866808044 -0.2210192268329871 0.32831778951135066
P 4.842168506532986 0.9455429943163643 12.5818555673078 -0.710540299460957 -0.7927490090502283 0.4725970431791216
P 4.013113938177314 6.344753830373154 8.19857496896039 0.4432152475828947 -0.5644116512892732 0.8711206042815965
P 4.896338395326842 1.1087884918219133 3.7549453172446516 0.18935274896764162 1.2410648110844817 1.1331401847863454
P 0.16793301429535776 5.5582502865203205 3.449153887654597 0.21709315230570353 -0.04537277170784444 0.4032207094678281
Ni 1.8921397714769492 1.1257216920083544 2.498727154915362 -1.809653219459264 0.1057651567529727 0.4504243637368243
Ni 1.969374786490426 6.501785642831747 4.661150416299566 -0.6960421058447819 -0.16405592207406586 -0.14909158745474968
Ni 5.834759271109853 5.4514820988640755 9.501474802855165 0.2273495399263891 1.0229414177420513 -1.2719789841648352
Ni 8.645143610636936 2.373391495230648 10.26264849580679 0.9514876326764389 -0.42162260901378357 0.790851020696567
Ni 2.2840833991829546 5.299119634525563 7.400386245172031 0.06535872791146809 -0.10309378056839665 -0.5707494205818429
Ni 0.3986669439388297 9.039231141370838 9.497286924482873 0.36657760432349773 0.9998372276244202 0.39584550004967956
Ni 1.6511051145312214 1.178056545159688 11.479789483285224 -0.7364328509570027 0.28636329945643585 0.27574592895190575
Ni 4.323471154470001 6.648761096595925 1.5800783339637818 -1.2873863198588409 1.5253316330232054 0.33609974744961474
Ni 5.695051285236852 8.082505330836925 7.810296870371997 -1.4130441017706825 0.6067896020348518 0.5267210787170349
Ni 5.426890804387307 3.0830779034737477 4.870519807209951 -0.6054027489896541 -1.6201050666513646 -0.9041065722893139
Ni 0.6455773486745737 7.418921922028476 6.9093843048088335 -0.8366819629877527 -0.7047715152979799 0.06335583854882637
Ni 5.194041133154017 4.622990759269971 7.085846601107972 -0.9679023265890362 0.32259451387432825 1.7931264254488346
Ni 8.37956308088876 7.057637924488371 9.07808211628358 -2.2116148597090106 0.9725326262721959 0.8517375717692945
Ni 4.795629459024864 0.3498313765770973 10.131485235306839 -1.0581889280904357 -0.49150724982006316 0.3343184871794758
Ni 8.05366256764382 7.070764788366809 4.657905491886154 0.3688550875037647 -0.11295087586813449 0.4227466953158977
Ni 7.016077092485706 6.307280949059276 7.123832747341664 1.4379668331542912 -1.4593738380751577 -0.6681713475764428
Ni 2.3621178356644608 5.404906714016499 2.480139697350192 -0.5857140123114751 -1.259661857360379 0.7313358960500695
Ni 2.382230553053291 5.2114376344185205 11.537520431345756 -0.48436549656895933 -0.5745325417733589 -0.14554320798185902
Ni 1.1073895042528619 3.2963871704146377 3.8306387206317125 -1.1271628841569878 0.9235469404021128 -0.7811322507469063
Ni 3.538057730800843 2.8691418174272436 2.9812470518160707 0.012271104057869188 -0.6973312569698505 0.37588036978166234
Ni 0.916146086696556 3.265936479950609 8.297682337025849 0.30419235721805676 0.4665210121883707 -1.3144425526456847
Ni 3.760496754280024 2.7584310284400355 6.965133051002047 -0.8139909491481401 -0.34418895221565243 0.14272039382108323
Ni 4.042310990430115 6.8479078854838855 6.035434953555419 0.23225700453033551 0.9952169552435891 0.5398506741204574
Ni 0.8744607993062548 7.544858056247699 11.628423736595561 0.28656204573080324 -0.06378881232118692 -0.3975866511105024
P 0.15682923179112668 5.523811573051009 7.979845079406169 0.07158465421652188 -0.420117999443799 -0.5262389968742938
P 8.54835002266133 1.6347805647806666 8.13930240927344 -0.51378688715387 0.38594212489303853 -0.6477218214728393
P 1.7672119984276278 3.419343642798478 10.283815904473325 1.1521871741154672 -0.6902586663937853 0.884384154159722
P 3.94817002823479 6.245734580355877 3.7735464013121174 0.27024942461370877 -0.05232297777343247 -0.40456642486244515
P 7.037207255379302 3.827811675622045 10.462125954483799 -1.1229557880541756 0.4754196002295813 0.8762687241414394
P 6.330836629361551 7.8266995454023816 9.926317349271038 0.5978444770264221 -2.231510055971041 1.7098591926880617
P 2.2960292995290756 8.194324408677538 5.8863355823000445 0.8431873682064381 2.723665480898064 0.13812891779565886
P 6.942857353482105 3.9971800148259105 1.6184233114246012 0.23684925188670822 -0.6075002549486311 -0.374238206192549
Ni 5.361928725775055 2.760447750779837 0.40154758652419464 0.8511266776581728 -0.641910871218017 1.288230155916375
Ni 1.156217804146703 0.7324835465842333 7.280683781536465 0.909183472591589 0.09998120308134395 -1.3786946777565352
Ni 7.092049384953091 0.5639155372818841 9.250036765623218 -0.4961784300434874 0.9236060757748222 0.17798847299475798
Ni 2.5928236038698538 1.5227707159079107 9.089197708423134 0.6545432152700469 1.0753878084672253 0.9193141332676876
Ni 6.696244914929899 1.866749055532152 2.5361555229884067 -1.6339476289614117 0.22961930979717227 0.9274979546300607
Ni 3.8195176778912403 6.63438059450626 10.394077927318255 1.017392462899364 1.8485118441976742 0.2594273942975403
Ni 8.120668621600466 7.147890791361918 0.2697075430768779 0.5935049691108036 0.292515949321393 -0.10998587970253962
Ni 7.517078160233677 3.992656016063653 8.36188859897742 0.3980175680003339 -0.06438505114428911 -1.7307296083791677
Ni 3.122267724076916 8.332896852692544 12.503210663523435 -0.009751422959809013 0.13494177831692888 0.0903634774859218
Ni -0.1606918909752869 4.917159690835061 10.101263470081381 1.1031503232924744 -0.09337732461158113 1.32389135676341
Ni 8.65586312577642 2.434238370149522 5.846022029474203 0.3728888912535062 0.2290071301344701 -0.07410639219711108
Ni 3.666973526855448 2.4240003247578272 11.604638222621228 0.16552016532441816 1.3252072473613563 -1.2945748671874802
Ni 1.0864046907170901 3.3785368105895226 12.645316913800524 -0.14690203600259863 -0.06173064424057756 -0.06358081007543888
Ni 3.208986784688378 8.550929973762697 8.099867311628946 0.2135648274374709 -1.048266269660085 -0.6155462651815592
Ni 6.019988858986211 8.2306163264591 3.462822177890927 -2.2497733730566027 -1.121882866704971 0.1984361993261486
Ni 3.33059877551235 8.648713754238475 3.647687483939239 -0.6084047690407716 -1.4446612144553312 0.8829592487877375
Ni 3.8007857794017332 4.360044686632346 9.51001044389335 -1.8134661654474509 -0.6597131895067605 -0.20146033086445303
Ni 7.091967625939315 6.147887209536051 11.334652698897514 0.841525664233299 0.23166590791355587 0.7714823863619682
Ni 0.7514525462136902 -0.07922539278217271 0.35189170372424583 -0.1589278568188811 0.2916212054212655 0.16771228787973053
Ni 4.475352149060723 0.49759262530700865 1.7281666187487965 1.0723739613415662 -0.37796244912167165 -1.2569773685496803
Ni 6.158788411372815 5.73190643177998 0.5364962893619621 -0.029604967350626434 -0.8579254457475611 -1.777969515202738
Ni 7.855942019329502 8.633978963089115 11.562250716145941 -0.06388471446910288 0.6066667033037424 -0.7118212230559096
Ni 0.29922890608432273 5.038299296246108 5.733778713195444 -1.2961105871057161 -0.27979490221029873 0.15118883630341057
Ni 7.900609693855645 8.805527542660334 2.3187546716247844 1.581674530589308 0.5240718140196458 -0.3146176663164388
P 8.66341220804838 1.4637588766315588 3.577073132174624 0.6078807782165014 0.43237624798586183 0.3783658552076774
P 1.830466222085454 3.3766381846029527 1.6276102992725348 -0.12542946795111945 -0.23409405773907424 -0.5460228643694403
P 4.778986957554071 1.142128000772685 7.984406323941368 -1.255979009192153 -1.0282466320050487 0.49290258750569305
P 8.797070026901977 1.5893316374562223 12.496509149694283 -1.0421784115947923 -0.5422214883454791 -0.010581632170588228
P 6.193354305530223 7.8506095147643515 1.2744595067361424 0.8215471642288431 0.18633658784913715 -0.40657059977666754
P 1.857800985691141 3.557907002478619 6.095877575572846 -0.08147337408514356 -1.6560999966887349 -0.56257356963927
P 6.877005010053183 4.0581994921071995 6.041803980728549 2.447626189075456 -0.0462654587254429 -0.12441388220241154
P 2.4771345993771905 8.654318788849546 10.287604980545089 0.19755379672119525 0.010317579875924167 0.09660071664488525
