# total energy = -340860.3594484266 ev
CRYSTAL
PRIMVEC
9.41855036832347 0.00000000000000 0.00000000000000

0.00000000000000 9.41855036832347 0.00000000000000

0.00000000000000 0.00000000000000 13.78500050570090

PRIMCOORD
 96 1
Ni 8.125553040349429 2.935762187269672 6.945503791498616 -0.2551989580384895 -0.9093413383256921 0.21235512340008592
Ni 1.6839332232908484 8.238858202726247 8.840555707699593 -1.4226656840208467 -0.5907531173972793 -0.9674549546389727
Ni 6.785594699449584 4.356607039764872 0.6492338711439226 0.10660590748671318 2.71621159572318 1.151124794289224
Ni 1.8278298376543582 4.935028480915954 5.291593139744953 2.2983160578519963 -3.1370870421582935 -1.1885086342543207
Ni 3.989773335338246 7.388372512163962 8.954571028783246 -0.11074821178986088 -0.2077487349763261 0.12968541501399602
Ni 4.785113412790284 5.399165230439413 13.711443859788771 -0.36327296543029697 0.7910034871140312 -1.2679804045284033
Ni 5.08288088648464 5.588327398450719 2.2055447934603634 -0.17966637491781315 0.022101974105361934 0.7478454636693185
Ni 6.864267851680138 8.87702150962597 10.854654334655185 -0.125538482725158 0.09822951049755986 -0.18113833147764935
Ni 3.6799595355690817 8.313462541145764 0.0683928043723411 -0.8330088850115395 0.5668799103241076 -2.1104319230100814
Ni 7.335656885079752 2.1627346559249228 4.873425509590782 0.04559954300666986 -0.8384292846961625 -0.18932652371539652
Ni 6.1069598811007175 8.086362451766725 5.467268885311756 -2.496973886270648 -0.21133953765137795 -1.1112762948337185
Ni 4.692604409892104 6.443833176423381 11.468954802037212 -0.4947303847430512 -0.48907550045011894 -0.9666170321187094
Ni 4.9845323822835805 1.3144152319749964 5.061962285849651 -0.01640158128647498 -0.47000639963380986 0.4564137485510398
Ni 3.361179275734852 3.7233884718716173 0.7616254341233548 0.14689329425185024 -0.3330578752994974 0.26229828808743216
Ni 0.9725971976458627 1.1374029940938728 3.6515362339048454 -0.8239560307806518 0.6946953620089004 0.9167756831165501
Ni 4.5641353812287795 8.494345803277666 3.4326170974801298 0.2308308136067702 -0.8109429063504355 0.3897985225246513
Ni 8.382528771878032 9.366936831836492 9.063155613655221 0.03154435046518439 -0.5266303187754414 -0.5683855483353566
Ni 0.8154091248329625 8.241137491944468 3.4440587526135755 -0.07610413935343022 0.9781615424231993 0.8102481942762563
Ni 5.877109574979033 5.711465527537546 7.791599495678205 -0.21564305012273827 -0.2539445168060981 -0.04627574313808805
Ni 3.7858428801609505 3.6679226280447614 6.0304831348440855 -1.508553385123602 0.16573768065186295 -0.582902253894293
Ni 3.5340567699515177 4.883198197577664 8.863645284222184 0.2741616151839214 0.3411234259164512 -0.21549701146317726
Ni 2.0881020618539416 6.791377689449532 10.85060153237998 -0.032743255869292 -1.095880014883306 -0.6662777300981558
Ni 0.35119796876064424 5.067001210361006 11.175307002326534 0.4770270539260172 0.528277110350245 0.17927916678172348
Ni -0.011216551776770781 5.535649445568463 0.08624943424351394 -0.701842771686959 0.33909045464682247 0.594067526482493
P 3.7024227784841863 6.308234305040252 6.967697663869749 0.9571132063933322 -0.8988324683745682 -0.0019054445528289762
P 4.341640963038624 1.4329100156709853 0.7161366608289809 -2.5860618394782557 -1.7301940475906716 -0.0413875618078513
P 7.665758242601174 2.110019028840713 2.419130204743434 1.6003034585444054 -0.26194861805749725 1.2336060408135916
P 6.620035418962494 5.793924937064481 4.953433270425558 -0.2638134391803779 0.2102509325728895 0.03697092079739439
P 8.859427657313429 7.188181221530607 8.505055637038154 0.37356817670871795 0.7788529677944264 0.8845751871246056
P 3.078519157024072 4.068211023806587 3.526630242891325 0.06456065749020494 0.18262700020803385 0.013421672722544627
P 0.3184176456404217 2.598719358038215 5.3860338873483276 -0.16033450735842064 0.1974257557837632 -0.6003240489151661
P 1.5124402559959937 4.078514918041021 9.333699709017576 -0.7431858534101201 1.5247299948834643 0.7665502391676734
Ni 8.97770581434818 1.4199124159968366 13.08203415371307 -0.327108856804914 -0.42533913863342226 -0.373472274560802
Ni 6.512663943393438 1.8299207558628081 10.872340488762518 1.4498502148554384 -0.04614487398717859 0.8848616080167728
Ni 1.5956908237639649 6.192828805904496 7.4502693422643755 -0.33952239997791844 -0.004594561349217894 0.19169091018251502
Ni 2.1152369058113494 1.619331385490134 13.22272469349029 0.9844733435738399 -1.0506540531659712 0.6793296781861075
Ni 6.071866361980516 2.3805292174213104 1.1060524069378066 0.24816930488521777 2.2391997113058144 -2.28862428448553
Ni 4.373249618478075 2.6039749092108058 12.628259693437075 0.5643507161443507 0.8662349940545211 0.15913097396862272
Ni 2.6381925031355755 0.5980713630352682 9.789183636207238 -2.0268283899558126 -0.12336590055387141 -0.16909991225587653
Ni 8.661007054171913 3.0044799316338673 10.968228867575975 0.05402401962493922 -0.9713681736504497 1.5295384720157013
Ni 1.376031389270852 7.428297747684771 1.235012142081583 -2.0525934147350586 0.6445133418378706 -0.31956009792337864
Ni 2.308157075467572 6.256281580545612 13.20827757889596 -0.053967198245074795 -1.2592008585635603 -0.8259298666775712
Ni 4.291185788071656 5.825863241771031 4.570237660090287 0.5641825659976026 0.13396450200532412 1.2562520603478817
Ni 8.026281518200497 7.637304801575375 6.433128993793186 1.7785665253567886 -0.7542773353375913 1.4081908874434392
Ni 5.9052616223892 0.8824936925424491 2.600926124417674 -0.06959924835537691 -1.6022032466702794 2.788038190747179
Ni 8.157764483020145 9.057650470894684 4.5119961694344655 -0.09836680740637252 1.5703645048931278 -0.17980495737820645
Ni 0.4310503235123598 3.5945238640877752 3.2296737063940304 -0.8483434584860808 -0.015396279950412194 1.638411064049404
Ni 8.560906699579991 4.619620062156613 5.424260016361009 0.22455526501070358 0.4201226274294894 -2.6697687308796083
Ni 8.414693121796306 6.900981361484364 3.6904235451618197 -0.6489063286992437 -2.092241111033668 0.9023265975707557
Ni 8.636076151028817 0.25834801433478 1.9457670431614271 -0.39990861437545966 0.6236064164818744 1.9653319732132282
Ni 6.732436400492414 1.4448904118923744 8.387249349382877 -0.6725571353489643 0.7803928014777205 0.07188573039670845
Ni 1.7506636535019668 5.149677246549178 1.931885041596407 -0.43699909146985383 -1.6608295409539204 -0.41065402581742183
Ni 2.735975894307323 0.1370380258977744 1.9104220487431824 -0.8848163566011343 -0.8754868516700922 -1.199390057053515
Ni 0.5709647747293263 1.3253124948902066 8.062309357529157 0.3824508239103284 -0.0020131737752868556 -0.9093601073787694
Ni 6.107063485156091 8.353557310575365 8.32954565795995 0.93937722256615 0.14892960795558868 -0.8525726660760802
Ni -0.07990698234454892 7.879898406508019 10.662725938365405 -0.14200768402477476 -0.25452430056896813 0.1878201143731991
P 2.8225229547462742 2.032372498613407 11.231645945783674 0.7335997523835818 1.8883744847205672 0.7828674882704582
P 6.83364814404198 8.256112987221204 2.8196945640345734 -0.38162472846460727 2.0669252579766986 2.7649275728716445
P 0.4223626525417549 1.2730395396789564 10.237940834638003 -0.6918136695857312 -0.8865659923023892 -0.1623160565648237
P 5.894854124099393 4.601781327531368 9.764591800881728 0.023842096724920228 0.5550415229282828 -0.7693203457136427
P 0.8656938240360875 -0.05320256614446647 0.5939874795434488 3.5202999410456273 3.705965213859353 1.3765223526955648
P 7.140674052866545 0.3453462233421308 6.560860549953261 -0.3397723112051955 -0.05186814962420099 -0.6629250115758389
P 0.904912668270258 6.570192449777279 5.056145389067945 -2.633626476631097 4.666567921463183 -0.4501523410223602
P 8.022024333379688 3.5379654684042516 13.109411996273082 0.5769871739614385 -0.7245461268217458 -1.9969760824810703
Ni 3.07137047720329 4.578338555365457 11.726101009329657 -0.06937324838749988 -1.0310110821240632 -0.7211558701932741
Ni 4.74040355362131 0.22961107493927632 9.794918591599693 2.251723040583806 -0.5120951012737439 -0.8208375397563283
Ni 3.666745309233697 1.8523463245759593 3.01851545557185 0.20046479972040315 2.079493581560012 0.011030546782548745
Ni 8.65367942189185 5.401359752703237 7.4300053308883385 -0.06297582950158832 0.3403634078219751 1.3309935150258303
Ni 0.9721074330204601 8.632968029367607 6.1916712660494575 -1.6566185881963662 -0.9683836371008289 -0.7590318193034411
Ni 7.262597188940353 3.9352964393126837 3.3371836346552657 1.3668802016201103 1.941397830995134 -0.666144289844085
Ni 2.5703130097648583 6.920082181875069 3.1794276232479084 1.4871101276481615 -0.28049887025585885 2.271547788619217
Ni 6.116585639699978 4.267177902876435 11.834808977213031 0.5261659775445131 -0.05369260442744946 0.7115067771392842
Ni 5.589768436675462 8.460561462675367 1.062101682938207 0.9808989959590204 0.7507500389106232 -0.4726505221248763
Ni 8.009554172532896 3.8297239068869353 8.999661397391955 -1.222150233568166 0.6198641758306227 0.7873113829744247
Ni 2.5999249325007447 2.4945878638372094 8.47499068202377 1.4421741863674193 -0.11056334947256442 0.07635636457355237
Ni 1.278332765053501 3.6473619323283364 7.075455300008833 -1.3776958041783756 0.1699380918864557 0.3513592447118465
Ni 1.5730580469400668 2.4797630653682887 1.6807780088771964 0.3053185004027 -0.6894004321585482 -0.9436362549528201
Ni 5.224083795408435 3.5142024655217314 3.8428307617467508 -1.8036016139485456 -0.2584318631534904 0.5938854923786739
Ni 6.396523797319578 7.318232566676002 12.682834542387718 0.8804256837326063 0.19072263273197476 1.0031747766380854
Ni 3.2678131847422174 8.09354880578946 5.76772723888068 1.0413075789540647 -0.4352761952414762 -1.2361419198615677
Ni 7.120264053957936 6.687330962202922 10.084320508750151 0.1413286556798792 -1.2439691292154704 -0.3372243479723611
Ni 0.6582700284826025 3.3624884542527558 13.316876291593667 1.656709605248276 1.807127881934249 -0.2801340307172724
Ni 8.630321416680335 8.590970712739326 13.734520250340676 -3.2905309930444684 -2.7807956502521525 -1.5142517210599598
Ni 4.714436609924478 2.692820095968954 9.913565955813597 -1.2967363936151732 0.9128205551235441 -0.4452237933724913
Ni 4.923594360622898 0.3972857618660876 12.01988631987747 0.12319852173807169 -1.0220466738419238 1.9652982917618151
Ni 4.3980580804648195 1.0919490694363063 7.575933526592221 0.5497021129932405 0.45159472989584154 -0.3254805771728717
Ni 1.6000139384381926 8.587156199791478 12.57999904073393 -0.07757583880295027 -0.41473488075501475 -1.6260823672807223
Ni 7.21299910206784 6.817843816322255 1.5432304393979934 1.0316176053598105 -2.6485663857703803 -2.5825543405456295
P 2.5468231448465053 0.13223456514863247 7.140423519423551 0.03665056134349817 1.3648156057815979 2.3970466763556915
P 7.068810512639186 0.3954849350126838 12.851370084829178 -1.352538845296774 -0.16315140798192548 -0.7718526252171933
P 8.579706126355063 6.931111304497119 12.472530554094844 -0.16192524888430823 -1.4067970924197062 -1.9271991708972487
P 2.839617623882926 9.632351584602803 4.129793274320684 0.2665025559767668 -0.6032504785333418 0.7396683271751648
P 3.3202839295137263 6.650080595020851 1.2576590467312139 2.5587335839769483 -1.484277800405689 0.002005974686435255
P 5.477913731073875 3.2510010721202205 6.97682329743807 2.30266585018026 -1.513250019268323 1.0373223690540716
P 3.5127802643979664 8.253654745543702 11.11075225727826 0.41283560684977294 0.9790938244294816 0.4517410256657188
P 8.664275291191426 5.151287818682714 2.2280005015350777 0.6168608702279248 1.1324411018367915 -0.7271730229216316
