# total energy = -381172.8389701622 ev
CRYSTAL
PRIMVEC
9.26619366000829 0.00000000000000 0.00000000000000
0.00000000000000 9.26619366000829 0.00000000000000
0.00000000000000 0.00000000000000 13.56201106262744
PRIMCOORD
 96 1
Ni 7.540364953240098 3.3703554936801328 8.55286894332257 1.2317841571135042 -0.6762500108195192 0.30438236174167577
Ni 3.5425213687415162 5.0520028208001575 8.434838023873867 -0.47518948649664616 0.8796548670048528 -0.6504713591935185
Ni 4.307797756770018 7.918221791413032 13.13724867650646 0.8323411695205536 -0.717204855965326 0.8493801272807115
Ni 5.7973661590166605 4.130822727286844 1.3121652746241883 1.407616760107524 -0.21607293857130533 -0.8868051048963888
Ni 1.7186935686967417 8.181576276618607 9.834681874547885 0.8926659345525402 1.1529289373774982 -1.672603907881029
Ni 0.47438740886464326 2.4069864212026397 1.389780764542873 -0.6441793555372197 0.39746452371034124 -0.7916704312740688
Ni 2.6758542915353147 3.5800216537992893 5.049298945539505 -0.15432198261575358 0.36883786111258415 -0.4717069272646844
Ni 6.171729642243516 8.041388035294405 7.623409505925116 0.100837123323736 0.5198379784439564 0.1229555524893302
Ni 0.7922196988420638 1.5044035780256135 3.6386877780290328 -0.15139529588726186 0.14178271249816227 1.7769991808696688
Ni 6.7876164588113275 3.2035454784565034 6.349828660997139 -0.8976042523944219 -0.16249731933769435 -0.11738062950471398
Ni 7.689754524700789 2.8517451763800503 2.3909957510953506 -0.05217256823849725 -0.2887279430338705 -0.4634125484663761
Ni 3.121233881676618 7.020318375948923 1.43338283801442 -0.6953710479196863 -0.3367520363216329 1.0479112003135114
Ni 8.66222299918637 8.366816750695685 9.174076408192871 -0.8953905325725547 -0.3084627024586365 0.8547197943260699
Ni 0.8098069340878393 2.4410767470557517 8.212258496505758 -1.1158723988448331 -2.753361208190284 2.7852655130980484
Ni 5.37885852999904 6.54558348482837 9.365368633238873 -0.7957759688020102 1.1168193361391348 -0.21611124800840847
Ni 2.3049934294480297 3.8092487483777884 1.1333592453072077 1.8053270812800846 -0.18154739399060993 0.5633502999042944
Ni 7.725800017380487 6.353773279566226 4.295142916319462 -0.5775286482872054 -1.2372642063914692 0.6545262459891824
Ni 4.106007861118147 4.851241472625778 2.5545542590230146 -1.141425821833905 -2.0319001480517653 -0.7810787718011516
Ni 7.9150434870456445 7.261026284262678 2.2286316555086674 -0.39709094242100645 0.4031662020808089 -1.2500629008180342
Ni 4.896849676988111 1.9421570909238854 1.3679051349494977 1.452182462533041 0.9115100638422367 2.1095325511242637
Ni 7.801736473038615 1.0120165883048486 7.764291785141788 1.2522424249678563 0.08876142310612455 -1.2047027275156799
Ni 6.571565891376923 4.666862754543356 10.080222102767157 -0.5059409087468899 0.7909983449077087 0.15332825124391658
Ni 8.803513917535993 3.2981347816118647 11.02187307094062 0.2734998132302064 -0.16092611819583252 -0.7406556307890987
Ni 5.230710628466134 0.9656392898827697 12.890569633107152 1.948376576305812 -0.9918128146580466 -2.3411730051165227
P 5.00505101838164 3.2130618591716833 13.059294043906005 -0.05337250208386937 0.08804048577969999 -1.2442414090402507
Ni 3.5392596686327114 8.57686282474797 7.099535990722189 1.0067848625868467 -0.02965458964163925 1.108222081388427
P 2.21923480868952 8.189878785986476 3.490875312700498 1.674550747194755 -0.27657870926584627 -1.4118210279968588
Ni 3.7524284498914375 0.21979688946278478 4.46417959783896 0.2790865632893645 -0.7065800292616283 0.33954553990637004
P 1.9726891984764827 8.832331779292769 13.347893346658257 -0.2160739670125698 -1.1648475431919554 -0.4940094474166266
P 8.970509256629441 1.2160581689750138 9.723798896758083 -0.6781665111159417 -0.20403709045269378 0.2940002471764034
P 9.302609631344186 0.25442002144162545 5.436548924054189 0.21997947271456308 0.9726102735876667 1.3388140395115136
Ni 5.472595343353236 8.114563165292239 3.2903743445632148 0.5857767472286105 -0.6625997670259363 -0.16628686828711362
Ni 3.3181868243262262 9.183798498403549 11.612851432785478 -0.815054614525964 -0.6507976321846857 -1.6452082894768958
Ni 1.8305179917452228 8.095169022315734 5.706026509918567 0.25759985417049824 0.031855968168332235 -1.5665677568548566
Ni 3.0332606406737774 6.628905096698766 10.714083481468665 1.8871874063910015 -0.28448973658280685 -0.8057747318859347
Ni 9.050550636004049 7.390604734039771 6.497979342388093 -1.2280781690168268 0.13724805785260236 -0.22139897876990902
Ni 7.107133342765398 2.088664876208898 13.726382139227272 1.29307128605876 0.6965480989469229 -0.37611948237566195
Ni 0.37642243142053844 1.293708870428964 12.70072849396183 0.79137681129305 0.7846739453515778 0.11431227499203539
Ni 8.406540922191281 8.970472191855476 0.4206397801398828 0.9828358079704171 -0.45653407617898795 -0.6962639920476009
Ni 8.728856196579612 4.243119726203362 4.0715051896546886 1.055955924994859 -1.1588851549609334 -0.3145125081971422
Ni 8.861140374856054 6.360204017848927 12.6962658951766 -0.7130851773699978 -0.42846405741564925 2.8445003874999655
Ni 1.4335079316265475 0.3300043617470995 1.7053687824567918 0.11679981730057948 -1.2178305231468898 0.057221700626630484
Ni 3.208085913267057 1.3584146995760924 0.023864154716527863 -3.2428647973167566 0.9343414599144554 -0.29189014281193604
Ni 5.668649465234224 8.500537188963223 10.92278966394216 -0.004866069843049684 -0.12628076020782122 0.5766986961867423
Ni 3.9660420084377277 4.43576388887969 11.156557193331214 -0.3133616824221507 -0.6666896208245938 0.1853433706979324
Ni 0.9213542979509417 5.754324690251315 10.99560341239385 -0.45359324838310916 -1.1503753177177092 -1.998996712455525
Ni 7.487353060278517 1.8316855321250791 4.695385024727772 0.19717121657079592 -0.683597709433842 -0.3613803763932744
Ni 6.241846928389344 3.8533836279750635 3.74091798433701 1.1220690145738481 0.9921128623969687 -0.08464765804806712
Ni 2.211506803318089 3.6096178758093034 9.734973926108136 -0.2079901615631708 0.2425722704134145 0.5391593044803876
Ni 9.42807389121131 2.45288187756319 6.078004874940859 -0.6234986872594165 -0.6422929371477841 -1.4474701446590361
Ni 6.72672830138246 4.784367354201775 12.491317154163672 1.3772234925276474 -1.7770421182924623 1.1965250768008941
Ni 7.792229358516927 6.524187844057824 10.715738423626144 -0.5982054599102665 0.9610860749981512 0.13500759855785782
Ni 1.5288107316807096 4.059417440245777 7.148210378510668 1.9997497885714657 2.8261447678109133 -0.7268907157945224
Ni 6.206190615836266 -0.21883969167517223 1.101212040229142 -0.20888927633867252 0.15243942088106005 0.3671527601006774
Ni 4.131860540957828 5.288661402558378 0.06999033929500269 -0.521544933832734 -0.47752173417424865 -0.6560863913874507
Ni 4.048168281347795 2.0549173995149497 11.18271843741414 -0.5022868569340705 0.6485533162351992 -0.17266500389931555
P 6.205551248485392 1.0387588227196578 3.0755385750954716 -1.9394774740439695 0.36324314063362606 0.448534345802963
Ni 4.915067013391269 7.3282895828133015 5.513160885217808 0.7066335082073831 0.2263190417793457 0.4157646075711098
P 1.5123169072668632 3.485478681611383 3.169699780111552 -0.39608127020956946 1.192080153655663 -0.1688140055843415
Ni 5.7658240363735525 4.970877296787109 7.715359797174261 0.4795907008881353 -0.3414381289433926 -1.1553817697933648
P 5.873497204738099 5.8107002114501025 3.0262266731948166 1.2923860870662773 1.6629800116380198 0.23367368237220398
P 0.11408630087961587 4.673451018115403 9.077745060661215 0.29639420132987665 -0.10544993950539905 -0.20815934015118345
P 6.967139691504506 7.843128559362577 12.724922525166633 -0.21381602421632853 -0.28363433056104703 -0.35399591100374517
Ni 7.981760080180304 5.02287917465818 1.2587169439491848 0.281054999869645 -0.20373627138282333 -0.0867104541143668
Ni 6.180541792253385 0.9944015544786005 9.307011073252376 -1.1768949612747923 -0.7585373961655258 0.010920760677561836
Ni 8.663140352341971 4.710849375044777 6.494561970228639 -1.003179918844408 0.9079290313591977 0.36189074037078967
Ni 0.9794829829582115 5.585930155940737 1.506305000929951 -0.20601889676941296 0.6990631520592929 0.23458925220793791
Ni 6.489161632662128 2.5649379554489444 10.944189937809451 -0.309199580624661 -0.3441514141094977 1.571888654847138
Ni 1.7254764223320984 1.3734722639988453 10.57911396031855 -0.7192488829785484 0.17523790683281434 -0.15204989875212524
Ni 7.749632667039146 0.3900789473874635 11.516466341331574 -0.1294676425762351 0.43437039559775514 -0.47897312190879443
Ni 2.170578026668674 6.513207404771078 12.788704514822715 -0.3008362962616303 0.3163768150993906 1.4123609596607287
Ni 0.9349959880082812 9.170084532036979 7.703479610499547 0.7408245522667952 1.077666577199073 -0.7781932227232404
Ni 1.2015565761617166 6.54217352562371 8.123359562773175 0.494536009344058 -0.7884005022735454 0.24877120013527482
Ni 3.198328611521113 6.1528822046829745 3.891591850215543 -1.6210522610559825 2.8675135605656874 1.780782559171501
Ni 1.170524094160609 5.646317938921095 5.183671723828803 0.6527940937894241 0.3591553437174975 0.17642652782427679
Ni 4.937426338284871 2.4902617021055815 4.805644387695636 -1.0999320734654927 -1.4602441564952526 0.21348409479820654
Ni 4.821135609973764 3.1039616970095345 9.183569623424322 0.14121835535426003 0.2039627855713326 -1.0128490665030556
Ni 7.4653643831245535 8.575389499982913 4.913001578862143 -1.8140472347619014 0.6308772391116747 0.7206874151972879
Ni 5.292238153245875 6.136935085685093 11.593552731601926 0.06648204288263389 2.3828017364009026 0.6713330331338762
Ni 0.5778361196166775 8.24441033468057 11.691850365392357 -0.5067952863273854 0.40707479310659567 0.9950243796168089
Ni 4.795403390649466 4.951214434199367 5.206401696462041 -0.12441825307778571 -0.1182882289206479 1.0780630413065433
Ni 3.86617097499254 9.208502170250355 1.88233917884322 -0.4364560744821903 -0.4614531107471601 0.3061800770720469
Ni 3.211634865374081 2.0229397657777684 3.046190687071014 -0.40836420134198054 0.7837851149887212 -0.16859314782278706
Ni 5.810125707453665 0.8086375404692845 6.357504775685021 -1.0116910416392124 0.1898379161341763 0.0809432126132864
Ni 2.4399648038368413 1.4636415928590352 6.132483606332053 0.1386984171458837 -0.09930911671498381 0.020756772931377156
Ni 7.786280462295752 6.274046950770308 8.363556903825579 0.6618371778282989 -0.9154029711387396 0.9233098846906421
Ni 1.780035769606664 3.585006865897407 12.48699076842276 -0.19972303645837214 0.01852634093896164 -1.089802955451291
Ni 8.16546236613789 0.5573809974854608 2.6115682209533255 0.3104943881766846 -0.5742273518281142 -1.0580176926198939
P 4.388812086461174 2.7641425831168474 6.938392252818261 0.11765830864613286 -0.12450849879874687 0.21071527380381774
Ni 0.11747124136185072 8.184170810796067 3.6666790953264186 1.7311538404007798 -0.676507378245964 0.37570862009048844
P 3.1406836218140697 6.360898982360747 6.517115885185551 -0.32488151013629213 -0.8051813212763101 0.117910533866255
Ni 3.1587897638953364 1.3046059139742918 8.445674837161505 0.35849071355030515 0.2712038181071781 0.7740828000992926
P 4.289904737139042 8.681311357777677 9.237478483915826 -0.01451850533114919 0.12247758441164713 -0.29437639956889944
P 7.078287682428149 6.4245577316434 6.384641749942543 -1.527062499671383 -0.0006191216412376434 -0.7878243180551013
P 8.946602477422854 3.9812663643433175 13.102611645237383 0.10365350972660857 0.01596912173474669 0.7312459074394245
Ni 6.004094935799195 6.676162683502483 0.9109789410991531 -0.2546394859905937 -0.659472020030232 -0.37009435922750455
