# total energy = -381169.2543650409 ev
CRYSTAL
PRIMVEC
9.28053212978207 0.00000000000000 0.00000000000000

0.00000000000000 9.28053212978207 0.00000000000000

0.00000000000000 0.00000000000000 13.58299686249778

PRIMCOORD
 96 1
Ni 9.202037336258835 6.173419217861386 5.469859296977567 -0.5740957113462565 1.8691266922345486 0.7419833484615866
Ni 7.9817587345757985 4.079359960105845 0.28854937527127045 -2.3683431377734117 -0.6890564185555681 -0.0009934742615208697
Ni 5.1720498068003025 0.45265980814074636 11.310112981609608 0.10591813739106921 0.9011405476824546 -1.9061361795793625
Ni 7.786923244160447 2.181008562780853 9.53470728907529 -0.4452903849443686 -1.0256899270214659 0.49075905880012893
Ni 7.907236062001003 4.7191134388036735 6.558835074734984 -0.9570502143658808 -2.0603095524323933 0.1712673522208405
Ni 0.7223455739131961 5.261560538678746 7.534760051001755 -0.1419323507021491 -0.2751016104996875 1.0154245405397158
Ni 5.678701894456074 3.2527336875143558 10.754107024370677 -0.8552571548867787 0.7053890942773207 -1.8604363635494023
Ni 6.977122576223765 2.1824470452527205 7.407175008226006 0.27337485761656793 0.8763157753292907 -0.5963781768935407
Ni 8.846611518790649 5.575595183085465 9.938502311673314 -0.023671118364694717 0.7561830370007364 -0.1861185583010601
Ni 8.125588420698362 7.320233127626353 3.378308567042321 0.8810478906976376 1.6246428066207181 -0.15180153018674503
Ni 1.0806715576553088 4.056734022903186 1.5255199419472125 -0.2044708355560027 -0.01379859644598914 0.7960626468044935
Ni 0.47967079674958124 5.1145940327143045 13.011519423578246 1.0387274769317143 1.252020024544405 -1.2563482196061138
Ni 0.009499552633569271 9.251780988189209 1.365879013325809 0.5839006132518202 0.10872732470509017 0.777866435511441
Ni 8.181707798165336 3.6321589609325327 11.296801914452194 0.6921926501917046 1.4968844334261058 0.3371837245424128
Ni -0.20934931452988695 2.2715401531877193 13.268360004903526 1.0569146893637025 -0.8866433825075439 0.8577015026622131
Ni 6.255783940040876 3.157144207125763 5.494294937935155 0.03877840631977838 0.6577969463206542 -0.6034404830569609
Ni 1.5970403623952405 4.4356117449288455 5.612046328922578 -0.19063958609986523 -0.1368960738298223 -0.6948375440137194
Ni 4.933363802323194 0.6801701958912583 6.431684360860417 0.8404604561935785 0.32162675064442026 0.052408338398387155
Ni 2.0591830182118183 6.176964381114632 9.168753636019453 0.07475945240007771 0.33783575630411494 1.5677345234694484
Ni 1.6021539355694265 7.794756013233066 7.504483243155177 0.945273790556243 0.46367171566503373 -1.2599727037325785
Ni 6.114877621522429 5.20431821683051 1.6752863844391535 0.07030115951840796 0.8850876079846499 0.19213262570562395
Ni 2.9917372839251914 0.47346676105639923 5.014964736712784 -0.560244407285461 -1.0375779367083036 -0.6593565774982902
Ni 3.081832689324459 4.005533327436791 9.667209157745203 -1.2795457407684994 1.4262657426672791 1.1411288594187767
Ni 5.106065223735944 8.777703568122172 1.6287918467887836 -0.5321785022871802 -1.257274330964809 1.273910396859593
P 4.204981242294194 1.0616279058342026 0.4615598384021697 0.556955452121544 0.11660415635000562 -0.08361715990102374
Ni 3.800693423442906 7.909194254269156 11.338080793075536 0.48040959724500487 -0.10362445626088605 0.02241436313945817
P 0.14425009422563234 7.50773699770122 13.713529495605279 0.54577449580406 -1.302644274459176 -0.603525072350967
Ni 4.003640098893173 3.447754788571238 6.135167648801418 -0.6234742617793844 0.26734073560734606 -0.8793136816153501
P 0.33294280045950675 3.92821721470695 3.5827466239972914 0.026351750520651387 -0.04720905358563482 1.0212889697402927
P 8.43938177127109 2.041782020568264 1.8585889576429604 0.28394260583008524 -1.4262937676917373 -1.3311552374146751
P 5.726431670925833 6.9092262035516345 3.080420192342406 0.05297809485892812 0.5295737176744815 0.3101184928945046
Ni 2.419703847790038 6.9225437670815015 12.781206315140613 -0.9458564025325905 -0.2682149106821832 1.195834735602089
Ni 0.4607515040583011 0.5412294940666272 5.085677750870151 -0.6129257968395766 -1.2951040002180727 1.34217010046794
Ni 1.9189541785349606 2.037021107612987 6.052582978011712 -0.594757353460666 1.8554875041845593 1.579464410311867
Ni 4.985399745676479 9.040593200254955 4.143439249934886 2.186942039552679 -1.3390770633649132 -0.4631631514597314
Ni 4.131442306119514 2.2569882788916695 12.272672135579715 -0.15203215814031237 0.40177497816023716 0.8386187749991493
Ni 1.0786205600663883 1.5208843161749694 2.9661462167240704 -0.2641214573391 0.5561203578147583 -0.27605163311778264
Ni 4.740931969715673 6.303244581080416 5.185906569243817 0.7089701267603596 0.1969328753077447 -1.1741485088779067
Ni 7.464044252684765 3.683331814802698 2.6104345588679254 0.6121930324386102 -0.2018051157983815 1.6926914226595235
Ni 2.1833565373962234 7.227669100694721 5.271235493368563 -0.2593926844048629 0.12967615904261537 -1.168064764577672
Ni 7.83003131565608 6.68767206128786 7.834523093181136 -0.14372929470157184 -0.3991897339315641 -0.7001640984329555
Ni 3.819486500897945 8.072095433809057 9.049304835715224 -0.9741459935059029 0.1817124588135645 -0.15804082622823748
Ni 6.5334388987074705 1.077952361756876 0.7166770249208319 0.7395037765728425 1.0153425223488706 -1.5593555553771339
Ni 4.7670195453828885 3.291878971813296 8.29872231490588 0.537480631226384 -0.3780616937036973 -0.04596566809683696
Ni 5.666479433711241 4.111340673641679 12.961860224489767 0.03241621154717642 0.3715753146484052 0.7270308409168124
Ni 3.366624377157929 1.8986669354155952 9.942821471301746 -0.2001578100029456 -2.1362252299241016 0.6160967383683906
Ni 3.550991427390918 1.5610040563419487 2.623704791684202 1.2776721778948705 -1.7483149255610988 0.29952734764221967
Ni -0.04305517246279594 8.100224726533117 8.93562852636262 -0.6981164718753073 -1.0938064201837292 2.5232135366934676
Ni 3.174109019761719 4.632266219631203 13.452219410031926 -0.7390959996114626 -0.6267511327584432 2.6807100603824607
Ni 6.438035028960409 7.147958610689126 9.840744898991636 0.47221163481524486 -0.4773620686679327 2.007590367661807
Ni 0.11215058987921832 1.207443625821151 11.207697669878703 -1.8592351441524495 -0.3047515721556364 -2.5450386029883587
Ni 0.8666207255754352 7.839070553898651 11.236384722580565 -0.7693190601620622 -0.30134948845262294 0.004024033557728554
Ni 5.85967226994904 8.517328960182137 12.980902948257667 -1.2023907915530518 -0.6939517989746564 -0.12026977812705093
Ni 4.958588288507291 6.397321334740529 0.22542783635253133 -0.8890625334719977 1.2440899710640507 -0.8359371144019281
Ni 0.7684586816952194 2.99306440001214 9.554891518288606 0.007100615600523255 0.49418222554906505 -0.3216046391572332
Ni 2.798433081302473 8.743050061348288 0.8740247340661167 -1.0881188828806485 0.3947098437833396 -0.9383179280637002
P 9.546512125876678 2.8560095023054664 7.172895400378849 -0.48798175316530795 0.9268875747395715 0.8860463723534934
Ni 2.4497634911860233 2.383843871846201 0.7424806163065059 -0.05175347842320764 -0.46889259774434083 -0.5449180613410358
P 6.4577190374947975 5.331860569158706 11.331723628603092 0.03609725994318945 -0.30486470069473304 -1.1647164169307296
Ni 3.277995295826759 5.757549294978547 3.3444736031975904 0.2652774253204141 -0.3719681792114497 -0.04186167323079242
P 3.9036702073644425 7.948469466017169 6.381916579546643 0.10119193555999347 0.9562313180090111 0.8188289939667318
P 1.0044134255821955 8.593986155134544 3.514505015531913 -0.1615421545132766 -1.4436577128914814 -1.1537882000539998
P 3.455828851477847 3.9630656126544417 2.0388215308358406 -0.31923459626315986 0.23730485136688811 -0.341726863828405
Ni 4.503573081325513 5.6689573357756835 9.20205960953582 0.6446251848253866 0.7814145578740155 0.3351623232370099
Ni 1.9188242510858886 6.457607671109878 1.5244879467802988 0.05654884292932196 0.4459796977019093 -1.9869955742295908
Ni 0.6482052592599544 0.8173197550251128 8.243208028130299 -0.14619446841261274 1.4808718600479336 -0.6816094753592197
Ni 0.9512730989117991 6.094042827010547 3.4822588787786892 -0.48267731023325905 -0.4316234289802373 0.3220543251001421
Ni 5.377298054205556 2.8817258566896204 1.5481087570215655 -0.5092092950855166 0.427650046154786 -0.17522710819953694
Ni 8.612203839600834 5.796360480122732 1.5760487268912642 0.8761640802427749 0.6270059290817266 0.40511201295327
Ni 3.236502036912448 5.798411477711652 6.904169241623117 -0.6071703824130382 -0.5524457371766486 1.436172717368346
Ni 7.132710696487334 7.534993920410084 1.1339696533710066 -0.4702989911735643 1.186453294387189 2.692226288552176
Ni 1.9675006418274585 3.1987859545532986 12.013684967185126 -0.6597617833565089 0.6252434378646651 -0.6017039599818282
Ni 7.268967468435423 9.369532379176633 8.288752239296029 2.0983500521448826 -0.34559148899013387 -1.1876704546237418
Ni 3.024952308227208 0.7943884883171347 7.870844311569178 -0.12705723336252955 -0.025417668742156223 -0.4169843389108238
Ni 5.2965017419470035 1.004636158352033 8.853098610712165 -0.37438398774179393 0.21458992626787557 0.4200295534950508
Ni 5.729911870454544 7.811136152348198 7.83207860103217 -1.5863917335593196 -0.2999371814861286 -2.421932383853777
Ni 6.952287872386884 7.46125081252972 5.411249024701244 -0.14053315636177735 -0.058336530957364054 1.4702382915934873
Ni 8.072262483386435 9.216422160977507 12.834288174458926 0.8602960028622668 -0.6448172462315347 -0.7855054401139375
Ni 8.498981348266774 2.4658837754030127 5.250452669836309 0.7371167643979046 2.025197796330925 -0.32996766640994785
Ni 6.861932612089473 4.469430003815839 8.932355282699216 0.2556175336331469 0.20284049904143134 0.646973373342589
Ni 7.1820088828780335 0.45493632265912715 5.329655514737316 0.21804368914443092 0.7511645007402225 0.2922948344495224
Ni 5.030827950191252 4.172118878211086 3.6179124161418015 0.24999170280593722 -0.6433154648750276 0.6569590238003912
Ni 6.9055418323172395 1.9707581085863317 12.155274332864408 0.07598869682148848 -0.9778517244922643 0.19569180381179202
Ni 5.603743036873679 5.408972510182863 7.208659786842298 0.8982606550314982 -0.38212917890485154 -1.1615696437716319
Ni 7.15971704483013 0.29371491942508515 2.6409285311650943 0.8372260084166807 -0.2850276113641478 2.4464360254220963
Ni 7.4133261448863506 6.747679981694914 12.772771239536224 0.8809054515825022 -1.9711508938878506 -2.591356255107976
Ni 3.0711600774364123 8.18625525888285 3.0819551923478694 -0.42443102499685614 -0.6260759610682896 -0.003951014227948035
Ni 2.6658142779283964 3.117228638664468 4.003615041456565 -0.3060867460272922 0.9634915991158504 -0.11946502283756845
P 2.280152486954769 9.36155112159079 10.783486404765451 0.7009680823914897 -0.39001963739652185 -2.2924752828005035
Ni 7.102122062762985 5.476915285515377 4.254860389992886 -0.5741592175943402 -1.5525979249383262 0.14107591623912477
P 1.3465402405846683 4.868752738006166 10.919357106579156 -0.13873312703856105 0.7500920936116501 -0.823696349361362
Ni 1.7952725275506136 1.030231865819192 12.493653669014366 1.5965792156152825 -1.4040020461730724 2.8934009698554104
P 8.699877026128119 8.518544709884168 6.651593064787017 -0.07084366228543929 -0.3457323854433723 -0.0858553052029231
P 7.088748816040658 -0.038567107150570365 10.382638879154944 0.5407492746753269 0.7519078066641501 1.2458810015262027
P 5.046344999823265 1.8831220441873533 4.3066114210114215 -0.7278304539999724 0.2389958659160658 0.4387677533345024
Ni 3.997821205281168 5.561470213264936 11.7360624903808 1.4623766294572236 0.0203803634285649 -2.7271791504782774
