# total energy = -340860.411331828 ev
CRYSTAL
PRIMVEC
9.30809350011206 0.00000000000000 0.00000000000000

0.00000000000000 9.30809350011206 0.00000000000000

0.00000000000000 0.00000000000000 13.62333571392253

PRIMCOORD
 96 1
Ni 1.7178923753174602 4.704235845157601 6.359699770104087 0.14471505565360882 0.472293910116406 1.2754718278094421
Ni 2.8311310155116143 8.184634286562934 3.1188721010083316 1.3103958933801367 1.245128182520578 -0.04678610711560329
Ni 5.804061523031672 3.0263403463768537 8.103555209820861 0.5941762841462154 0.18759462862595433 -0.7363408054638286
Ni 4.146197040845526 8.99309803068039 10.490731134677501 0.04223602585107565 2.1611363913434847 0.6835732839538098
Ni 6.352205824258217 8.223421110981944 9.07037568215423 -0.35886840860469804 -2.185058963597353 -0.7556032532378664
Ni 0.8083678707573596 8.812539638532577 0.2149722743753044 0.25281785940082263 -1.7583591971709782 -0.1864260622391499
Ni 0.819762838468843 6.977570066780681 2.2788297198560965 -1.1563400199415763 -0.2719358111771962 0.2587473375113802
Ni 1.5258012556786107 7.1593571272326235 7.847681312248531 -0.848913729167254 -1.4898169850563634 1.398924374539849
Ni 6.670719465917459 7.608696019002058 13.507373378735622 0.6700122574399235 0.9919871354523818 0.9292679020462898
Ni 0.7359369434195825 8.9203738984064 3.568496751239408 -1.2714364813978039 1.0299661857993165 0.23420898605038376
Ni 8.013402603814653 4.488781411553858 12.114986884699087 1.1672996042768735 -0.7339921027259939 2.922836244397392
Ni 1.4594531672555975 4.668902323320655 11.507971686327618 -0.9917331104600469 1.7498203064620315 1.016794938524681
Ni 3.3188192513190415 5.7889544877468015 12.865100984891551 -0.2227593494525454 -0.815864254911453 -0.06696129651189757
Ni 8.345180278302571 7.8171042260434795 7.093330168025463 -0.5059380805334125 1.467490296534705 -0.23281082015127647
Ni 5.4720790704930655 2.9265482790391544 1.6147056463849412 0.1047086904640003 0.5932393741542429 -0.6601546479195534
Ni 7.896548801617333 0.23415625448751395 1.3657392847860557 0.570301791521463 -0.3860228575323029 -0.4411311113603564
Ni 4.781418554080669 1.2961147475520298 12.244858055254936 1.4105473034907579 0.45658755512474264 -0.4833697083145933
Ni 6.070421918417886 1.169645685065571 9.825666943791822 -0.4427537345654439 -1.6603402600223276 1.087013822741928
Ni 0.7598522273120134 4.877189525150307 8.792105581501847 1.5308492204073247 1.7488756831605752 -0.10152823585348965
Ni 8.522648383503633 6.830195026937588 4.022835019873601 1.7379749770876716 0.3094944861572605 -0.6962650204888654
Ni 5.708234703402755 4.400940935901786 5.94049583011208 -0.16489950102128376 0.7245810938247392 1.5542197768124653
Ni 3.2025704751805724 6.321554273307462 5.423981360432988 0.5667243585828498 1.4004629226715621 -1.3821582108251034
Ni 4.140472563519467 2.1311530977928994 6.575902574402164 -0.3944023398452498 0.7858481681653369 0.4060831186172877
Ni 8.438382215645392 1.2854942131958769 9.769075598674785 0.623241576943288 0.5085400369326338 -0.529998721027042
P 4.839063575349429 6.84111342027656 3.7092118503885243 -1.5257340106679464 0.9581056522135887 -0.9059024878474722
P 0.3385837522453399 3.2400169341768943 13.12115173623493 0.49774140365523317 0.4622812630754103 0.18735551603195474
P 3.9814903314396313 4.492821124008346 11.18989459424007 -0.6855193519365871 2.359428351782285 2.210088395762155
P 7.123949140649971 4.81982374667794 7.524072420364434 -1.7599957043331367 -1.4921145228412882 0.6484124197819607
P 5.684852773251435 8.073988982538754 6.543451769033315 -1.3372644356362064 -2.0018177268440875 1.4680816502618006
P 1.192134038268433 5.093165211973984 4.149191454432182 -0.6110458062080445 1.5496223872497699 -0.08755351884095243
P 3.7674786522839194 4.668092519211115 6.583422582909032 0.2847928696455224 -1.27287655627844 1.7748772494306593
P 9.155282246825532 6.010319560540867 10.639415823235678 0.2219060003133146 -0.24692900472021342 -0.3655586761406801
Ni 2.0977370431578524 0.18020840784299955 9.312271616148442 0.1045107155205813 0.7931513866949695 -0.43972188971765563
Ni 5.763487544715747 1.0832945043275952 3.0687657044328653 -3.1421523724963434 2.0929023987667503 -2.4243739034157343
Ni 5.936925245555533 5.260059323284958 9.438069565114235 -1.5119595825916736 1.1971290289334802 -0.8223295509208226
Ni 5.228821362461777 3.135877987308674 10.349307689634868 0.46885480252786993 0.9339123427968368 1.1153946878774663
Ni 8.178732955465826 6.22196698402045 8.617236295925885 -0.7412384998757622 2.0241307885189914 3.523974304573421
Ni 8.751189996165001 7.236604992808182 12.441851747589128 -1.2418492546589903 1.3502441357253263 -3.3105781415033304
Ni 2.897441871561775 2.977370467982708 12.593574597772063 -0.22530756979569583 0.02962527906560059 1.3053364765793583
Ni 8.383175914798466 3.1349006375212984 6.548506063648032 -0.7924595028342675 -0.9291344617922193 1.3940374787611927
Ni 4.671061800946095 4.74248280017025 3.0047762868300536 0.8572261056876915 0.08847551643458956 -0.33227960237257614
Ni 9.05893417397668 1.1756307890015976 5.122224148175977 -0.7726686933605854 -0.44496539750478203 -0.36702960425925174
Ni 0.8347898241520797 3.571124425953468 2.4286732660193047 1.365127994815694 -0.5304561202794348 0.6402301410814845
Ni 3.1910656719691746 9.131220825869656 12.853208034193166 -2.755681371683028 0.028592209815395918 0.2228501093941388
Ni 6.2595623725081815 2.248416456091597 5.400222452506537 0.6475043061453946 -2.188717900506179 0.18827802784622413
Ni 8.864711500992032 4.686773862289816 0.9711710751011741 -0.9711786833474629 -0.06501137187437836 -0.9184756965267924
Ni 2.68285309062685 3.5911833668277096 9.929558295380572 -0.6450990391380116 -0.04625800252627517 -2.1293053628758165
Ni 3.884686162023339 1.3549325885656407 0.8970432823706478 0.23958053477494223 0.8584805469200829 -1.5880189847500972
Ni 6.047896332842172 0.5851365252740671 7.643604160979166 -0.15558053761320303 1.4527948993060593 -1.7182265908161507
Ni 2.756871047857462 5.978448649379195 2.926142446175063 0.38030652387381597 -1.6310286555424038 -0.049735419551914344
Ni 8.480026624680825 4.177770093024378 4.383157823818149 -3.278440894649154 2.243217059995324 -1.7707390588925698
Ni 5.209451220485306 3.6328557001427813 12.804845043476515 0.8197044545931497 0.5414280459099062 0.3450991227347476
Ni 1.2429562272119865 1.6015225939672202 0.6292103466381197 -0.0904822624519732 1.651079660656008 -0.21107240003292035
Ni 1.0758014892910457 2.392598819962595 11.190344175142263 -0.8756771133040273 -2.5995750434733425 0.35671253860395985
Ni 7.488789162230838 2.445161622336999 13.719924618066196 0.0776758547159243 0.3391850712431578 -0.7390589757259401
Ni 4.691297595591385 8.619117461564255 1.4491826172042577 0.19451398145360696 -0.5787319245666871 0.11505532380564702
P 1.4068438244151278 9.148254636449638 11.28216479145226 -0.4216681175397383 0.14855139868056352 1.4713541503654854
P 7.174371081585361 2.5223536393532795 11.2253016500134 0.0708626884488328 -0.5779559656326111 1.063682089994523
P 3.1099828719898164 3.330063427920473 1.3841441774963283 -0.08140806806484689 0.014526218640633045 0.5953001133380135
P 4.18137232509785 1.8022609322010443 4.438237534597376 -0.934370513380178 1.5927120193503925 -0.5764307872373363
P 6.299624405697386 3.8355021974852916 4.058582751858532 1.259914339690817 -0.047086411964841486 -2.5333431689283015
P 2.493898798400817 7.16210301473049 0.9552011795754497 2.2954870730436334 1.1738402336088687 -0.367725858995328
P 6.069546957655854 0.6757833910298909 0.3149933208060463 -0.8816418155278946 0.21713069041185828 -0.10543708398959259
P 7.092618098894659 8.262766420993739 10.951704212153997 1.2739091113080125 0.3539313763143969 2.107749491081912
Ni 0.8279223129794508 7.257808829147635 5.586874853280969 0.6836028516401647 -0.18461729116518527 -1.0912006071297657
Ni 0.840135462084366 3.185936912608754 5.065673758669079 2.63545324542719 -3.123429085055227 0.4120557912609548
Ni 3.6719031511717564 5.700788228832271 8.600452873053335 -1.4757548505363423 -1.2747251794514045 -0.5735220982309736
Ni 2.1008552543842423 2.126517667372773 7.934325697922719 -0.4399409477069972 0.6130309549588733 -0.9692616688304082
Ni 7.02148565056011 9.154984387842712 5.497370090562393 1.7347592983638511 0.5323546228537284 -1.0676351611050001
Ni 6.593620529833309 6.2969622910384375 4.731643525623589 -1.504383055795996 -0.6357631064490664 1.9736502632709367
Ni 6.630415422304714 7.255314260166523 2.4851547756364267 0.9499192597480544 1.32567853057082 -0.40860177127408337
Ni 2.9586705087175798 3.6707861799861843 3.9134798175687577 -0.6019299599497053 -1.3200763538926943 0.0951927805537651
Ni 7.84078401517762 4.1949156007229185 9.934640514274928 0.9865862761517847 -1.4013188429139545 -1.8901971397516026
Ni 0.9707038088218762 6.191790145823564 13.547494052912068 1.4700331175612167 -1.6252832684181944 -0.3850136995414982
Ni 4.906975423432243 6.27703366346918 1.064597337490431 -1.7311217016112639 0.160289255942782 0.6683322986343393
Ni 2.015900287628232 6.99666096596076 10.273915857846001 0.09278417111227247 -0.021222913934518285 0.577267938426651
Ni 6.5777036904388995 6.078147635784764 11.535232298920839 -1.09123685968434 1.4423171397031869 0.18759822817038013
Ni 2.4703400144784484 1.2564064219049234 2.596608022151504 -0.3267972391017662 0.29848347975873757 1.7927528441594995
Ni 3.7759955575739106 8.12283785572113 8.316923699735549 1.0868544143459284 0.1671556440453121 -1.537847763212345
Ni 4.703156106344881 7.60129608489764 12.565455778984592 -0.22576059817271443 -0.4635632151116274 -1.9727305796701444
Ni 4.770518776928123 9.15207095466701 4.700295729300494 -1.2214362382202772 -2.706222088610636 1.0500585856738174
Ni 7.874712014939387 2.536380935825429 2.5199903144864724 0.004420754775514967 -0.42683860599708423 0.735303622448566
Ni 0.9534559120979924 0.049234228241398 7.004805547522227 -1.3287348008986406 1.530224185228816 0.7842240022983527
Ni 6.8898599044335915 4.851908743983514 2.1563286975063845 1.0529338503390835 0.02805382081342265 2.581529498825541
Ni 2.247978975710581 1.152723571604146 5.0935198503254036 -0.23031762141577752 -0.8548568341245665 0.5737678956931925
Ni 8.322766389845414 0.523785021287849 12.29104109054108 -0.16086775415407134 -0.0314168237483846 -0.7817182051573633
Ni 8.895558521900261 5.472944723161884 6.740335625867593 1.2753121623031263 0.332261347540131 -3.02917090050059
Ni 9.380230935506642 8.320606912219974 9.525149569550797 -1.2692824111692784 -0.7050651352789986 0.600215805472076
P 0.4974393942574763 2.9464582904219863 9.16448608939465 -0.3934865128991998 -2.054759312038126 0.3057208780474412
P 2.5820092087560695 8.262570951036263 6.456916288049721 2.073368699609197 0.6124871666402614 -1.8797142379424079
P 8.174777015850257 0.907895588247807 7.228909992148908 0.1959121473527142 0.255825792989211 -0.06618199514371181
P 8.515080903721378 7.128947586705409 0.9249154366879697 -0.5142283455666627 0.32516535992529805 1.5230865457427707
P 7.425438279822445 0.2595301165864384 3.438270942332141 5.175351956085822 -1.864188374392667 1.472646643924664
P 4.302610239198543 7.021141251111226 10.176017987477168 1.3794492965343725 -1.7746317090787564 0.8095115732205477
P 3.850190368575571 2.026781448594352 9.209102572593027 0.9088145192879444 -2.8210850938998187 -1.565684840029271
P 6.3994350892215115 5.153174488918872 0.24722854059599875 0.8205709163585029 -0.6677388880247145 -3.3430146647654815
