# total energy = -340869.06238206144 ev
CRYSTAL
PRIMVEC
9.26262925769396 0.00000000000000 0.00000000000000

0.00000000000000 9.26262925769396 0.00000000000000

0.00000000000000 0.00000000000000 13.55679419954934

PRIMCOORD
 96 1
Ni 3.1639936362535965 7.114125117027376 5.4599177698439405 0.7833698818281735 3.411758507099098 1.3952428119232034
Ni 4.507871420564737 1.982656464814077 5.648044542673121 0.23235033557509016 0.07198188965494054 0.28995024547674586
Ni 8.883287247098007 4.726839969019553 3.122414621145356 2.5959037652693424 0.1853721670533388 -1.5317843306270844
Ni 1.4949975756834035 1.4054001658186224 6.459378590471932 0.3278007406656161 -0.35383573127679707 -0.19481402919252902
Ni 0.86979790922593 1.2098845938734346 11.007980569332792 -0.39620545449225963 -0.6842749380065247 -0.36003800343276704
Ni 3.6439182302083073 1.654537096774171 -0.01959694407638972 0.3802059937402097 -0.4670228915254538 1.995907274896924
Ni 8.753582653865656 2.9561958183164005 5.460581900339888 -1.339764319239925 -2.8256475164595205 0.30001148636748975
Ni 5.792385015914501 1.8414569490507438 9.686031132805574 -0.13487441541410322 0.2269664455553575 1.480536845306018
Ni 0.8087507005837493 7.812323562265407 5.5970306137131 0.6217536795438517 1.507205869956772 0.49866571524171543
Ni 1.9040537955168029 7.251313914453952 7.81489486806283 1.3113793403393286 -0.14343618894118523 -0.04642152468733296
Ni 8.069685707731441 0.718015839883509 9.655934998810677 -0.1684306541029938 -0.056351382206535204 0.25423890811806543
Ni 5.180977403968416 6.14154907693619 7.871671078494667 0.3441416439174847 0.14238717885138058 -1.8036075274858163
Ni 7.472107200812558 0.5277429159258602 2.006418813130743 -0.46882060685582483 -0.07010498434720185 -0.41578826172019356
Ni 4.164681755217894 1.0874604269983372 7.976478651363579 -1.6400172321942594 1.0020823149048548 1.2823526140896753
Ni 7.3240626022527735 4.728924060534034 11.950300231948187 -2.1974786774179447 0.8701834371793078 0.9373069703006824
Ni 1.1790678273459736 7.783174068949532 10.741657756617386 -0.4401222104798678 0.43503014066894113 0.12033534125766372
Ni 7.143737741790914 2.780956141149875 0.4994594784171132 -0.10359283169200223 -0.06961261809181558 0.8940746419746086
Ni 1.5329095159890533 3.635655965182009 4.902678938279352 2.7042485098240334 0.8300055794088415 0.009515395689602966
Ni 7.890907706304775 7.803987196207483 10.674809363461785 -0.1811049071365526 0.33655611826074294 -0.42071809492164314
Ni 3.6788383413620576 5.422769070164039 3.9406076456840475 3.957721464764881 -2.9952655060023963 -0.22166354528520532
Ni 5.64950896431063 3.6255782248808734 8.044994317730765 -0.3981443233861853 -0.6808273457775564 -1.461861894604334
Ni 7.900262961547557 5.611726700810325 9.703573625780134 0.5578324554098587 1.3114526167794252 0.8418251977515888
Ni 0.8195926077735277 1.9304059748887974 3.400111942215353 0.5620382659610902 -0.1737752062443588 0.4169815106973464
Ni 5.532281132278306 6.6628498344250655 5.13821462487995 1.1356655223113603 0.7875895763364759 0.6955425405005441
P 9.363221103681672 2.6605141768707736 1.5228076928526397 -0.1289919884913972 -0.1936133240162085 -1.4221072404142152
P 3.2886964098511933 7.438780261838767 3.2661030053084277 0.9440016087120389 1.4118608800958588 -0.718614334718343
P 6.953974262425693 8.28874688247579 3.543176951449871 -1.821442241674392 -0.6149022038396571 -0.21013549004094778
P 5.354188565394179 9.120429073559098 10.238334835663872 0.19149782033510246 0.10524090881838649 0.6560401115305475
P 9.068447199873463 4.9719939695252044 5.222456382683963 0.6469330070229569 2.20094503869999 0.7107177055790856
P 0.8781703995367721 5.77131253504586 1.6507699855788844 1.0260791920400845 0.23094651324902807 0.33469232557912676
P 6.816257495148782 3.2447637607259314 6.115497006742281 -2.249896271787712 -0.8354162089014515 0.8134895840316894
P 3.085177926490398 5.377993521804031 6.51633079085388 -0.9717337845199844 -1.4581703046853598 1.0459563905799856
Ni 6.646278991227702 8.191924622027473 8.626770779655406 -1.2752589404676877 0.6942737010904495 0.8217142859343267
Ni 3.1890212596852767 6.769860986721955 12.253145590626259 -0.23373847417186844 -1.3370435778746521 -1.092026959685803
Ni 1.8159291436555882 2.260655747587951 9.138499536383993 0.7484509584638014 0.22286065091710003 -0.14225990924489695
Ni 3.8567363930381653 9.122911458118569 11.879764386206299 -0.29314072738958546 0.4899720441224593 -1.185661651723829
Ni 4.69510620222572 4.034421404248348 1.900662747057018 -0.20376763884139099 0.6544442277983374 -2.049564655211064
Ni 2.2774303686222854 4.008902861482146 2.3437118888859474 -0.6547676725760271 -0.29879072658651123 -0.2878098020949753
Ni 2.0641212864579055 4.21107826364472 10.574298724164285 0.556541761622893 0.7482455273212145 -0.5336553439430228
Ni 7.572245482426137 3.405099867906679 9.306413400311392 -1.8179941352247917 -1.086134505460768 1.2144052995154246
Ni 7.630859398442299 5.175530978143906 7.477656441818449 -0.08693208320686964 0.020439755911590606 -1.4290479333981065
Ni 7.623236254813775 6.707338241287522 1.818507859556173 1.6838285729522549 1.9033984689332253 -0.4500628666323474
Ni 8.938770394527971 7.517392193764994 8.501750297884712 0.35657498458483106 -0.13322813805993183 -0.09835035234614029
Ni 9.030146229151777 3.7393047831688695 11.206763996772686 2.719986746494896 -1.4569477451321682 -0.20503699247211785
Ni 5.275317279857261 3.349866811458452 12.505559639705467 -0.694492759079791 1.080235880588146 0.02801422582473885
Ni 1.6514433787037857 0.012173873233255665 12.957895493322923 0.924195372619389 -0.10641307474961673 -0.37277087761840316
Ni 6.907577753998868 0.8235292250786587 4.825486967371658 -0.04205733418136628 0.6062689536446914 0.4830305798076197
Ni 5.15955294319955 8.458299305465019 1.782366007643489 -0.4870219603552 -0.08287951040405081 -0.30897666598057755
Ni 7.755691848845241 2.584995963014931 3.121573574436401 -0.20199126366725859 0.5685063901839371 -0.37820336148788414
Ni 8.535225438921755 4.788390138413895 0.5292277153470661 -0.2112750029620297 -0.39347211472149657 0.331213623001907
Ni 7.016923088791977 4.80912916464022 4.37320483700213 -2.2261392785774303 -1.0768913895959453 1.8831500030968342
Ni 5.0002357252036616 4.521033616307304 5.997078000626569 0.09518815256807477 -0.30107515174531374 -1.0606258196667024
Ni 5.862512379719552 1.0752615446669078 12.70432917320193 0.5615142751368201 -1.0804274277736619 -0.21236052271672456
Ni 1.2984445892954517 2.351142369832244 13.007038371234387 0.6005209954173206 2.1198835553412847 1.3385417596867335
Ni 5.1151664252555795 8.747311854064307 6.290338390863816 0.18781137262245073 -0.36270655140386565 0.4874675325330507
Ni 3.5208827298222953 6.009037907131004 1.2529734175010552 -0.8798680114569235 1.1128433822105221 -0.14893217905874995
P 3.2202918950314467 2.5545404390166473 3.9840299239539854 -0.25719002032658933 -0.2954189819008009 -0.33300362502279424
P 0.24749929815661414 3.943480913185345 9.002930772761339 1.7545891886055844 0.8676357310567896 0.31966294204983015
P 7.518726012334262 2.239518428316636 11.902567126163408 -0.13931676745617297 0.7372211511862529 -1.5200091923690275
P -0.1610261730377639 0.6730633753104945 5.088271455826924 1.1257184384009775 -0.5366452798092822 -0.700987108554883
P 3.302423625959909 3.8022536095351525 13.600853472009566 -0.3787144967963478 0.33320159996621324 0.04564273753977946
P 3.0425513080475444 9.04463298083466 6.861039527349056 -1.0873184984665403 -1.3610353128035593 -1.3595469011834909
P 6.882290776956497 4.672440549177119 2.233549590219162 -0.3510550832078664 -1.7707812249844146 -1.2102372841806641
P 3.3617878149212843 8.212830375574958 0.26760290803674663 0.16850213077087756 0.13659885430437765 1.1445026609870161
Ni 8.220666559669407 6.888515263613081 4.766676683621688 -1.7478778380236801 -0.6217274542916067 1.0434104842296805
Ni 2.1271905270005806 9.275411381204867 3.947223015282458 -0.06121205273294619 -1.1691934788654768 1.4272363341106646
Ni 8.346425272967673 -0.02087796566062411 7.026675710816853 -0.04390004381705988 -0.24622426534370495 -0.7494971403401286
Ni 6.188519868358117 1.2693506717532954 7.411404561967438 3.8858776433497013 1.0427461111728042 -0.9799011508221254
Ni 3.2704305055553857 1.037794210551014 2.2230976397083153 1.9364312310184781 1.5845276837673872 0.5993403448456581
Ni 1.3522141503690643 4.82124468331107 12.913537689528708 1.1581840151288505 -0.05029900536486821 -0.013832020787085854
Ni 0.9357200394862059 7.111781671902203 13.487559478493688 0.2454218240470677 -0.5702128313520824 -0.01565750403159884
Ni 5.979981040104661 5.761781289852966 0.39164247740129043 -0.07564031234313424 -1.3642664181463473 0.763902002911549
Ni 5.404827357881595 7.7739299652541884 12.921861087906098 0.32420351023266103 -0.3219697358061358 -0.4910434228097672
Ni 5.42334335315914 4.885990459694284 9.876191978952889 0.06284213213720144 -0.7832503255311736 1.7254174521376349
Ni 1.755823944377953 6.081138210903098 4.048885925621742 -6.071852176782788 0.37227928269396526 -1.1491242189194275
Ni 1.2818830087270416 0.28488697366350996 1.757109597276664 -1.8347510429681562 -0.4134899526043202 -1.687012369996875
Ni 3.196394312332063 2.135600994090131 11.516726759538434 -0.15678047145857513 0.7726368116813855 -3.3744086056957308
Ni 4.767827102137681 7.106687225977916 9.86174042526003 -1.0355511360862617 0.5540457346739168 1.8343064992315699
Ni 7.676579734955538 7.09814708208302 12.767829125990932 0.6943078967624945 -0.06196178641477715 1.9552396219742325
Ni 5.393915980974667 2.709124453617426 3.436091698121355 0.3975550265416185 -1.8025739440149797 1.434481445708852
Ni 9.111018242542597 8.17840118375573 3.1364317575403082 1.1332350584929967 1.1003671041203822 -0.5763523685909171
Ni 3.077045338269445 3.293512976906883 7.3532861966002745 -0.13176569458179244 0.6918923453424665 -1.3115094381592898
Ni 0.8646886430953177 4.641623782649658 7.0471600147469635 0.9079161758433912 0.2975599395032037 0.7341036886031937
Ni 2.899323276543449 9.143743110634427 9.642066064478977 0.004780452107778864 -0.6925708594667298 -0.09799631144083122
Ni 8.953368297758292 2.1150842709586835 7.959328893856638 0.21051087110249553 0.21236026560640844 -1.3885083214128473
Ni 8.795727615602942 0.937618878421622 13.124494990201857 -1.4215773360526744 1.221802106200128 -0.7270660650301219
Ni 4.635751275893298 0.15256290896317995 4.026028536153809 0.32526871827238174 -0.8862502608341832 0.11267705338145755
Ni 5.657326623147172 6.2613241319306585 2.8405417069432333 -1.549156760467261 0.7984987670498118 0.558721028662399
P 3.9171379964423045 2.9485541494299694 9.28437019592845 -0.08439286172478368 0.5567626193844476 1.5212613196085736
P 2.6664329967719 6.5299496342038434 9.816650873778508 0.2152033914821584 -0.6484844106704767 -0.040993925913858434
P 5.432550406338669 1.5557233711009066 1.3963635450118324 0.2101542590940252 -0.4318543140441208 0.3730061335576608
P 5.311135866019476 5.534893193643122 11.979393223227449 -1.0256179361329498 0.9873419233708867 -1.253351598871635
P 7.124332534133857 7.286789783344897 6.848187629676423 -0.14836627925295096 -0.8664658791184046 -1.3992457624350094
P 9.278190169890841 6.1053970361316585 11.525090913483217 -0.49169288346830814 -0.45681252665135524 0.33852018396564926
P 0.9448900421499228 0.31326766877626605 8.676836215410614 -1.6160542936207587 -0.7774833411404094 0.4801846257183923
P 8.700405901045052 8.527861648903922 0.6777558231382106 0.14061131789788042 -2.0891781558376277 1.1696467643528115
