# total energy = -340891.090459486 ev
CRYSTAL
PRIMVEC
9.05647295945171 0.00000000000000 0.00000000000000

0.00000000000000 9.05647295945171 0.00000000000000

0.00000000000000 0.00000000000000 13.25506361847236

PRIMCOORD
 96 1
Ni 6.321807690377507 1.7824225945372676 11.591380896441825 1.2156931650889127 0.12834407049475316 -0.48737574415019286
Ni 4.455884413353228 0.21131468812032836 5.852468648193791 0.9378111636306108 -0.3614724218864484 2.104469534779059
Ni 2.7252648452612647 1.302393291441657 4.835049963629496 -1.4670236413109317 1.2593672089380956 -1.0654499805282232
Ni 3.3494641445077136 4.3354423768678965 5.007895470730294 0.5300753399012484 -0.6490582808960756 0.02229866349720031
Ni 5.2623814607321115 4.499690574002868 2.735102892049295 0.2242665301256912 -0.39241230599841453 -0.8044362155801693
Ni 7.188548397181942 6.367298355033934 2.4584303541129136 0.05061936481876443 -1.2614474885058922 0.6981884627638233
Ni 5.222596374163192 4.725912216935953 11.565665946566162 -0.10865610514752255 -0.7740797147754991 -0.7816367011871506
Ni 5.674804191727339 8.097936036072207 12.326586292793646 -0.21995556145516312 -0.3847751011681309 0.2045806216609896
Ni 1.9242197947215551 6.593610562698567 0.33362960325406726 -1.5787406447719647 -1.4073421662898986 -1.2560234892768432
Ni 2.645993535737533 1.74355221175698 0.1079911971921493 -0.34187264537764994 -1.032194560909203 2.2565621138436622
Ni 0.34242887257124516 0.09234161158070082 4.556454736442356 0.7023798751373517 0.20023417176683578 0.2565647280377646
Ni 8.58886027637301 2.446588109815732 1.1904136234721454 0.378908872195341 0.24501250442379094 0.6381735156627718
Ni 6.914988569068857 0.6112277127468669 4.8736350675054085 -0.2788623630937004 0.3253119128054914 -0.7048383639801733
Ni 0.4179508022089008 7.385843664858682 2.2012554972314433 0.23208576905979386 0.643754352184659 0.8574834731141362
Ni 7.610806458023254 3.87722106112898 3.9120595020607625 0.3459460441160752 0.13870587334505144 -1.1951477368373933
Ni 7.624843991413153 4.046214850197052 12.435225027816362 0.18498932979262336 -0.32458557616242806 0.45547195346306074
Ni 7.792343462410687 8.992145025955072 7.035642527026011 1.0372616910194652 -0.513524891741735 -0.7288061876496803
Ni 6.860115398224084 0.7829991221315081 0.44250833481538443 -0.07610285380184957 -0.31637990042318415 0.36908957211207405
Ni 1.8788468642161402 6.368140607037327 9.408483775942422 0.8201723953685036 0.4993637697500045 -1.179683065542891
Ni 0.06673262244094799 5.039709955275697 1.4411964216009765 -1.2384541129345124 -1.098684831321953 -1.8807388225521802
Ni 6.465389015773285 2.1167785269383477 6.919222470268713 -0.7516352697290539 -0.9158161474167582 0.9329970300714189
Ni 3.6545495556725665 4.544900487991496 0.8243600350293583 -0.6509971497900015 -1.0413510305974905 -0.5642185614418606
Ni 5.928195254124744 5.69290808156373 4.678719840973744 0.24574115505969937 -0.1666221401393453 1.1240886161070383
Ni 5.278112554601953 2.438029742684471 9.654179553100217 -0.006460925133995324 1.0547413358614675 -1.4265282523000464
P 0.17973838881889534 5.715395304407033 12.254360013737013 0.3171170356995248 -0.41688740832164334 2.3817018184685046
P 3.9317953683596447 6.175808286649405 12.5989914205795 1.3503323245637582 0.7738485726012995 0.6721542434835909
P 2.224595839845925 8.408437218183614 1.2836101661186567 0.8116090791795249 1.0562400318941807 1.232251583668226
P 6.213800191533679 7.669972397143389 5.87708323658115 0.6667451566528775 -0.023809443714771897 -0.36928806127612535
P 4.75083563105789 1.0735724407131515 12.912752027379309 -0.3137704878247951 0.16662522546313882 -0.5762448964787753
P 4.018891470689101 6.191023161549424 8.378565347129909 -0.09093066284330147 -0.6543496112020021 -0.5271111150666019
P 4.669191525567607 1.057968137467477 3.9222398835340435 0.6530632882904108 -0.210851799381682 -1.629334812779749
P 0.05954721663995076 5.564677478165295 3.629408786194915 0.11584413825552953 0.4052320834709021 0.37035686886027186
Ni 1.396046280335169 1.108883629543613 2.4395150042818536 0.18050249766586335 0.40550590595757907 -0.03865576469898504
Ni 1.6935876493620952 6.120509461566358 4.99806014088421 0.8251202262920823 0.673576320642098 -1.304378226431147
Ni 6.062819727570451 5.518525690968569 9.131413658834544 -0.24181610897368028 0.098481735717682 0.815536439258389
Ni 8.563801015153752 2.266454858767288 10.162564673643423 1.1417484952806465 1.3707772226816715 0.8428603238843226
Ni 2.3635855333522335 5.025110920550203 7.175761562734718 0.6102616197438522 1.1269978193340333 0.2374038388385976
Ni 0.7488236150346551 8.686516226400931 8.887374310616758 0.1544399962508566 1.965839766087582 0.784128614371069
Ni 1.5500244369126266 1.290157996209558 11.231519218694956 -1.0556535632630915 -0.3465800781556483 1.469650023190185
Ni 4.0183299693535055 6.828680379903866 1.4774494836395342 0.3204119044007127 0.5764390147674524 1.2076535826138879
Ni 5.9625464568008 7.752476867583375 8.05750160037809 -1.4958230820411271 0.481487403690216 -0.2535418820510408
Ni 5.363026046901109 2.847373272807075 4.916780105614749 -0.415747124069613 0.7379320612103485 -0.19864625845442563
Ni 0.7537050540650779 7.391522073526724 6.996473280631615 -0.35193722870250355 -0.35162381122714287 -0.6333454981465093
Ni 5.178020413295397 4.780078982874653 7.019683210032669 -0.01956686638833404 -0.0678436991168509 -0.5473642088886831
Ni 8.10000996842465 7.184174120648187 8.985223163522877 -0.06804990159038603 -0.5757016223807957 0.5146271236669783
Ni 4.462531864648832 0.278080819511949 10.386867249915012 1.3964897969564272 0.13774093832862083 0.7395778243438875
Ni 8.037185214149988 7.2685170551385925 4.634261614256961 0.10802284243889784 -0.2657080850999295 0.09701594980543292
Ni 7.476924615376238 6.013996280793068 6.799091976459906 -1.1923532048113916 0.9747077795466439 1.1023126578825273
Ni 1.9813208579624015 5.473786713583988 2.481519832421008 2.0277652999477853 -0.5090583713299491 1.7110591265334336
Ni 2.4341626286473828 5.289523710776968 11.522520908456821 -1.5698286869943159 -1.6997107914001501 -0.6169590863686858
Ni 1.1519924417603347 3.1517885049584744 3.96175327590832 0.1612197381768514 0.6982231726565007 -0.3244053418308219
Ni 3.7367189366058255 2.6028666105745017 2.5889395661570913 -0.09662128547017552 -0.15036119819579266 0.6405276177172452
Ni 1.42777110579634 3.1692222157814127 8.309056010019708 -1.8364803669544372 0.12056751187312785 -0.03806878184726347
Ni 3.808717898186274 2.9365614204352832 7.305886780317134 0.20636933813029623 -1.557180659213002 -0.5547376185346188
Ni 4.048143878979019 6.888806305178408 6.030125859481719 -0.13964355466797243 -0.9087273588907769 0.22114649643947074
Ni 0.8280822454959702 7.494394552091796 11.297820753013736 0.10252376699753957 0.3344251879606692 0.38154193894281385
P 0.31533643312874043 5.536348830137163 8.144083295032354 -0.08895554139480165 -0.26928320404569756 -0.24081312163046267
P 8.782849931348256 1.697871361164303 7.92207472341087 0.467715289606788 -0.5589426577549019 -0.2890724708574828
P 1.8353214542342993 3.324613182171015 10.463945081640658 0.729797347918356 -0.06844739413912083 0.45067993139105617
P 3.927919197849402 5.900699801626852 3.6510274932626747 -0.500222518205874 1.226226974740701 0.07385185298414378
P 6.9333369836804275 3.852967826020497 10.33743883073089 -0.7261895759624397 0.15378590760662547 0.3887505408761111
P 6.458814016262919 8.06648290480568 10.195132656755305 -1.2737209065566064 -0.8484437315093711 0.08813613081729982
P 2.2446287584642843 8.099113377582327 5.613174891909106 0.03624175594085371 1.9737307387998848 0.3323919595807243
P 7.13610236114265 4.130784196516327 1.6193843422157745 -1.2156463710113776 0.18498135937282337 -0.7940175913500067
Ni 5.552460295879504 3.0673006668975926 0.33615545361693366 -0.08302349218108282 0.40262061398998394 0.3507110696048863
Ni 2.142942677882488 0.8046739793328274 7.129846149487332 -1.391291026364307 0.48450536458093335 -1.8434927937165282
Ni 7.186918232014084 0.84273833600234 9.123712034063727 -1.9220006574154447 -1.0526520574326066 0.2954156394666912
Ni 2.758755682987617 1.4807152478591457 9.215543766205814 0.836280613784276 0.8839113282883616 0.7241476058317464
Ni 6.147280396211869 2.180354968484857 2.613540569834718 1.4375325738303502 -0.832125968185954 0.003250388616497628
Ni 4.056068292989446 6.914898004337309 10.514791744520817 0.7306463261822127 0.2218779752888566 -0.216194294640518
Ni 8.003295891604825 7.224230901411751 0.14624211720865035 0.23332786899701105 0.15694425072994905 0.6858350834047929
Ni 7.650845125840507 3.7406403894818423 8.284772888549814 1.1346306532889427 0.41401548609048705 -0.4681240950094324
Ni 3.251554613231458 8.396636633662945 12.563904832283276 -0.2883355926914583 0.5016571937698715 -0.45749618298194117
Ni 9.050070228253002 4.988993705608967 10.309006938908794 -0.1626580132852747 -1.5287067201430253 -1.1748972141184733
Ni 8.550931766800819 2.366954541365809 5.659024192902461 0.6434249938696983 -0.6694872381743889 0.7892062860042924
Ni 3.859479430218779 2.7289961122010316 11.745113622596788 -0.1332286522805641 0.6261399815370056 -1.613703791110711
Ni 0.940333607660125 3.3042723434653944 12.53294165621442 0.37447320502149056 1.1917991320801347 0.11627736913820619
Ni 3.4684390323419723 8.371975857262496 8.321714242548135 -0.00991957310655711 -1.8618923792696387 -0.23856623457781495
Ni 5.398835341755083 7.957551645700064 3.871856912079408 -0.6640881786460047 -0.2005535027794675 -1.2897051978000047
Ni 2.8109843636711953 8.319593216535287 3.406286268375393 0.18170680238660963 -0.8022281521852571 0.6126514601322675
Ni 3.578529520011398 4.168893835551613 9.389052207141539 0.0631277816984203 0.9031784040480897 0.32852733441899545
Ni 7.147377670220344 6.2280460238061375 11.380638577424879 0.07731178650828621 0.5655329093779099 -1.1396124227742501
Ni 0.4974947115745913 0.03294563804243477 0.28827750263690843 -0.5770797336752448 0.374846014979877 -0.6907577175173909
Ni 4.456500253527753 0.23294064036661183 1.7088822212258763 -0.35855807645313087 0.6187038369739344 0.08985337061872267
Ni 6.058635636972946 5.760369750093638 0.31634894682744413 -0.6483597121671543 -0.22899427461866367 0.6198402645712228
Ni 7.932320311490866 8.753679031316732 11.48181477856806 0.7174863917614869 1.2087511865534408 0.25575663031417245
Ni 0.17824678769030414 4.78521400315341 6.084100628189538 0.14477599079853132 -1.9127927656639314 -0.6134428456853112
Ni 7.562906771507658 8.863651784835145 2.513822460869454 0.46183003447060456 0.42601559587515664 0.6955589955607763
P 8.472720064636196 1.7818701496748266 3.340766307689869 -0.6270871759416233 -0.8821804616401839 1.0209747809339835
P 1.9534269206456993 3.217185297609093 1.6690246828717186 -1.2905868290740095 0.869711896859528 -0.9172006864691107
P 4.770071580038628 1.002805159481752 8.04562494148292 0.4556100217028218 0.7299642125135235 0.06149847362511345
P 8.563801015153752 1.6455521157491768 12.37688956728452 -0.6279227844690412 -0.1896921345849314 -0.27546824981048684
P 6.00269380229591 7.783268876309605 1.3756764609154526 1.2555902583941667 0.21823729321247576 -0.2349417504513502
P 1.900881263401704 2.955534731694534 6.160781786391004 -0.016914259256835387 0.32113618416124695 -1.1167496592434636
P 7.036055502201868 4.023148013071844 5.992773341602171 -0.6292330186400323 0.3819288899685874 0.31760143153511106
P 2.382459223406781 8.639984067331707 10.330930849121868 0.8049581495219105 -1.3551240895254468 -0.3411689344424059
