# total energy = -340873.0113764569 ev
CRYSTAL
PRIMVEC
9.26539433067275 0.00000000000000 0.00000000000000

0.00000000000000 9.26539433067275 0.00000000000000

0.00000000000000 0.00000000000000 13.56084116334959

PRIMCOORD
 96 1
Ni 8.720237155671366 1.5288178776844394 4.5360063399821104 -0.7833362003767605 -0.21008432508803818 -0.4584806583823975
Ni 0.19240054810552673 2.219034170601687 6.746762807197052 0.5682798759954277 0.2874315928199501 -1.5024896954280251
Ni 1.859814828421086 5.332707031503408 4.137778760697704 -0.9977032120005529 -0.1627631714045713 1.1936888929036795
Ni 1.5945187896112551 0.2997531141679801 4.61998880166535 0.5807129595524579 -1.4728582457148376 1.0664982192870793
Ni 2.558527488033707 7.09733846291079 12.022879589119947 -0.773045874194346 0.1314587048643349 0.8406651160052167
Ni 2.577623465960821 6.741686297587025 9.648931729750585 1.1205983435655926 0.41019431257218386 -0.37847769819519334
Ni 2.2682334150427237 3.2891779622580515 5.76137791727744 0.33151624184399037 1.2427699667010468 1.2194256355481514
Ni 5.604998443110411 7.479647168019274 9.24766695417093 -0.21884741599264892 0.4356245797198304 -0.3829843278162952
Ni 6.324400728492681 4.416841322556592 12.941233056472115 -0.0035280677579165045 0.2728338975114334 -0.8722305495163236
Ni 8.726991628213272 0.6253066456750395 0.11266256361220063 -0.4671236787693761 -1.359717365323084 0.3695140612440023
Ni 2.474518156706611 2.8720684356579405 12.545392242793737 0.6564478884919276 -0.3021799547737183 0.4709996167850147
Ni 3.3989450901098333 7.306078534099512 4.326992939657605 -0.12355359108464527 0.018012891637652847 -0.754376579919617
Ni 7.219465626936648 5.972223086081417 8.269265392035727 0.5759767304190532 -0.527335315262266 0.33543717416495133
Ni 5.5213875237439485 5.852365943691728 3.6987871520643734 -1.350595348417158 1.0163426814786107 -0.3511715541810726
Ni 2.6807936329760644 0.7004341698983354 1.4468061653971718 -1.196684485196894 1.3044610159529406 0.05817737967168045
Ni 4.710480202938011 5.7631494606930955 11.063205242213412 -0.7214924275970864 -0.15078080223171453 -0.5773813240760637
Ni 4.949258682879623 2.38392112993741 13.444665483389327 -0.8057863018501608 -0.768569069369915 -2.0426962102260044
Ni 3.510129823309916 4.964435398961433 2.439514423076895 0.4969903844218214 -0.7788627379864393 -0.4969322774903764
Ni 0.4759197646868514 7.838727529283376 10.46239259326235 0.7671264233861176 -0.39279128660438806 -0.06547468466404208
Ni 8.02309034771798 8.738619698227113 2.2967865810679484 0.1938241544754339 2.3126844107585267 0.324867369068905
Ni 6.98230859102087 4.025128242098266 3.7797592870962204 2.5255774089399536 0.16485527804690964 0.7680234812790901
Ni 8.634708299657202 7.763928000023021 4.521658876702084 0.06993863397266664 1.0197869312734695 0.3654370629611513
Ni 2.990656219010262 1.418541153138824 7.587792851845221 -0.5218694070516884 0.1558535887689316 -1.4680551678992395
Ni 2.768944595614864 5.258046483159553 7.588565585740963 -0.006137737466621687 -1.0843596729485323 -0.9230628016768425
P 7.441093861782146 4.4542179237006865 1.6787643884964012 -0.5982802790122599 -0.2688769697462144 -1.7593485576674408
P 4.892702715258514 8.151860799552543 2.380700478832381 0.08089461876353811 -1.9389804798028927 -1.3650961131364943
P 7.2752803630030884 6.167407885214163 4.795452208746731 0.5147559359353587 0.30339582945869037 0.8579506425585417
P 1.5831594160359799 7.41566961945706 5.57677419858757 -0.7582843996144554 0.4654540043764371 -1.6313770400207581
P 3.539010057758638 2.805255676399124 1.583783903620787 -2.102168911670341 0.058404922301454255 -0.7252331255864413
P 8.662671260057023 7.863632909520194 12.447930485288873 -0.8317364460570191 0.9992543585377565 -1.3710932112601935
P 1.7784368691130588 3.0574226512969123 8.097964926673246 -0.774081514547712 1.168324703107278 0.183299086574394
P 2.381095184635241 4.902329460074754 11.194406933547283 1.074978745954265 -0.7111406520491171 1.2424310953043893
Ni 4.416090825607491 8.32874644467944 11.163352111025057 0.46179918123266916 1.0822200008977105 0.8631445280546555
Ni 6.255614440219562 1.4723360332187974 3.7889802076362806 -0.21138401773606819 1.5929711865490501 -2.782168619340279
Ni 0.4876692113677701 5.83303833090378 11.592160124636704 -0.5519479716046236 -0.4967412445254929 0.6721192764805973
Ni 2.429145520166544 0.00040397119729363443 9.882883865731868 -0.24805694767706954 -1.1444031592946742 -1.2898442944810302
Ni 8.505520905073139 8.991351862185335 6.629461060592077 1.045451168808793 1.3885725989918796 -0.373522411072447
Ni 7.963606515455936 8.399432138811394 8.915764774398145 0.04215580743244352 -0.39280671322335575 -0.15938448474032552
Ni 8.032670765562054 5.829554542596846 13.359150525466815 0.502477889898954 -1.0163660785173785 0.10129786501023845
Ni 0.4086279845358312 7.306217515016012 0.5476218725881414 1.236935619407457 0.01204844652410183 1.093416640944478
Ni 5.350922796959354 3.3736598287012476 11.115713159006596 -0.941503010659901 0.08507446117284059 0.419903826550464
Ni 1.2733987493405492 4.61189640616727 0.11389764069016489 -0.06842759664477892 1.6021356266571376 -0.22046335432951708
Ni 0.5828285183559477 0.8815689249123637 8.39521823742311 -0.07669240775673243 -1.049273884988993 2.0303518297280387
Ni 4.006884680459019 0.4667535099739479 3.378791930677875 -0.6759448208742745 0.9783780293093794 0.7493685851820642
Ni 4.980223631075845 3.3718345459978796 4.2213952393008265 -3.3584785647290354 0.17987669115640634 1.9440419534862001
Ni 2.64741041683274 7.611132380422807 1.3372261985129434 2.6501419577876164 -0.4773615544473004 -1.039892186663777
Ni 9.004119575714478 0.6469302232035689 10.680450871632683 -0.06783392892483801 0.6195810973725652 1.1455994935956206
Ni 4.387886964952403 8.951427277572073 5.786058148429529 0.0826069734689545 1.5422579764648987 0.7293132091930858
Ni 0.8888635699497325 2.533149572680788 1.007822895618831 0.4040313782945816 -1.206422024199632 0.6685318162396551
Ni 1.2210770669754767 4.868872120775962 9.353509260940747 0.3835386576578685 -1.243060501358272 -0.07073876127645881
Ni 6.1582722063028905 8.480708178780654 4.094302750398142 0.2701290969857606 -2.2982831477315324 0.21952027368995744
Ni 6.600657728917153 7.136938758718887 11.718099071932436 0.42446727755143027 0.2604895170134675 -0.34554006692690814
Ni 4.213401056983741 7.0020068195861525 7.205783418976934 0.9669595030597928 -0.10926957036180536 0.033738787013341896
Ni 4.682721081215724 1.523332764179902 9.698903708087363 0.35675470469580495 -1.5964588879873345 -0.024708301379957446
Ni 0.9766652272183947 7.652242935523537 2.8837261549339694 0.038780977422939664 0.66081567854232 1.0017275026685974
Ni 9.136225569545044 6.213910899875097 6.27115713938149 0.01859267540052282 0.41024444908382895 0.40987343889765543
P 6.77054800124688 0.7564823939044971 5.526313933964156 1.256702774732055 -0.9450269646527596 3.8450017310709454
P 4.677977199265853 5.332614377559074 8.827171852444875 -0.2549336201922448 1.5387767027845176 -1.176601855514406
P 0.7100368246890492 0.7423674920247466 2.6370683835662456 -0.9344561311154487 -0.32101302831982137 -0.7778458666861507
P 0.18852576015350384 2.394372494858218 12.414543562987777 1.104661103510046 -0.31775441217320766 -1.1837299819187548
P 1.5089436066249247 5.723715941984799 1.9904327999056568 -0.7065124092484865 -0.04231778693160454 -0.2953390205924849
P 6.51615733168509 0.06674697495833974 10.340046765927866 -0.017035615326048078 -0.11209701250827145 -1.3685290500774432
P 7.952691880813461 2.3932513821317833 8.571522942319039 0.6537870538303127 -0.07940209337841163 0.06860217454943024
P 4.186976152059854 9.076954841354965 8.057662313967102 0.8971231989929453 -1.6735493025134338 0.8710964359118805
Ni 4.900643158287886 2.843438366858919 6.844645213609188 -0.9319423635546595 -0.3729680812308738 -0.143753720181604
Ni 8.03213337268492 6.482357172792264 2.4894039394032155 -0.3773379281637953 -1.43155475898036 0.32487482526807276
Ni 9.192373859811084 4.2522137942650025 2.82263477673774 1.9250592417361103 0.008490296859198282 0.13868504740944504
Ni 1.6012084043921266 2.2197754021563547 10.456520186270499 -0.8331785778201845 0.6628399080612004 -0.9731044396152659
Ni 6.809536781022375 7.629607576922886 0.5906531439549035 -1.1741284542732489 1.5914339239689175 -0.055963402739497174
Ni 4.053702718530688 4.685667476645525 13.165407421707897 -1.9541337905045637 -0.534403277852641 0.41739442986504893
Ni 8.780554873432411 3.8820520212586267 10.504810495517626 -0.4908626742575288 -0.40281884604371915 0.30107952262068793
Ni 7.1914378087757935 2.9821876484981895 6.476237379769044 0.014149037806872407 -0.444817301962692 -0.7993544301818879
Ni 6.745290536021594 7.5587180441134 6.645124209881639 -1.0480680376063498 -0.06569502820496428 -0.9017339582920793
Ni 6.388359746266028 0.8948471616747836 7.9705611205176 -0.18485743220044937 -0.3901343085975152 -0.6629062425227615
Ni 7.9420552080039855 2.1632657615074122 2.1833086627456137 0.6379428877092045 -0.19174078958384397 0.011367104186361068
Ni 8.890016243267892 4.301653938961306 7.616948268508614 -0.039292884062351686 0.3602393208102957 0.765216093737282
Ni 5.869627373521041 5.111569862562876 6.236888151530338 -0.35407047299542244 0.3103439786417494 0.050867219163512396
Ni 7.314278408173018 2.174124803783287 10.91967779666487 -0.9708259279937346 -0.1569265101181362 -1.087486134392656
Ni 2.04376070410619 8.176942222283595 7.523459512136768 -0.455348540511319 0.020915152886112363 0.29617899999527697
Ni 5.6223617922784905 5.622426650039524 1.1611225526762186 -0.10568185301054703 0.9151710576335915 1.2504195128265045
Ni 4.63347550980252 9.197645869243654 0.2113909005361009 -0.345297869009115 -1.2574059714466668 0.5366018281658564
Ni 1.6233341662989431 2.4553017286518632 3.669387128987941 0.4798868919723155 0.9310183090784934 -1.2807649578875815
Ni 7.521332177574872 2.5767617842785207 13.267941056125569 -0.17623678041097393 0.4950312038129217 0.5228582533275188
Ni 6.549030951134581 0.41117504146555645 12.38911654104436 0.3216874286790266 -0.631861457401815 0.6250907143368847
Ni 6.205219959896625 3.8323431801237566 8.90905199613119 0.3939382557246377 -0.8220603564198358 -0.3100989525104788
Ni 3.5368697516445358 3.536387951134002 9.404403146023643 -0.4390564882195148 0.7508479979410683 0.04310480160927415
Ni 5.542049353330298 3.078519954421628 1.9569782402251952 1.641030246839806 1.0194002373580122 0.8249466768286954
Ni 1.5946948321054883 0.20712233332066105 12.84571054602215 1.0702368603939052 -0.19508965145141885 -1.2930121506860506
P 4.3914263456259395 6.8146234825662795 13.11879878155042 0.9963148162934583 1.4423323092118385 0.2823824604318169
P -0.04611572117362104 3.721529062701007 5.043276493273613 0.37006890530620784 0.06498823194592679 0.2575759429110983
P 6.994270215234313 5.109902091564875 10.840943254388673 -0.30595741953827954 -0.5228322851855899 0.13955150917479836
P 6.417768108197451 1.1189446241367673 1.0029066773325008 0.5101132949570247 -0.8898832296010803 0.21659127296862055
P 3.4893660743848005 1.6978001413596986 5.109996598588094 0.6702613973362521 -0.02025797891808769 0.5597229875643521
P 3.308264674790732 1.0448029378811787 11.419787653138286 0.8600635751364865 1.024042364115714 1.7582332131160754
P 3.8575728491657415 5.318614366570298 5.142582990810152 0.08721027656892077 -0.8796199000018594 0.7332310561902533
P 0.55896827461121 6.737016538792621 8.535031186343328 -0.9989378557386022 0.5432959523565803 -0.47658919505765013
