# total energy = -381169.8008334396 ev
CRYSTAL
PRIMVEC
9.19717937046069 0.00000000000000 0.00000000000000
0.00000000000000 9.19717937046069 0.00000000000000
0.00000000000000 0.00000000000000 13.46100167380456
PRIMCOORD
 96 1
Ni 2.957628905712326 3.6974867939240386 3.075085162295328 -0.8309214063548915 1.2435616093644069 0.2996003669720002
Ni 3.709498310034681 2.064003377490028 0.9563245386583396 0.5008616944517695 -0.9351086770977831 0.040893395780252154
Ni 7.389979519511111 1.34244787600127 7.359156092946635 -0.5140198291002825 0.3452413047395667 -0.6939016624630113
Ni 4.062872331476559 6.434769678978812 4.002817510077125 -0.9095190015541369 -1.4387589900382833 -0.7669135360443631
Ni 3.6969809490648617 4.590486913956809 12.589064938466576 -1.0027086356349442 -0.16820979634143934 0.5021444178189352
Ni 3.9671572869409895 2.991971173060824 5.363320368679315 1.0119311826744766 0.5928128281397854 0.3781100304431294
Ni 8.567632337571732 6.40855771809418 10.761815349429954 0.0495749827146501 0.7170372200392102 -0.1919379931963146
Ni 3.314792165008404 1.9643611374113932 12.021455502266004 -0.759541411950008 0.28130696797945104 0.49429792519132293
Ni 0.21712700791733505 9.168419678226769 3.5089197867558437 -1.0430646708544875 0.6848842894557495 0.5083767718818922
Ni 6.361357794143325 3.875295860514425 7.706275112775305 -0.2183213682858498 -0.28435012568114904 -0.7401514374591704
Ni 4.816470805499373 1.7348823177508788 7.574680952237267 0.6910533943809389 0.9332975920309732 -1.3378421625165478
Ni 5.511869529179045 1.5661140783708762 12.69913586010559 3.3583042439347 1.7753619023765617 -1.0016855936870683
Ni 2.4538626090474622 2.046758666381717 6.974898863275105 -0.3613078712841261 -0.7148278710927174 1.3231915024829084
Ni 6.901682878357809 3.913151450339389 2.36640387233159 -0.42658946610075565 2.607115574824762 0.6144442903666322
Ni 5.791748891172117 4.426289672667917 4.448591912650072 -0.08826520019599637 -0.4407572729607054 -0.31330460393197007
Ni 2.7764812630513713 1.099669935134026 4.70211583776209 -0.16758116161850495 0.6976243627302373 0.720369883956869
Ni 8.954097809983052 1.8602398710342265 1.9050411706346553 0.051694600160814196 -0.5480830893325787 -0.44179034221091007
Ni 1.0313992735036304 2.440526699123702 9.170226923950919 -0.04908158801799935 0.46292609574826077 0.4167801933198177
Ni 5.363381070062416 5.624111904840819 9.788113660281994 0.623835501773545 -0.9593510945849154 -0.3879159607899577
Ni 1.9154321437600792 1.2006365690257788 2.5175300824593463 0.9872691611514224 1.120131174121187 0.4143821254012863
Ni 7.854335903056448 5.411013261438385 8.592870317172968 0.027733461359526427 1.2561188772041272 -0.5794937424333763
Ni 0.146433809270444 7.730771799728364 5.458180075543911 0.9698267973052587 -0.7734652211199518 -0.008665903205114107
Ni 3.1735418859676363 6.72145495362263 7.804877151879888 -0.909647299601885 -1.2212950846567223 -2.7051777065065217
Ni 3.359278921078217 9.141563914794093 8.089038720535374 -0.3888269026400013 0.7340005873664263 0.8385411276836784
P 0.7915883426649416 1.9940404348762035 12.359272494993371 1.2797018067303898 1.8718006395222861 -0.8486905574128545
Ni 2.111727540658575 8.199910716487741 4.153405685218302 1.0493168224117864 -1.510686886526837 0.7742265247660086
P 0.5366388547679706 6.778928126804408 2.759707447521058 0.3100004792594016 -0.4862004928951691 0.5714137936387191
Ni 1.475402299351532 5.684739710508011 4.672098084100594 0.13851329771827114 1.044759542058407 -1.4451612940202014
P 1.9614180400489083 8.961851032097348 6.597815433424632 -1.7789817585173362 -0.17512452118340163 -1.9395687482061952
P 6.244397265522317 2.588003468521977 5.895716564655678 -0.06752848186927725 0.4853229753862222 -0.5006174396514474
P 2.2150118637232845 4.85114417130115 7.45400292376027 -1.5248143270671544 -0.08219071186714232 -0.6531049401616236
Ni 6.640676128201672 1.965795897375605 1.7710640209509292 -1.4122987389642259 -3.4685192089289103 -2.4923680120675207
Ni 2.761968114182617 5.4688083358941855 9.78923111756181 1.1077744523280468 -1.8534853861528657 -0.3449376574562188
Ni 1.4377122587532079 0.6603381566311433 0.33782710962455037 -0.31471819645004506 0.7421491846154896 0.5208479077657094
Ni 4.031528344566093 6.7708989893123785 11.64764350907752 0.08921547992440763 0.15224761658522812 0.5311598312146788
Ni 1.6253623071494034 0.6804928552566112 10.728875651918267 -1.0750322249000195 0.03562443407182897 -0.39121365770462296
Ni 2.10421344520498 8.083235300423723 1.863029375503107 -0.5561427264122616 -0.5406968241708365 -0.6733744890439372
Ni 4.749542932040611 2.3884338758077166 3.027002309135728 1.2022727779179487 0.22875593335561245 1.2815306324090123
Ni 6.509423183014097 6.9444957478027085 2.0011526135962336 -0.8501314036244391 -1.8588775037027145 2.002529922419764
Ni 7.889432339104082 3.1460147284491433 0.2800982548594059 0.17445294903767375 -0.06856052267821741 -1.087679738460701
Ni 6.754049756912153 7.615218439533796 9.356984845959111 0.7912893937855663 -0.05987507908907753 0.972618501117783
Ni 4.425737841912451 5.284855553559612 6.15109923969569 -0.08465742824008 0.8879173641239612 0.8992574717271288
Ni 7.4141037207042295 2.0494810314420158 3.9993041876006585 -0.9481233441898962 -0.5429933335144971 0.11189852334422018
Ni 6.2058610844322795 8.378933810740152 0.45490812129383473 -0.24638675906349827 2.300804114381173 -1.277095222345478
Ni 7.213724776215287 6.114146812873838 5.827711701505832 -1.2162744915136796 0.7908114257078832 0.866242707364005
Ni 4.280716719376 3.648953278980809 10.500631093714144 0.9310627891631836 -0.3616971363027448 0.06969797871677029
Ni 1.9034390220079527 8.041480106593466 12.624830929164176 1.0041877912836317 -2.246424768299344 -0.6595769210392124
Ni 3.214791234938716 1.935785501457515 9.431100315007816 0.5348830457025369 -0.37331672281954414 0.06402895335645101
Ni 7.972611628311316 3.2199968383986115 9.482844565229932 -1.5731855192816906 -0.7257152074291824 0.28061765522191023
Ni 5.783324274972003 8.56035736877884 7.261039664906862 -0.39149802171426124 -0.18359476343794187 0.21854968224657198
Ni 0.8075215360110952 7.014918549379421 7.826198972553166 0.5124031194324659 0.5793145365430346 0.7475323033042739
Ni 8.286410187407029 5.3097431206311265 0.7729401420018958 -0.6569158292672816 -0.07693023479915138 0.6696921550963434
Ni 3.9958065003289303 7.186914998678899 0.726372983983976 -1.2871988864383832 2.3872008939098626 0.3968348605461424
Ni 4.080365366424829 0.25107195712189706 2.82254349592804 -0.851742713975617 -1.56011557347161 -0.1300137448876922
Ni 4.166432569919001 7.486945380425736 9.402522839618088 3.2115508176948238 1.301904568079674 1.6572441375955074
Ni 5.072952543460688 0.7246816227184728 5.405278820171168 1.0897764730887298 0.9336765726369468 -1.7665381334373447
P 5.408198924585509 7.935436629751427 4.130467920149434 0.4548168363775651 0.7711604842461751 1.3558717663247486
Ni 8.008940486379492 8.117715525461088 7.241776172951472 -0.2056864531306587 -0.10951768181686945 0.8481866211932424
P 8.026911774649166 0.698408960450739 0.17432517508754458 -1.493519373608615 0.07754575689596323 0.47427674487438964
Ni 7.707300598262546 0.6650829814102246 9.656936131964331 0.36736616166306413 0.3994964665387055 0.14913426776722702
P 0.3153059767760592 2.5815838374000566 3.7999194581894797 1.4261405299433245 -0.09388717436846411 1.0165316575609655
P 4.650526100151504 5.113318963223022 2.1651613127103424 -0.3093888138173317 -0.3429023721937449 -0.003805746899335382
P 6.436121664329704 6.575320972395989 11.664213147228311 0.6083484618815393 -0.25005160950959515 -0.08839529801595744
Ni 8.865409410400416 9.013750714648921 11.896604713559759 0.2105376105753729 0.0028184432854015977 -0.8715705473348215
Ni 8.402874068348115 8.32114793346361 1.7229811677913298 0.17634579518501242 -0.4214567728598806 -0.8847891029076246
Ni 6.36516542635604 0.057128278959612276 2.934215646475832 1.414594734087254 -0.07316356866786755 -1.0333093912399365
Ni 7.674963315992241 5.723294285956565 3.5810302707263566 0.9439473584353355 1.6047576376610169 0.34831531567920015
Ni 0.6052700458252706 4.578392623232848 9.726475084614373 -0.7380364479986967 1.7290277951967126 -1.7071361373299436
Ni 3.980962253006896 3.8663653994551344 8.085673472644956 -0.4406423446493959 0.18185721192154483 0.274014805193412
Ni 6.223924344494531 4.430124896418405 11.62458434124245 1.099944414760667 -1.050527812000752 0.5252581210182632
Ni 5.517277470582611 3.5885462056158026 0.37059573960204406 -0.621254114199614 0.23605863766461282 0.977665319513071
Ni 2.348380160140146 5.570979800268706 1.4132036154671135 -0.3639234545301023 0.22021190044034336 0.38751255470395196
Ni 0.03584324700336488 5.255314213783668 6.523874710781825 1.7163136900641538 2.2927089960778644 0.5526483401057579
Ni 1.5383937800879701 3.533666636984714 5.509426758368182 -0.1416389878314464 0.1528302285615755 -0.6905746549723074
Ni 8.950124628543696 3.270912422769603 7.287234151150906 0.2431487117421748 -1.8308385952876274 1.2774500345817354
Ni 0.3740023747991205 1.2973449089211861 5.572679438995541 -0.2789518374837131 -0.3307243420703143 0.4928259686314868
Ni 3.8833617867234858 8.095872224723895 6.000955288312663 -0.6502533296454414 -1.500221211108823 -1.279360878451203
Ni 1.750692268894978 3.2582203153938862 1.0564395137508236 -1.093088568181098 -0.32587601283907747 -1.0216769492073308
Ni 5.504281856291388 5.858281285922794 0.09516781236973164 2.51035724955609 -0.8007412832270855 -0.4909315798222512
Ni 8.88141250230893 4.314240437770556 11.965429965099398 0.595591162215871 0.6352866810332801 0.10771482428017577
Ni 0.04811320385115024 4.361385178645863 2.5948507684793833 1.9421401084777972 -0.26264770100705087 0.5391976139174907
Ni 0.4430382417437622 0.6769335468838559 8.03406442095793 0.2491920897227773 -1.3480283590209299 -0.856357587039809
Ni 6.230767045862309 8.655879272549996 11.536387990750104 0.04156599636724454 0.7133299463909522 -0.6359489972076273
Ni 5.360704690898407 0.5167324799824623 9.356997722010071 -0.007150237891536073 -1.894946738621446 -0.3826961071519151
Ni 8.038435840259146 2.0688594881381284 11.576770965435102 -1.4590048847715131 0.017694331955969526 0.20212033304595511
Ni 8.499738760290905 7.077532945766291 13.06730722325529 -0.3733555464772796 0.6376243280275212 -0.5168966364274453
Ni 8.182270526671346 3.9325574985732747 5.13923569465348 -0.6004304925860433 -0.6642781831696237 -0.8587813659899531
Ni 1.9763910478805509 3.5849317141675012 11.127442772796954 -0.17955041816523915 -0.6938235009269083 1.3284041570320995
P 5.901425253820974 2.156720141587565 10.30512389507804 1.3638383294699932 2.3752054121108834 1.747633583223358
Ni 3.8205266580344297 -0.06625831880879639 10.946971122811446 -0.1822624177797635 -0.2579922045129105 1.1113076622922862
P 5.867625620048684 6.393474344111444 7.812199946004919 -0.17841193368542177 -0.9027521151439484 -1.583531381292389
Ni 2.018477340164087 7.490513885977749 10.07153485600723 -2.451351974666475 1.7327808344812414 1.0925969732566603
P 9.08805472587241 8.250771117783184 9.506186086468217 0.43369239569412404 -0.778460360341698 -0.01837516007307803
P 1.6428093562013852 5.7444386010701685 11.843608727240662 0.023530736132088507 0.35771141218211944 -0.20053216262322884
P 4.217964365300263 0.16682487540283655 13.16561311318777 -2.277842877599309 -3.033328888533021 1.1188924166180794
Ni 7.488628464229907 9.070377747338984 4.955465936186136 -0.9691279714660211 -0.7064386185877576 1.3887764874725697
