# total energy = -340876.10303497827 ev
CRYSTAL
PRIMVEC
9.18307100911803 0.00000000000000 0.00000000000000
0.00000000000000 9.18307100911803 0.00000000000000
0.00000000000000 0.00000000000000 13.44035266088779
PRIMCOORD
 96 1
Ni 5.573031229144988 5.809467754685903 2.7227465338772197 1.3836959876258685 -0.2670075206376434 -0.9202155620360346
Ni 7.80571124836131 3.3489832965410264 12.072904290772566 -0.01770255948608564 -0.5450718133100806 0.5596288851886491
Ni -0.3656423326004043 2.602831239611056 2.722491244507195 -0.6341656800549594 0.17334403224421113 0.3478653726259751
Ni 6.433980854948497 3.511385904774649 6.186661472126402 -1.1946245173440715 -0.04853008638990352 0.507762535336661
Ni 6.159792725084798 1.2285938678523116 2.74247727993607 1.2201447731023631 -0.4200966592875603 0.6278541360146348
Ni 3.235140767037367 0.32666937985268063 4.611707883874363 0.15542678564415813 0.6271036310018555 1.137326712063867
Ni 3.1737152060266403 4.564959625025908 6.611228815541208 -1.6438882851138912 0.08709663380919194 -0.55316024674517
Ni 5.984469536145227 1.6228506492656065 11.488544167863747 0.24210921473406688 -0.6676576411648178 0.7535900794625796
Ni 2.2960523912502624 0.8786288738312934 10.827198688671876 -1.179525199808788 2.383240109489902 1.6271221213991462
Ni 2.0902322239706366 4.911299142669735 12.806062302429673 0.6765037787015381 0.06988284103406675 -1.0973781966953873
Ni 0.7824031474735417 7.164347213062884 12.34641562831357 -0.43340803168448583 0.6255452853758 2.3720766366739148
Ni 0.9740850588506239 9.178038541380298 6.795320918849017 0.6827795844079209 0.10921609141605063 -0.28430076050045233
Ni 7.502293403936819 7.384860293725252 2.514152160889515 0.30948831550967343 -0.11776809475111975 -0.6102909303198909
Ni 4.286308522722202 8.889864594590401 10.513755685784924 1.0304768068871477 -0.33688341969317465 0.2595217537835595
Ni 2.4888876963278896 2.7694213281587596 0.4662603217525094 1.291857211146001 -1.0613385294630109 0.11976532768680663
Ni 4.985571819819497 8.083287931373903 3.5738032374387108 -0.8295443235017067 -0.4408786290299182 -2.004419426132993
Ni 4.043599959781029 0.8765048295404007 1.9490930163231013 0.290950404606486 -0.9024235281599362 -0.9536622717302545
Ni 1.81327998977681 1.2524698520992679 2.781346463983028 1.1364124277797139 -0.4140052016778418 0.25395248722589814
Ni 6.62937823679724 4.530789418340169 0.8602039604493346 1.3835550911726302 -0.9560834795772374 1.0036496593919748
Ni 2.0542988676789675 6.651206396241476 0.8362490017929463 1.528436240090458 0.9563580733948627 0.6946863631478359
Ni 8.630800982440064 5.892519447581853 0.48661184340178026 0.045007160838309586 0.9588029353909293 0.9772068918194138
Ni 8.64574183873614 3.2113474304281886 7.193612741600047 1.6021456539594667 1.0860949104720845 0.74558932064529
Ni 1.0745662202468522 1.7493199012075602 4.8653002224038016 0.13555601486216007 0.48923593728738324 1.1486066558530605
Ni 5.355824053993737 -0.06011421849131695 13.163588637000284 -0.36801947897634685 0.8963752650833271 1.543825578062335
P 6.4357531876252905 7.861994289688077 9.786270057000639 -1.9812483873331685 -1.4609746069033742 -0.6101608324999298
P 1.1543946552694635 3.851104428325378 5.829833969248557 -0.5421960344241823 0.6363056092160977 0.19806981712566535
P 2.2405499109469535 4.608441465567961 1.6780546797658282 -0.62197428019509 -0.7693751102109783 -0.8105531271111847
P 1.9512464464407593 2.9251753930866915 9.48681929918949 -0.5542925605774002 -0.7816762961758345 -0.8961870603319211
P 3.352987115437824 5.900949506635202 8.37432056812383 -1.175824096808117 -0.3701673785572851 -0.24193797926352528
P 6.71465223284233 4.2335058652529725 8.512017042504372 -0.05308453852980535 -0.1464577493763284 -0.018257917768923392
P 4.119911278662647 7.693338010195925 1.0233090736040695 -0.2619424474099102 -0.15293384401897533 1.0028454183231246
P 0.7286417774060879 1.5644371354983422 1.096582632643805 -1.0935737353476327 0.008486183094140223 -0.4243202104506047
Ni 2.9339268596202874 7.263101957136641 6.785926637354926 -0.6914550006947316 0.5504780719273165 -0.4323461660788747
Ni 0.3119176948164074 3.671612125213453 0.5363142961472516 -0.7198389511540635 0.43154809565761154 1.0310365360453597
Ni 2.611086820317984 9.269208068920213 0.31376808359554653 0.9719741826655648 -0.2328902672389602 0.07665692653310668
Ni -0.18822540350379205 3.6336217610482002 9.672725977300068 0.8580709701864899 1.3557820348244198 0.6063813108528396
Ni 5.13745062884273 5.841617685781515 9.404671220466577 1.6916429267903512 1.5441593072526696 2.061823932194391
Ni 0.43877998219134945 1.4033568894691664 8.880027689080656 -0.4435422919050103 0.03807829492896023 0.3370058042036519
Ni 4.9435960028991754 3.3668443693719228 13.024360426399593 0.03128055528083645 -1.7048527406124059 -0.5156835899559505
Ni 8.911995795373157 6.73363364031866 4.618871597455535 -1.7733407581814749 0.6637205108939408 0.3734419355434988
Ni 4.489943119136146 5.457517380744042 0.4122060117244873 -0.8550702356869532 2.2763912327544475 0.28311779593594466
Ni 2.4019791136689697 9.040953659519312 8.888064712701016 -0.7279860057412302 -1.0859691835274976 -1.7032136623470862
Ni 8.477186573023493 8.422473836814508 9.422842681092684 1.4820321989046217 0.1198154641984517 -1.3705633068986527
Ni 4.617707184069953 8.392766602568775 8.1123009254623 -0.6909204683475003 -0.48095672799772654 2.2070444667295086
Ni 5.317402085497866 8.309834289594061 5.924493982023959 -0.4053912347565857 0.030163925177889985 -0.8688629185956713
Ni 6.49731649469898 6.318779230956934 4.760357925181738 0.14551852539151067 -0.17837053892452506 1.1258763041350803
Ni 0.6523699457291867 6.562066327362552 10.27393979016598 0.06975814253074437 -1.970983515072051 -2.4678772260150077
Ni 8.331836927384716 4.389581337661151 4.7594166604181565 1.2942437091003065 -0.20382111778714573 -0.08124094635936331
Ni 2.096394064520524 2.34789082627875 7.127983170747683 -0.14581780179948434 0.005826376873789965 1.42133719501741
Ni 3.3629599303963604 5.792231130673773 2.9593097857960613 0.007350012607167988 0.33804607254270813 0.4657663934105333
Ni 1.0696440942636336 5.586824201583037 7.966715274902313 0.4315254699497923 -0.459503443219957 -0.1073489563003248
Ni 8.901132222540792 0.21158713578235216 3.5625934628347653 -1.2118863897483128 -0.4239779966198376 0.08458595157219626
Ni 4.465874290401041 3.7140011803226645 2.048457516302241 -0.18711331811416163 -1.0740680612145372 0.18882952947431994
Ni 0.8091369033734412 6.24574626837384 2.687519355735009 0.2882833992972842 -0.40105378372349637 -0.227163392057512
Ni 7.180142094949331 5.706947951557819 12.134729315365886 0.7696772148324293 -0.5925523753895473 -0.6661437756234527
Ni 4.666588670280164 4.3739701171919885 4.731864692904256 0.6363305489167622 1.0414955265951547 -0.8161694448566975
P 4.265720077844635 5.069468355234955 11.697555452268686 0.5693551113374775 0.3314123692762744 -0.21990799604667932
P 5.217958611109294 1.383604104040242 9.440624779514147 -1.289602096563237 0.5710746651317455 -0.8043487980726858
P 6.857641829269005 8.65666050999369 4.241170056196245 0.4005166802731038 0.5105776361879529 -0.7359163163319004
P 6.574298177753684 2.271129536924786 0.8399415145874467 -0.8578976778334193 1.3120128601582695 -0.39134581240711314
P 3.807769516917152 1.3852662398666649 12.367651479687066 0.139084853951025 0.5824970480360742 0.5124386006560916
P 8.473880667512377 1.3564313973530333 11.219939345085491 0.2921763065937871 0.5984833961620015 -0.976385167249067
P 3.2525059540415957 0.43162545168104033 6.870425582219077 0.6264158609062115 0.34664435573468044 -0.3854299611433104
P 4.042038837734113 2.164440619624349 3.5285362079206553 0.13374158736124064 0.8798132469595881 1.916624480705196
Ni 3.7879799992047714 2.831012184445042 10.57926404010188 0.480187711042186 -1.1877203340250708 1.0506787357563196
Ni 1.8489470370134167 5.987536681813874 4.893121253894024 0.8942847011028857 -0.21256698230057586 0.9028292482387871
Ni 4.522056317948301 3.789890077944528 8.448041342714651 -0.03137388632559113 -1.711916846548039 -0.48428810636380476
Ni 5.659480658260698 7.327025313422434 11.889161144157596 -0.6332215709741352 -2.209440734875827 -1.5541722114039813
Ni 8.006958246350557 8.485047281683261 5.998429640473005 0.019942247449881784 1.3706244991538912 -0.20162385302551084
Ni 4.109093621184602 2.438279792795207 5.814067554881787 -0.8984447460178462 -0.4387543835980637 -1.1924984721400043
Ni 6.6921169769415485 7.656422065321785 7.689534382243967 1.4872916475313482 -1.5403077947170634 0.4567958144808068
Ni 7.783130077106208 5.32115796148133 6.904793224928397 0.23116017192173094 2.5318514148741236 -0.27973936638201496
Ni 2.3599941136777836 3.7687139165316506 4.051782075921044 0.253844243782808 -0.8822640224929258 -1.2492272922906162
Ni 5.937865451509341 3.8377797925014034 10.73456721625038 -0.04664418222110031 1.7807301086670104 -0.7999275290765385
Ni 5.373244339423151 1.281194497762529 7.200454129393886 1.813172288356116 0.08980991897529694 1.3582726624567574
Ni 2.634926072281483 4.850681691895059 10.266950554931224 -0.8366611370521461 1.3767331831547902 -0.4840273965032503
Ni 7.772560362541498 0.5217049487093737 0.7879120716849837 -0.25804696901024593 0.33512632779275187 -0.013465638586602616
Ni 2.655101278970161 7.973531868404819 2.920750071237227 -0.6639202856095727 1.062980435941808 -1.2281632725314655
Ni 0.6692713876547723 0.4208234054234656 12.788361015031814 -1.9564706661678564 0.03019529263645768 -2.6231057796054307
Ni 7.97913354163199 5.865199811760816 9.23572659254929 -1.4442680927819709 0.6240915836484091 0.14250622092774812
Ni 1.077725196624142 2.876128611600925 11.856151677629093 0.4558288225818472 -0.8280854795679932 -1.4105629872200418
Ni 3.4906229815506613 7.320138010274273 12.301524186393861 -1.7777036631358611 -0.9674801514499533 0.022476840946277422
Ni 7.417037774033457 8.577024919459227 11.456421785980726 1.9897132302710698 1.964727249749694 2.2066906829345156
Ni 7.973357390058399 1.953285088172615 5.280095860111997 -0.7654701187296171 -0.8218199582742556 -1.7248788060253457
Ni 5.190271652453689 5.702806386598059 6.983701516250414 0.7215513058594799 0.575296673632893 -1.029867198327607
Ni 7.216461140217298 2.139728975928749 9.419966543298013 0.48454007447361064 -0.46371182487434975 -0.9213923559529552
Ni 0.41682968790461894 8.381719368319127 1.3982804878954287 0.6893153286439095 -0.5918615199701097 0.09498734941117834
Ni 6.582865982869997 3.3662750189783415 3.6332902521900023 -0.44122572795669174 0.6382110537689266 -0.4779480230783898
P 1.9890898814721847 8.004928787689567 10.821795369775373 1.3843981558992158 0.7604099305978904 -0.09675369728298176
P -0.047409439950677035 7.350956396094575 7.446116886232078 -0.3986570013565457 -1.1258649912811705 1.0012217666767727
P 7.9779121932070485 1.2656842910728716 7.267655841978204 -0.6425299928592547 -1.966997019620477 1.0336824583086393
P 7.243863423676112 7.73859218341477 0.062386110223123466 0.676853705841789 -1.0969256825390012 0.7744566384989436
P 8.264166878186325 5.05019308949097 2.6281131520073227 -1.7326985591800805 -0.8907193523491306 -0.3816555817025427
P 4.147653335743437 6.567612902164537 4.994919267652181 0.27199854609433155 -0.5213415595726764 0.14053495613399022
P 1.2688249013084327 8.279989309285364 4.564693315970846 0.3119393481533273 0.29895090631345933 0.5246158594485738
P 9.370864663387062 4.942181809986087 11.716103418800225 -1.0073322504498845 0.051261883498769784 0.06542711925555829
