# total energy = -340870.6791830332 ev
CRYSTAL
PRIMVEC
9.27277300926479 0.00000000000000 0.00000000000000

0.00000000000000 9.27277300926479 0.00000000000000

0.00000000000000 0.00000000000000 13.57164060531747

PRIMCOORD
 96 1
Ni 5.676949115394665 5.82421929222853 12.842300657950235 0.025897179481736043 0.06550502368134525 -1.1501284918142258
Ni 2.9929172242542164 5.196174393792712 1.1943451849535098 -0.046297597514958974 -0.5176581971838181 -0.7916138670045206
Ni 4.134200821693784 1.6937275796352078 10.447747113832659 0.9902704098715912 -1.7429035247375404 0.9952115559269505
Ni 4.451357468101584 2.449616195991217 4.731983098978928 -1.507443954109507 -0.9422352608402352 -0.08107433887451197
Ni 9.01917168918494 2.972517124201673 9.226014794558608 -0.3617979235466672 -0.033775553788548275 3.1166611702037743
Ni 7.484351616186298 6.872200250245963 7.679675155971205 -0.5941685708367316 -1.388055807256461 1.370158615261066
Ni 3.974477311055117 5.570154591619598 7.975008331709158 1.4232002163680781 3.2011005688957774 0.6464637806960221
Ni 2.622840863755568 7.714455472006242 9.58353211164309 0.953629618720106 0.5239332315592525 -0.11128428679898901
Ni 7.914951364431744 7.133497713600796 11.571139823526146 0.34233672949826205 -1.8204449107581293 0.4972549509371178
Ni 1.4100085517680778 2.949965740870861 7.7958898895841715 1.4450175693534857 0.5112489512233647 -1.2557972321986501
Ni 7.904463858450186 2.698710690405529 7.328862053585809 0.8685279038537559 -1.321103252495312 -2.6944119833495854
Ni 0.15555447200974762 2.021149185478537 11.542205063433435 2.3552248552238986 -0.36130812839444226 -1.0493602740552121
Ni 6.945149153479309 1.3982228576013582 0.472951283231802 0.065522507182842 -0.43254594079450664 -1.2230508910055646
Ni 8.393176073527128 3.0546089813676596 1.58945617732573 -0.3602066678001474 0.044699399789903664 0.7590140786916283
Ni 6.080231275115204 4.0804558308280825 10.61760947419744 0.9734613087340526 0.6879575290644345 0.21332725750536807
Ni 2.6624077850847523 5.453113653954502 3.6596472033305827 0.8535329731068204 -0.7083474055746962 0.06494812273661073
Ni 0.0004756932421343189 0.6482808704106655 1.361059438969274 -0.23860917200060838 0.23312012386157918 -0.36273354798705915
Ni 3.4613777036426336 2.8765346534544536 0.8686714967737732 0.2933813826454818 -0.3038313743342122 -0.11603002901409049
Ni 0.5831989875793998 8.408930514431344 8.214031667638439 -1.7898575248895756 1.974030786538807 0.9929217314515094
Ni 7.774570857751988 8.420141296687492 9.798507438719522 -0.22984145311030738 0.08354002680618516 -1.2022686641528906
Ni 1.0770047367285525 2.762906096161784 0.03869342613602507 1.0845579050022676 -0.1659261425135852 -0.13607717747295275
Ni 5.955317753384377 6.764997724469844 3.2304031344613557 -0.9667820969416641 -0.9032293118906831 -0.21860264697169446
Ni 4.909219168235429 0.9708129431823103 1.4277770389138438 -1.0927502110050729 -0.8214119242025595 -0.7206475630982879
Ni 3.376568924060558 0.8112173968076087 8.427798752425396 0.033461364982239145 -0.9214640897311551 -0.7260095987411497
P 5.872280073397773 5.194236384287721 6.5865070490601125 0.10367125033842146 0.875304560455957 -0.7647833770752377
P 2.367403792779465 4.813663245034763 12.564923279367619 -0.5504353916148391 -1.0053447877062107 0.822916276662228
P 2.285534482159506 5.066114483184994 9.119911092353503 -2.494458318937646 0.02002683674388809 -0.28840244137365173
P 0.2745640193299131 1.262061462523379 3.4349957378883187 0.33963835673049253 -0.18956229387528645 -1.4961503834735588
P 4.527524023479582 1.6238572369552449 12.860744202952285 1.5343636613184866 -1.008321096725715 0.879345049073918
P 2.755608424006624 8.277201504728415 4.53063411146032 0.741450101665936 0.00990671759075068 0.25822540356963913
P 8.278954058778384 2.9607128844894506 12.920337531592141 -0.5161931826025175 0.01830034097108461 0.6073732424524637
P 7.437440658838199 8.04636509986113 2.272041670529298 -0.19431060719354923 1.3643726047069082 -0.9936416403366694
Ni 5.001817076928476 8.802318625626398 3.3280509951946824 1.0161832730826112 1.2959822890579682 1.3195590479366437
Ni 6.2058309820296165 3.4197800450809464 12.942757241549886 1.3994085132651188 -0.08833899085672528 1.6048622815596814
Ni 0.46027911199007177 6.41949421176176 9.57191518194044 0.29704546176063035 0.6149415417180248 1.2101992318538772
Ni 6.725532803640924 7.9842189768828815 13.486546017659595 -1.7746293950859116 -0.3161839823622942 2.1221268428495064
Ni 7.221125416099224 1.2237834566066057 2.775495739726029 0.7554446161728151 -2.2897715107160956 1.204696813978409
Ni 4.338025639536951 3.4797377936899228 11.890005441951983 -3.6575243447491457 1.3336628343278771 0.25791944229344616
Ni 5.964896527636322 8.880988829647208 11.535541648934457 -0.7069404979248405 0.5688750863772655 -0.38078474906181514
Ni 2.5574863614054184 1.2623860095696695 12.156212838478552 -1.6193692169266047 -0.7502124212395982 0.7785400645396978
Ni 5.725250988655438 2.904983520255001 2.4526669382263475 -0.35397945594351293 1.3662847341279567 0.17883642281735007
Ni 3.478421059959259 5.569987681710077 10.874086950276222 1.404260956261414 -0.1758259181258004 -0.47100398766038887
Ni 1.9160144880259269 7.056524426993447 11.890330916275547 0.8918624648146382 -1.5444601263225401 0.4538922676807666
Ni 6.600906737865382 5.085216395052376 1.4981462567678188 0.5420451106686148 -0.4612384236331928 -0.8816037632011076
Ni 3.3679359726292315 7.473993929023257 2.3533221600795593 0.5338178376628161 -0.37024039788706553 0.7051862342378952
Ni 5.7279957293897805 6.787187469663362 9.884510551431948 -0.6741849007603744 0.4924963532062099 -0.010346633341646698
Ni 0.6147894697880392 8.708153618338406 10.964744994909728 -0.5374950294040872 0.22276012078349378 -1.5393963386463876
Ni 1.0145804305677681 6.846282850406481 4.710308919950375 0.25359176145236967 0.024308751948693617 1.4163366564790254
Ni 7.4048190442996304 1.5818423036197555 10.840755041344915 -1.7951064319933407 -0.1925727985668361 -0.18105759883838496
Ni 5.429069354210755 4.641912948137846 4.560519330760021 0.3306088995383725 0.18935583429143515 -0.8045231188670209
Ni 1.5772522811079333 2.8194051005345795 2.3869665614525797 0.8118677321575503 -0.8825537858192027 0.030465258468392695
Ni 4.060779007050129 6.421302402448236 5.357934205327534 -0.7469180667590427 0.9030171958798769 0.540573925439727
Ni 9.035667951909247 4.762866995903929 11.242733449216642 -0.1933796107388476 -0.660029692305915 0.8077848203374282
Ni 0.39136757401257855 4.90376677785775 0.7051665494071843 0.8942728740283438 1.3262680845257029 0.5561784647462034
Ni 2.1044557758749254 3.0891871509567213 10.525621713951418 -1.2854513076196572 0.6485250341004251 0.428743536329281
Ni 8.243847341142507 5.872335710034279 5.4396356787606965 -0.6963393253702266 -1.0593279267908855 0.46369074182842723
P 4.351424796162372 7.453176554196911 11.756446914185252 -0.38723076179747506 -0.6683950335514748 -1.2602218436289072
P 3.1591131302731914 2.1044001392384186 6.756437100665978 -0.22918530758354724 -2.261806907182369 -1.104241499474124
P 5.995849043079682 2.245503922192764 9.379564493099556 -1.2389539353890662 0.4332671352312474 -0.9675688545090175
P 7.528805288755342 5.6067727712139135 9.75705907179913 1.2385659559220283 0.0736029701981313 -0.1500989456733415
P 3.7488985683377374 3.718808420760235 3.032651055492921 -0.6374425510340184 -1.0563066234660583 -0.772607758215663
P 0.10797309319173923 3.8629351276314576 5.951109769109903 -0.6515453089839875 -1.1788024627101505 0.7174254566165644
P 8.903391848614003 7.8147868731737535 6.331319415671015 0.9697836027721493 0.11928453139564617 0.3597387270247933
P 6.028980660119563 0.9437642650671872 4.768775606700966 0.5675350274096032 -2.0921804329990614 0.038000133392857134
Ni 1.8810097708903117 6.821116545159843 7.420959232550293 0.7102261106546478 -1.501745618173149 -0.8761357981080008
Ni 8.115790349449039 8.423442403786902 4.44058621527384 -0.36204423522951845 -0.6308731253466168 -1.4151333801995434
Ni 1.9452793588285762 4.886167055176054 5.731521237589771 -0.5950062362466785 -0.01335893780540925 0.8849055738808308
Ni 6.503041894249678 4.095310812775435 8.310892269965192 -1.0786675076597618 1.7205814642015722 0.15257928889303402
Ni 2.1305679039421817 9.11131523201318 6.558861204379815 0.21370263856691585 0.17098864463815713 -1.1683622412134331
Ni 3.024630107063171 0.7203748239963557 3.1369892217662074 -0.7800228197328115 0.8968064390834749 0.7314796207167855
Ni 4.657398478632277 8.996666669717882 5.917696259778386 -1.6681628413905398 0.5314051144562654 0.5749308056530421
Ni 8.49030836809549 1.2174872439085704 5.231147583500974 0.1300340566026664 0.14503387244560828 1.4641416917774461
Ni 0.394964482562752 4.1892532735174 3.730531987349522 -0.7073179358689173 0.7879215057545979 1.1580554599707862
Ni 4.068178679705551 8.106721577698407 0.19736169523561098 1.1886261336687918 0.16109272568068386 -1.0693765692761388
Ni 1.022749743361537 8.150674520538889 2.8834308145494885 -1.2979689804706935 3.2077921219833403 -0.21103434770613333
Ni -0.1213249586761292 4.998043058418755 7.941119129135507 -0.01213252159747588 -0.8673801634025576 -1.27815503106856
Ni 8.8853377600675 7.525411453928418 0.5362138480492908 1.1838402822443739 -0.5486572166684938 1.1825033086005055
Ni 3.817415086196031 3.982386986211853 6.536861551027696 1.5790561191298547 -0.11543173330845927 -1.1937765675214795
Ni 7.236063853001337 9.226668525037566 7.1926431673167714 0.5630934466984818 0.5765449442176974 -0.4506591054554497
Ni 5.647090787135942 9.337218521776851 9.0966364327481 -0.36987298724531786 -0.1091315021220443 -0.20981873013147737
Ni 8.21244045983434 6.176686657272732 3.052981609749832 2.494846555515 1.0041152861744835 -0.3211770647015114
Ni 6.908048789701933 2.7512316752680785 4.881284940322571 0.3193844915774629 2.7302541898591755 0.5684043173884341
Ni 1.5457063082084994 1.838141742461716 5.049098017909348 1.144554597270874 1.3767136427707645 0.8080810114216083
Ni 3.919786497368797 3.58925851265383 9.258070769959355 1.2291996842157797 0.2673661895286428 -1.302170163036235
Ni 8.228380356193577 0.0830209889956527 12.50827498335353 0.8961958020826695 0.6513159665820009 0.5011460584614078
Ni 5.53200640452134 1.869882443588924 7.077203637505801 -0.49451466918781933 0.24129674613510055 0.2414780089079712
Ni 2.303978027161556 -0.029182343125164035 1.049127072729476 -0.048962288831315676 1.633440093197374 -0.5150282157601388
Ni 6.237488228202064 7.409640886130231 5.656225395573106 0.6534582097359842 -1.0990558415081266 0.02766995511144267
P 1.151196191510554 8.671795076381123 12.980147843114374 -0.41161561839974276 1.212700401009176 1.2840749960974207
P 1.5271514899334357 6.386418231358386 2.148919648493995 -2.4250081945656237 -2.046322751234998 -1.2429221760081948
P 8.236855670488135 0.9872442964973593 8.918603832312273 0.8111899893642351 0.32954060617485825 -1.1856742501293192
P 4.849335601808462 6.353833707910822 1.1807744820321924 0.4458431721240451 0.18673022374313003 1.048598456188523
P 1.9442964449169535 0.7106411944394668 9.987179618610027 0.8877206747321229 1.1255073508314357 0.02002118031693326
P 4.7116812903175465 7.744879439402785 7.813043591896536 -0.11089836421447997 0.2889212899915992 0.2659520827899355
P 7.978961314732976 5.707243263972693 13.251879030368809 -1.1869122363014786 -0.055687523370291196 -0.559746641713436
P 7.504723897920588 4.243758631748697 3.3706120948452147 -1.10647655945223 -0.8483861387985583 -0.4279050995883856
