# total energy = -340891.09501344716 ev
CRYSTAL
PRIMVEC
9.05883357625673 0.00000000000000 0.00000000000000

0.00000000000000 9.05883357625673 0.00000000000000

0.00000000000000 0.00000000000000 13.25851861978658

PRIMCOORD
 96 1
Ni 6.651629516267033 1.665937558800632 11.31346727790697 -0.6728175880992026 0.7451314071722651 -0.05168662974101421
Ni 4.613147438615731 0.23177477901650645 6.132157062714972 -0.41268751130768283 0.18311062471267173 -0.96553845434255
Ni 2.6115619889347337 1.3672678253901371 4.72924725776452 2.0171312172727065 1.5589876305147539 0.7887766546660415
Ni 3.5092923674903913 4.350975744510996 5.063269088070207 0.5329650027442177 0.7359682526157584 -1.8187215003091195
Ni 5.096852900708142 4.563269502547846 2.60260733223239 -0.30889799022384223 -0.2493818371360802 -0.14558100319832992
Ni 7.024835329947519 6.0064594097005966 2.5007153872079866 0.2919554488322327 0.08114041622575703 -0.31842264188482583
Ni 5.079514293800417 4.506515912016552 11.333394899367583 1.2457470470514995 0.3463597346147261 -0.320558457280906
Ni 5.812428259566553 7.673918852493128 12.270758579428982 -1.1205980864552765 0.5346277351586212 0.2840842736142721
Ni 1.8301923239264763 6.508527126861951 0.4766223603467734 0.7843422730437718 -0.2512014068433222 0.08529634737565955
Ni 2.573795712969057 1.7378646950845063 0.3318549573838848 0.06007871045945137 -0.27065848712666934 1.2127806194278081
Ni 0.6895692602634809 0.017780677972038802 4.705501338074228 -1.1672576952953446 -0.5385761782834079 0.0401374914508341
Ni 8.74769859711186 2.3860423343016044 1.2274646630674955 -0.4784013085657245 -1.170359217038804 0.5505012118557681
Ni 6.719761001404441 0.9491211397821591 4.577941188936431 0.893923461108725 -0.6881367349547762 1.2401281582028256
Ni 0.7006192251046734 7.34878826705679 2.576845822136158 0.027018694680688952 1.015668795340038 -0.7777322239264218
Ni 7.620797854109169 3.642520628614691 3.772697874688561 0.13513743926750277 0.10238132788240432 -0.7152063374780586
Ni 7.663075429050837 3.868710636910919 12.62193693409336 0.36366582999334146 -0.38558782687741333 -0.46349353821595657
Ni 8.004122384569136 8.837788694132406 6.628688926855789 -0.7947462419859151 0.10398132537967254 -0.5576699616900653
Ni 6.710557226786756 0.5509020756347939 0.12984931630894855 -0.6038780848150117 0.2217633040878632 1.5369684459311854
Ni 1.975686245318832 6.47632297453334 9.190009720507902 0.9606986097517455 -0.709394615892288 -0.06857466374560447
Ni 9.040516324220167 4.738503573615259 1.399158542087083 0.6362750130884783 0.5764310443476525 0.9617687028874727
Ni 6.350006603205588 1.958275167744826 6.88325210688435 0.3376776334596959 0.6234539500644102 0.21053992456821805
Ni 3.456334428105565 4.594332241882531 0.7211773413619309 -1.0898086118782455 0.8123099619012915 -0.08870357328499562
Ni 5.964462658590768 5.604908506670963 4.6716656898709665 0.5243512929332775 -0.41528612527279446 1.0539178115189074
Ni 5.364088482619261 2.77300851574219 9.466025123638964 -0.4252908018939901 -0.26330616052665623 -0.6522587901112444
P 0.145054567978027 5.639585720486412 12.683310529600067 0.0013567711382105666 -0.7387432442577342 -1.5049726097508793
P 4.1303659775184025 6.04549392232619 12.389807048812079 -0.9511032527538267 1.2148670696431916 1.212920487439782
P 2.3486927646670432 8.407874584087054 1.351095996209536 -0.22246547236121042 1.1464803535386772 0.5356633755119872
P 6.336173764779207 7.5232613961282535 5.869028755815329 -0.44385082428436456 0.8709951344473258 -0.3252682040517495
P 4.546103013472538 1.2628466541125278 12.63120502642737 1.6573148429324427 0.34981349749128143 -0.12336384367134237
P 3.947069544827231 6.0972560957173805 8.24305907718086 -0.04724016393388638 0.3040056951285474 0.1882021803029662
P 4.693725760686897 1.0205319225687812 3.809901597107231 -0.1975064884230276 -0.198585066199187 0.5953345661203747
P -0.14056953961856275 5.46843718323059 3.4951044227992325 1.018034210248421 0.6856800458841675 0.6150587840221794
Ni 1.5997990169859513 1.2404622770649896 2.6753696929451523 -0.20599035752432265 -0.525565882066669 -1.6289517184087174
Ni 1.3683367677177813 6.712368993443782 4.807313565365722 0.8169742001461802 -0.2916633715131106 0.6727972763842285
Ni 6.025156841601089 5.270402028784522 9.205919749406563 0.4866630343538844 0.9293509486783994 0.4829529324921489
Ni 8.797449709513755 2.1621713873263677 9.958923489749116 -0.3744315531502777 0.29754502710486824 0.5923245756494573
Ni 2.338175459223016 5.16392450235119 6.881462987310538 -0.9001779266588689 1.311715640632825 1.6555497806122197
Ni 0.6306125614772454 0.10316471110096267 9.08498885446682 -0.18610133190987949 -0.6446665795862832 0.27110714462831376
Ni 1.5706929856408518 1.0525096040652642 11.621701327499897 -1.583111520146151 -0.20637345189535425 -0.47814034159485397
Ni 4.0315069298778585 6.959385259462507 1.667895172673547 0.5381560600268538 0.0925291176786729 -1.038059247220096
Ni 5.325008675827243 7.935900311098877 7.984478304590347 0.4670167208778666 -0.9804030301592084 0.829954671566248
Ni 5.380022970367793 3.016609601612424 4.639009501761428 0.2745858472055336 -0.18859118821126875 0.6722110648634553
Ni 0.7037735108545533 7.42592423247961 7.227576548285206 0.8394158169791479 0.139872639959643 -0.33300722456722004
Ni 5.078182645307504 4.696941646503116 7.119174925662114 0.8601075410005445 -0.9031346952943479 -1.1638751519763568
Ni 8.709406908815648 6.971886449395975 9.495101260834222 0.1682599328530844 0.00015915128568359688 -0.14607285523308391
Ni 4.705774008956111 0.19857234325987477 10.513382063331651 -0.21872246037901039 0.9010793554272158 -0.4402587360577321
Ni 8.034904300071982 7.385829836359656 4.210971476089425 -0.5935751602271068 0.1566665715885302 1.818356660770533
Ni 7.5365959987239535 6.417440558180042 7.327041631872524 -0.858229093030909 -0.7809214202876809 -0.16388931458921452
Ni 2.150902198719675 5.4096815905432845 2.8705087383899652 0.6501350589000223 -0.19766178305396925 -1.1848808076937465
Ni 2.3077377793850036 5.289806049681255 11.341097625309922 0.7598944244140526 -0.24595044285702802 0.9541196709826472
Ni 1.2624390066146973 3.518052259277105 3.914842745415407 -0.9395731406270399 -0.7576503655748823 -0.30993697301131784
Ni 3.659243234859028 2.717477867704388 2.8302159538210683 -0.19130910136306406 0.5201987042174847 -0.2038630267686747
Ni 1.4340676620346318 3.24187560891357 8.334662905243349 -1.1716987617858337 0.7609454913863862 -1.1868777835191173
Ni 3.7332448439651946 2.7028931461153403 6.9547290191539535 0.24903705220215175 -0.458489657243462 0.5770913036394707
Ni 4.138527986308298 6.71928088324033 5.959452217900766 -0.3814678911717688 0.792286724701829 -0.06067314951034067
Ni 0.988844123737422 7.322037532365822 11.614461507938428 -0.27746779673901895 0.9616925982338986 -0.6356312088568924
P 0.3279886473377945 5.431051378262889 8.015715879407436 0.40457182417908394 -0.6006621489808752 0.5530059805554928
P 8.662853564563402 1.4635541643777061 7.733349328260175 -0.98676856736592 1.4137532120225653 1.0091042547486426
P 1.7012670086126103 3.179088835414385 10.527621643372534 -0.23522380046814328 1.257984726768272 1.0298659127760263
P 4.01792773878346 6.196839850020734 3.6629709447558554 -0.0380690389575796 -0.45498112986957123 1.5467566356662008
P 6.9486958361860625 3.7110597612499294 10.585720470646669 1.4911989530055545 0.5441503299370757 -1.4159515052254648
P 6.739744787631422 7.527310694606703 9.839624090684023 -2.094501367822754 0.6750045684481922 -0.5790473989245769
P 2.3356480447364665 8.291151517208247 6.005419455639464 0.7468553318419073 0.042905026893642235 -1.099180797121765
P 6.934591232761126 4.054371425089509 1.416805149326502 -0.2727662774982916 -1.7509917010623133 1.2268142147027388
Ni 5.164776032679992 3.2276985348223532 0.38462447303638153 0.9339012870532432 -2.083815605974134 -0.30605409301714387
Ni 1.61116785275878 1.1896693988353069 6.804192045271771 -1.1227974080994405 0.6406628577435289 0.9533231432232808
Ni 6.708781695462872 0.6264862629158721 9.034513035402115 1.0203312338127137 -0.24206987685569922 -0.04092810567292951
Ni 2.591387967208765 1.588412063546552 9.586863618479201 1.9773909612602913 -1.2050547115384602 -1.3832108204593339
Ni 6.345866716394287 1.867451305228186 2.4130240692413425 -0.6882483208319761 1.7431842892027527 -0.7998462822166419
Ni 4.419668877312081 6.879703761886567 10.355645128754452 -0.39051586030665003 -0.3851186005504787 -0.7350184871079792
Ni 8.21377096328673 7.161524065386733 0.6561340124914216 -1.4621683701011592 -0.7262492255557815 -0.6847361939136594
Ni 7.841833386266162 3.8006335047732223 8.253030134977793 -0.04044165295481422 -0.29345928707126884 -0.5925947985917084
Ni 3.3276718189569667 8.589730662285891 12.447587005154578 -0.5617397608840649 -1.5127435119455495 0.4917031678809532
Ni 0.13121720013500207 4.7524632357076335 10.487964788900253 -0.9051298713475056 -0.8491294447224861 -0.40716298194502776
Ni 8.74615859545339 2.511534351800409 5.660021542494321 0.06641210887664692 -1.1681087304417301 0.7456667108504449
Ni 3.534539335856029 3.0104133596454004 11.739728866371761 -0.90380266789565 -1.054650318809558 -0.0288752882734535
Ni 1.1090276649311448 3.492714702578617 12.753501087543183 0.029400821759620333 0.23862742683305355 -0.4657172853401528
Ni 2.83504340607871 8.713854795958643 8.064904438262323 1.129812920185325 -0.954441058877808 0.6053441278375769
Ni 5.622609466910093 7.8558655190248174 3.704456777668403 -0.6610079970587841 0.5468152783637485 -0.3609018940949591
Ni 2.9851754501130485 8.303263177310457 3.728878486321766 0.720801572177649 -0.7178113792010734 -0.5236007879204982
Ni 3.491219995086572 4.205400293619074 9.402729243709153 -0.041500176126315624 0.49409917891695554 -0.553986085080575
Ni 7.426123526811883 6.22348187871228 11.429479226372896 0.016444775819584583 -1.4452258287095496 0.4850568662090292
Ni 0.39742551035158835 -0.06397529242619343 0.5379388852037833 0.9997007020465558 1.1372680909117898 -0.17431308102569978
Ni 4.190127100700358 0.5873403266408713 1.7026983042716597 0.7881058538512621 -1.241041156935398 -0.5321304226580642
Ni 6.015726596151277 5.593376611899002 0.23684047858954704 -0.5010059333391178 0.9871876571812096 0.21580374407031866
Ni 7.9573516283180465 8.666323097711604 11.368900996428623 0.5030653869713079 -0.7190318818717358 -0.6900624912225792
Ni 9.035117259582233 4.965771583072417 5.629632780356047 -0.31328609198920887 -0.128547701865127 0.9672145564933922
Ni 7.6965931122057905 9.054231397813842 2.4488744019672155 0.4617433882940693 -1.571235080423539 -0.7441569590741377
P 8.693390891567551 1.49670043536797 3.530412131411327 -0.6408469487298769 1.7474289234117197 0.40193155834275945
P 1.8895367407773151 3.3562252614716734 1.7094072762026216 -0.6450157353955859 -0.05799894511228722 -0.4981466095134518
P 4.525068402584483 1.0954122385036054 8.31022670245673 0.9215170544562774 -0.19101213894793553 -0.5257630856791398
P 8.550605561327446 1.3513333376416061 12.39195489818398 0.5663654325815343 1.6797559455447781 0.5745878204913266
P 6.095978800224178 7.795642395345322 1.3498766772493587 0.5765248896130394 -0.09305825070926554 -0.26995271930889636
P 1.8810033198227296 3.318359338339861 5.994772608879459 -0.836442850393753 -1.5318403806760006 -0.296094924921903
P 7.033767339566649 4.018897033944968 6.028648115949175 -1.0297358149560651 -0.40403086407394934 0.10991877391003005
P 2.4627162992268827 8.289086103219239 10.263657206160673 0.23735704476106223 1.2165709397081756 1.0246609715363193
