# total energy = -340854.92836764135 ev
CRYSTAL
PRIMVEC
9.36663688586323 0.00000000000000 0.00000000000000
0.00000000000000 9.36663688586323 0.00000000000000
0.00000000000000 0.00000000000000 13.70901987662984
PRIMCOORD
 96 1
Ni 1.9074780804734954 1.186771592627171 0.6540047951704664 0.35831613564565384 -0.44282726811585676 -0.7880696012966879
Ni 7.775076456181806 7.625472536137599 11.347996853622265 0.1300610531858599 -0.1011885931258838 0.747716651400938
Ni 2.3374629010062646 3.4708446649174336 11.540033510868092 0.6147206839564703 0.9531503650908422 1.06335221745893
Ni 8.985751705455158 1.4470423242993715 1.072164236974472 -0.940005085958136 0.6809127064025112 0.5310976105181756
Ni 0.27792777835861054 5.6263606496415335 7.518587972375487 0.5238902941364589 -0.031361030809784696 -1.0074356087969683
Ni 5.1165908184065 4.41417737187287 13.330760212567293 0.6811430772457624 1.9448909317500567 1.1784707904023448
Ni 5.946999354309284 0.7279553279240991 7.513543101893655 0.5329670596267466 -1.2390300400426402 2.5105529105066635
Ni 6.986752218598496 4.345641691747433 2.3764580825695027 2.0278640303091784 0.2945851731455959 -0.8412682968068543
Ni 4.740052026409434 7.3706531869764 8.260424655765746 -1.2953883642277109 -1.4057632518385532 -1.3687223970351716
Ni 8.835014422380315 6.742460968994628 9.378573458546944 -1.055799859032969 -0.4571048610807934 -0.2650457689255823
Ni 7.903530510745183 7.505457821165997 6.675209454749361 1.5111401720141717 -0.6832102441874363 2.0048045773865533
Ni 2.110518662416789 8.472872150863335 10.009627184015162 1.121304882714314 -0.44891281218830426 2.0658142843007066
Ni 1.39418639387053 5.472588576302831 12.93191009214891 -0.027714178085816787 -1.8742987233537913 0.11154962464523369
Ni 5.629432906451858 3.4486176362256664 3.706178599924615 -0.8506597653240834 -1.4897035994069505 3.3386774708427085
Ni 4.504837047687287 5.902058231821674 3.114469431565444 0.9862931703913982 -0.6027228881646459 0.9353213073292215
Ni 8.344034064198667 2.250877712120173 8.241492809835783 0.9611938042206091 -2.9586720231490786 0.0009477086252499807
Ni 6.707766946965845 7.790559506509447 13.83157834918761 0.020858588616564075 -0.12511862157892 -0.262274119717716
Ni 8.19220088463965 5.577316940315747 5.4631404499474225 0.550455189109181 0.12300466055971075 -1.4042624989233103
Ni 2.952494994541373 7.204938651951224 6.685669177859389 -0.956894662624623 2.27932383302021 1.931448690202222
Ni 3.191344228270855 5.645093922875219 5.335975244582523 -0.07117122082818711 -2.252530624086766 -2.7559559655006534
Ni 0.7225161220406987 6.904353916280134 11.522444840628985 0.7222398472860723 1.8214173019737279 -1.8920023112811415
Ni 3.6721149525401438 1.6094223366889524 10.808602224095484 -0.8427857618926453 -2.2385854747605833 2.625661456147749
Ni 6.503874001090418 2.274284937025662 1.251302098935245 -0.39481680167484906 -0.8782621004223843 1.105674889486541
Ni 2.028832224481306 8.176699101038777 13.821844540415388 1.1634784307585704 -0.6971628497127864 -1.543464080957858
P 7.423284318126438 -0.18005298235823888 1.846769161905093 0.5132263866647097 0.3099526567406017 0.24104889179035258
P 8.434206674909008 8.827352513627735 9.59649200609243 1.6616772336661962 -0.3582870821799313 -0.4311696292722703
P 6.283083642758208 4.9424556770627825 11.290556891233141 -0.3005215932346889 -0.4291572268279319 -0.03152635274305539
P 6.608583631830099 6.521324045107595 4.202856683160287 -1.4484124539676473 -0.028275707016241627 0.8685716126074977
P 2.458236313543831 7.557583153938724 2.1911813269700513 -0.13568636979243728 -2.4122789199244132 -0.7224807596522849
P 2.402392426034216 4.4504543554899 3.5041758413184674 0.007855234378360665 0.07526698816411553 0.3316450541123708
P 0.9509477825249287 0.8687761528126934 3.2751943592648285 -1.0790703995251352 1.9344967329999263 -2.2947738490266927
P 4.861246937594759 7.196499312359449 12.650080172975722 -0.40638702301095175 1.3026869547716533 0.8936956613686351
Ni 2.153071292567104 9.377782914416482 5.717689103310394 2.186946410428053 -0.90579038774964 0.4835358015788123
Ni 3.860674714273799 2.7958098972148324 9.1916781481401 0.5684446837080661 2.005704463493004 -3.5178105989648705
Ni 4.064305394323954 7.712394923941896 4.262518411754926 -1.1759806769906391 -0.12415214390059263 2.26886124292599
Ni 1.017216736589089 3.37705653247299 8.027439873222068 0.16154703960928307 -0.9385706675044546 -0.8946297431471303
Ni 2.742588667957934 0.06084098814470007 2.920843256085739 2.2000806338171657 1.7465753171621723 -1.6488086052336444
Ni 2.639742997905004 0.6609810661226905 8.206177779799303 0.498600923442051 1.1216666369291068 -0.8231229933563953
Ni 5.034679581192213 5.711437810032313 6.717131710255363 0.4900278370610593 0.7076058994229812 -0.10898546346248326
Ni 7.5943378360232145 3.9124441148550875 6.880735005387104 -2.200455500658081 3.3056871319596164 1.9064701658800134
Ni 3.247234948963554 5.900924868791036 11.500770443497613 -2.4248513572727854 -1.1928082900709394 1.0375529970076387
Ni 8.413478308075936 5.236118468274027 11.670077083665348 -0.14310168841990195 -1.1505344690033925 -0.12811292832055354
Ni 0.8946542964577057 8.560937268334886 8.297151237940385 -2.60562870586659 -0.7850742661137899 -2.4952990696713866
Ni 4.112225107255719 1.9636872668111671 13.794700964163441 -0.03356678021185187 2.799300908145192 0.1720646513111553
Ni 4.388016355802028 9.113418962542722 9.550072828346682 -2.221386337273478 1.1808793998438374 0.09854292797292062
Ni 0.14154205590809116 5.013595282167701 3.334814874658354 0.36039821498566316 0.29851433299667296 -0.2533361937981379
Ni -0.005542238886185672 0.38209976415648544 4.991632392628529 -1.653019300880882 -0.024337805414416148 0.9756032947777199
Ni 7.0466331264899695 0.9906529551437238 3.871235597059289 0.6070384848208642 0.13947103364585012 -1.5494475522348023
Ni 4.651115811732516 9.266778903870282 0.11536605321866328 1.1195287646504977 -2.0552017988921834 1.4161834187306126
Ni 1.349573103664509 3.3663504668199393 1.5278698416570902 0.407237286826389 -0.8457528149407693 1.4913586185118703
Ni 1.4071498189482399 4.162917344626071 5.672696464321391 -0.5247264168845093 -0.4230058625145554 -0.42163546452958994
Ni 1.5547118122099755 2.135902247648432 10.050164113965533 -1.6922502213570467 -1.5550607846565219 -1.562037730194987
Ni 5.088397242189806 4.94747619428941 9.361203967604672 -1.2399900899630645 -1.4219378047158866 -1.0405640159198208
Ni 4.156491831906917 6.812720110257563 0.9803608948291374 1.267845421612436 0.8179810441441396 -1.0974676710854003
Ni 2.440346037605662 5.370183138170893 1.383939293411704 -0.7948830246740956 1.0621006044400159 1.8471579012729413
Ni 4.99787806592464 6.684931086893982 10.639309633882672 2.775261093587169 2.9462543662110163 -0.4433787697439525
P 9.385463556442295 3.597200592878638 13.70361791637394 -0.9100383643927166 1.4214991745165713 0.2769990846327165
P 9.02849166833781 3.338100690783542 10.262091760730886 -2.1340295078243634 -1.5118497964866866 -0.7650052632780567
P 5.491406149266068 3.9266252026929864 5.933194805263382 -0.2266383727919774 -2.077460096069751 -0.9943836607090164
P 4.399012787190201 9.093336893636211 6.382535780364855 -1.0090109237038882 -0.9660105088829621 -0.07596427134145627
P 8.461032722179645 3.1833919537831554 3.7746140570382507 -0.7762312139008631 -0.11006712656243624 0.4914280598426956
P 4.751451223172132 1.85015426437842 2.563257853282854 -0.5070912203012493 0.48238703268634986 -1.798940203917134
P 1.9226613984293972 1.8890632728847834 6.437659373518636 -1.1359144050973726 3.0108379065193565 0.9276139113826348
P 9.076242781810473 7.85806485660703 13.14315210111391 0.20007656314304895 0.2979450907567643 0.33928945803150595
Ni 7.912812847632474 0.40001533001351997 12.772391587245773 -0.4260667608280662 -1.3242983623938418 1.1422179787178972
Ni 2.81539553438065 2.4338924249766576 4.412590663629976 -0.03147390223856515 -0.315559718514734 -0.8026248734030436
Ni 9.34278916001596 6.091011392293236 0.7825356561541016 -1.1238960404802578 -0.01675305108862276 0.9783101521859215
Ni 8.908074187991684 2.538058790792562 5.984576427088732 2.292678914170877 -1.4016309748377345 -1.7973553759285172
Ni 9.10342476127255 2.2520017085141943 12.17147033177394 1.4046198822627294 0.152983209199672 -0.17595653016639373
Ni 6.9121001247622615 3.4293410980682046 9.336459186990297 -1.218463014524566 0.6984545719410165 1.486271690907266
Ni 7.329674151777714 6.631700491000466 2.203231504977619 -0.20965237975694215 0.863071765835191 -0.7393608232370751
Ni 6.596303971225419 2.080545425242893 5.874575583324197 -0.3295015254068067 0.30530898732100326 -1.1536280203270517
Ni 3.046910691639145 4.472259885533909 7.581238594714561 0.3706324911191617 0.8438990495614822 0.40276716687017733
Ni 4.560783968199687 0.49097942151798535 4.091346874236778 1.4025887107653134 1.9504761391473182 2.317086139370648
Ni 0.3517462415359458 8.507603639438585 1.5404136414143657 -1.4289332621971131 0.1584923119433593 1.5904209093233708
Ni 4.994955675300186 3.1697541308690336 11.558690914345181 -1.0465063495461848 0.6277911439871833 -2.8897181216871846
Ni 5.4723169438409425 8.281923896792385 2.5233091481120207 0.9435755769182137 0.3287890727208144 -0.6420584525394748
Ni 4.472231785624059 4.098100219237521 1.8587781267115466 -0.905374383258144 -1.8738438952045597 -1.2959627486739422
Ni 7.817975651886945 1.20715339390542 10.567666103727769 -1.0527852405763611 0.6907224934040813 -0.8707290252701327
Ni 6.376740642290015 8.314847624500585 9.312454370668654 4.047955358651474 -1.062798401837989 -1.4190787380005365
Ni 1.3076480381675226 8.07153050510487 4.039801336270632 -0.11174065761011723 -2.2237252698192993 -0.7670647169102467
Ni 3.4749472517556104 9.15418256509922 11.955786663725231 -0.5721984943235435 -2.2460452734727383 0.4446962030037955
Ni 6.343114416835551 8.561808365540253 5.454133492176667 -1.2577263309005628 0.03621527357829246 -1.3252568696523692
Ni 6.581504685370808 2.4606060726078924 12.752650463912115 2.1734509470447794 -0.857495300188678 0.063365094520207
Ni 4.2161385738829695 2.0144544372744533 6.568799779463722 -1.0587111191424927 0.9981063609762423 -0.13179114850308918
Ni 5.883146992492269 8.99313261510923 11.32436295611065 -0.492016585356314 1.4033302169170283 2.8932593020712236
Ni 0.9709830182483548 4.782791989292086 9.946085794533825 2.1420117546988915 2.7608878555846323 -0.30711904394654854
Ni 8.35060944310369 7.76465138962726 3.8301488455395094 0.1451948235035048 1.0335335914356005 1.0167383742551328
P 7.929035862252846 0.2970975368586403 6.5547067380100215 -0.5480949164071205 1.4609134146481357 0.9202050205130733
P 0.7788395813450956 7.218173709490823 5.944203413279157 -0.36105770294653305 -0.4809485004676105 0.7361150626062677
P 2.915871445369519 4.107710388406402 13.451125239748366 1.816115687255156 -1.2835360928748152 0.6796734346787715
P 1.631902264569374 0.8794812818020825 11.871352991270028 0.1324418947132106 0.059097834603420794 0.493152241622654
P 2.855334872914866 6.412521194166354 9.309398037140577 0.18839989813606908 -0.17046953890989353 -0.2392033539411816
P 6.618343667184849 5.881554664267406 8.207247449700947 1.6798670172013457 0.7357021434385651 0.09318629164669757
P 5.708899451509149 1.431212708416908 9.818893425922738 0.21303903684098796 1.061091189338895 -0.3041121387994246
P 7.224102790469284 5.442671538948637 0.4960786184921943 -0.4959848259754425 -0.7337907853484653 -1.387777871004726
