# total energy = -340874.2408533117 ev
CRYSTAL
PRIMVEC
9.23826717086992 0.00000000000000 0.00000000000000
0.00000000000000 9.23826717086992 0.00000000000000
0.00000000000000 0.00000000000000 13.52113782292136
PRIMCOORD
 96 1
Ni 8.764473449355359 2.2101260971483283 1.6843689189243607 0.021207230205234445 -0.6858476818102833 -1.1671797908695576
Ni 4.750815872038139 6.205593526305217 12.209681967961806 -0.20658916745058614 -1.4375351449335112 0.20298859458352134
Ni 3.6933945675283884 1.173740327103318 6.238721028736975 -0.7417984861442902 0.42428524344761126 -0.6016859622596992
Ni 2.4867198177782543 5.946552513397298 12.552253545438585 -0.10199977617326948 0.7435584062581904 -0.5150171600165453
Ni 5.340032555464214 8.325600326701878 0.2525991691739437 0.517919935485637 -0.6463161993745643 1.2611335568098991
Ni 1.4747045966651657 1.6330484968521042 9.718913017660102 0.6831403101814493 -0.8256550157496296 -0.06207851449829955
Ni 1.2274331361982123 4.227948423801248 4.8998577609591365 0.38748375834854554 0.24740620146694814 -0.09238153635721509
Ni 2.4782483267355806 1.4888206689805474 4.078407668450256 1.1364394243629072 -0.6771128730404469 0.8076009864613963
Ni 7.435696521730619 8.653826722836168 4.675109195979683 -0.6865418796638306 0.23836054632491208 -0.495081854545199
Ni 5.97363911289252 3.4101677710329885 12.485526465120019 -0.3767920829626543 0.8329039840025592 -0.2641440830469193
Ni 8.754209734471598 5.338138710683682 7.335392959193299 -0.10369181916371174 0.4887338008399841 -0.3611109247819716
Ni 3.1658248412754433 8.23626628266409 12.632583050414985 -0.2660672682115612 0.3887605681784401 -0.2556938953970371
Ni 5.748992168852509 6.9565630305231885 4.533867176074312 -0.23661116773397312 -1.259291618505154 -1.0614213189848043
Ni 8.700941885668922 9.255819929830418 10.489360484489167 1.1766946723385283 -1.0850584987877698 -1.09158884370712
Ni 7.626411310263825 4.894618739617479 2.709852609820561 -0.46833852501308376 -1.7077442032275878 0.1672680012534603
Ni 9.250738882858258 8.463167363906294 6.271698871239736 0.02305071117187643 -0.1319778105925985 0.19145385447104446
Ni 0.5851693985560689 3.5104399234617536 8.596442302159318 -0.957196510135758 0.04643412309282326 0.19352667783967314
Ni 8.275057766729724 4.292403814209898 12.461405349403094 0.5325988776540505 -0.4781472835733894 0.6918090416000409
Ni 1.109663705650774 8.363523413648632 0.7677886935225413 -1.784774196829397 0.9303043137306043 -0.8247512729884376
Ni 7.592931829850904 7.07855434919113 2.5768040091144773 -1.5169318389952842 0.9998266861014588 -1.0749404365171615
Ni 6.437169170761809 3.1165756387143837 1.3613889347455062 1.063628096828136 2.211663967779391 1.1275704040080516
Ni 4.022960512409884 7.089797320400435 2.604563154463469 0.09401650085747679 0.852234566010371 -1.0829329678043351
Ni 1.367522220354264 5.799045100661892 9.320918303637727 -1.1036048943313896 0.02417402614304224 -0.18853565238298498
Ni 0.9199143160422782 6.269032707319436 2.9794233997082396 0.03197218203122235 -1.3208505130545576 -0.03976133905833798
P 5.561714015725927 9.16499852476987 6.342238584440867 0.5869106037227376 -0.36616442804547905 -0.4772941915444748
P 3.541351165586928 3.282254723075676 4.905738841872731 -0.25179558878389535 0.11393432282732636 -0.2959992798843031
P 1.59333318606426 4.7167174277213375 6.978002277265535 -0.09238436457069252 -0.11803497525926122 0.532923607983321
P 8.395330767694352 7.672731982115477 13.203147672319622 -0.6444917445713159 -0.4071907498591697 0.1557358322441447
P 5.091597073327275 8.214473210287137 11.706479095333895 0.12885469158258456 1.0110693488948135 -1.2989035764698211
P 3.4348616593176846 6.8403456288690645 4.721000288405507 0.658348190838434 1.8694984737516707 1.8179841079224626
P 3.8221390595356914 2.3169019897014573 9.781975277371657 -1.1165056615534577 0.19765818350954345 -1.2833481452337252
P 8.590738595976388 6.792352830650211 4.455728988082997 -0.37373581263483374 -0.26054376729017065 1.6737485630084334
Ni 7.323063567758672 3.12685783013259 7.753966837279642 0.25866017711421263 -0.259926702531462 0.9703698142929225
Ni 0.16351363452443005 1.8853917660239952 11.831441440740464 -1.5999481320875153 1.0311954302207273 0.4503001794541342
Ni 7.082027937666642 7.2521044372256585 10.886598584426052 0.7673719637380204 0.00993962771121514 0.5645790301050728
Ni 2.448741301228166 2.7445598559473 11.618226852387815 -0.028174662662003087 -0.7234413237933413 0.9428554109227375
Ni 4.063498028980495 2.3909467014866563 2.2931716526880273 0.13261492995596516 0.10963235301786281 1.7768711399322368
Ni 9.129532816904197 1.453678300467647 4.0775291092374335 0.30482227749257185 0.034191815390360474 0.4845364749291849
Ni 1.4613922535981076 4.197674622114398 13.350717905272138 -0.806650706732985 -1.9601758829335856 0.6255982501009226
Ni 7.336200383748511 4.982317610356954 5.126890949422617 1.3428146760304744 0.8014524503614971 1.435941060973514
Ni 2.902063073817026 8.287898958168453 6.715976380218152 -0.3153306332230634 -1.0931158218746078 -0.3429910752528093
Ni 5.4051069097767455 4.207079178146505 4.029042063722198 -0.706469471825693 1.3057828200881576 -1.300962515881379
Ni 7.387888488856207 1.2790288586336875 6.118152403221239 -0.7976711289421938 -0.17560248926108468 -0.044632036887077974
Ni 3.9652490570733727 4.914370154938347 0.7534869320359953 0.4883720466251911 1.4838594819213478 0.9363176098042197
Ni 2.845007535453284 5.221302345125676 3.6260309705982183 1.7426533563999471 -1.6936149629150572 -0.8708406111473325
Ni 2.640703255836357 2.8066594882143128 7.578976503385188 -0.6315850638119768 -0.11383327847308781 0.5390806287236523
Ni 9.200639759712764 2.915791138909079 6.147331470242269 -0.6511467879939883 -0.23657491517939902 0.3034084278641807
Ni 1.8329553612713079 1.5181521674107417 13.607672917441304 -0.7585019149419002 0.019436254347740718 -0.17000519767896527
Ni 0.2072660680883355 6.089727178805534 0.7435290037972846 -0.3302895685257409 0.24151271880064856 -0.7920077600088296
Ni 4.789034583536003 1.655811587287379 11.499240742047224 -0.05396051337685546 -0.8005559066891568 0.6879469875414733
Ni 3.4392498362481856 0.02710507602966608 9.68846276506931 -0.043354712836551144 0.5367504379285788 0.365722455412054
Ni 9.419337259661738 8.396300785752674 3.1059811938640696 -3.433194822596003 2.051736466051402 -2.1622846460153147
Ni 1.7390945662946864 3.1740191843014536 2.9492438283470555 -1.4952535826909021 1.1701460725867332 -2.7554162909470996
Ni 3.3727712653178936 4.442202317216386 10.557114860122832 -0.3695749963889248 1.6860088684330254 -0.02675181417254748
Ni 4.638173679798971 6.169157800381222 6.619327476193899 -0.9990160172747052 -0.28832993626450343 -1.3566143009177283
Ni 5.127164402132392 1.3097553354144202 8.12731293052671 0.7265353893376326 -0.12299026238200754 0.46348376802394375
P 3.3777045000144996 2.9887549734292915 0.3821603240036809 -0.10964880807809503 -0.7649702962750632 -1.6146404439923676
P 3.064083804358363 7.329410257340262 8.787089651341804 0.23283575985194097 -0.7370740840854274 -0.6609108093592876
P 6.610737735330782 5.164080517951938 11.322681750378454 -0.40113888723813496 -0.5772707666401283 -0.5215863285936307
P 7.439493449558905 1.4370771342695183 9.4051814627973 -0.07256193052812664 0.5818553006870173 -0.5733783735642577
P 7.309926751768835 1.799817696745605 13.280217916620064 1.0160236075762954 1.5162468971131178 0.46310684430049914
P 6.220383992127814 4.887505273856456 7.265988629033765 0.8056382063080706 1.009386818986068 0.11371166529355901
P 0.11103011460890995 4.193822264682779 1.6910620435267782 1.3880902600388225 0.6679515182561528 0.11853016972812488
P 8.770940236410835 7.121272096826159 9.214601552965537 -0.5257785122981073 0.30720594723339995 0.2443900403484436
Ni 6.921614665621952 7.008990197008654 6.64497660130936 0.7734449094049776 0.17979493007587743 -0.09608341068883453
Ni 7.1198309271395095 5.655925864856989 9.152539797594134 0.021950793239478326 -0.42304751438576815 -0.7229888096369548
Ni 4.89423073239415 6.59675099875651 9.954505460704867 -0.8261453251224868 -0.9989214006783701 0.5906135064956215
Ni 5.369964541263845 2.0169077381979306 4.724961657390347 0.39894907867566776 -1.081029323023719 0.20960121480403257
Ni 5.200571673479266 7.768070899847635 8.172487133416098 -0.16048157445924618 2.2662538872101297 -1.4736845982708748
Ni 1.1713291393583476 8.419183973661836 8.654812445948766 -0.7510665417097775 0.6902728074611725 -0.9293208667714125
Ni 4.4838853789225395 8.975706429388868 4.20481672650381 -0.02518164147195018 0.10446880653905236 0.2046891222143959
Ni 6.530290904360662 6.149295525853689 0.09861480728911845 1.6273627766550425 -0.4993324022914369 1.1625667175775785
Ni 5.852645527084566 0.06735528248967022 10.06944798148234 0.27091534033248177 -0.21552915025269334 0.35841126646262145
Ni 4.8296552445116125 3.3240578822557163 6.940251022089112 -0.020690181359499852 0.48444854320106884 -1.1622183330992242
Ni 0.1542716719954328 6.272977447423276 11.737794049736674 -0.25815238423985865 0.07069016742671051 -0.6246461706002984
Ni 6.965016045031417 1.2493185912473868 2.911208958366913 -0.9640456718471073 0.3724091234036102 1.3352507476402873
Ni 7.67305532146825 -0.07064041031385197 1.1852059405526767 0.07512120661487062 -0.42412943459603725 -0.6934272939297541
Ni 3.338044618829988 5.188580402624969 8.27131257319788 0.8161391058393945 -0.5814737489778825 -0.2569851034046348
Ni -0.12111830241545234 1.2093538472445458 7.764716485019288 0.9749258090947209 0.1718419937773879 0.8324342434549923
Ni 7.342657932536765 8.93237895611718 8.28617232602464 0.6240077656853511 -1.7652104157648567 -1.4485957736230473
Ni 1.8966624520349675 7.534435121800513 10.735594487547077 0.37189567410230145 0.6742059838062969 0.7697990851222742
Ni 7.747746711958997 3.203988123169973 10.371618768743394 0.43339260506551813 1.3130166188324353 0.37473468621299333
Ni 3.2228711413719626 9.232881312317923 1.1896883478088438 0.7719953214426447 0.24021379748356694 2.0620568741408034
Ni 1.9413387123210837 8.524500219993872 4.090846995264825 3.478287601169584 -0.7743903040373825 2.2910022977994027
Ni 5.166002077534136 1.6263692296505197 0.4408076158097917 -1.0432708733280227 -1.8703438524711014 -2.1264344690859245
Ni 1.319538660402633 6.498899272339937 5.578483318387498 0.1229583807028076 0.1412576932326277 0.05836352754055755
Ni 5.368236985293311 3.908378284054073 9.506522482743662 0.719918141131431 -0.007852149054567121 -0.4287589629482487
Ni 7.214005823201683 9.213092943928167 12.253841809110208 -1.089511135242485 0.12507491282517816 0.139488774257663
P 2.4461545864059757 6.794339058102964 1.0646585630515506 0.38885261367161417 -0.818609678867074 0.2050187376396727
P 1.2933204580262894 0.984817762411201 2.113353400343298 0.1682625039562457 -0.6189894865351534 1.6118263715823402
P 1.2871400572546987 0.9275405056341288 5.841861697756198 0.32568832230830363 -0.03899566453690703 0.8520620449882487
P 5.159285857263662 0.23854684090239459 2.1132046642410223 0.6467088068272926 -0.03558021109745486 1.5099322677489997
P 5.552060026478824 5.612108763422529 2.1609886776206557 1.2225315281669848 -0.2638687178983456 0.18467102722125617
P 7.387010853470108 2.9417229550015374 4.4832581005781575 0.08669862703982488 -1.0636913459659034 -0.21576774862606066
P 1.4848759288767073 0.17459863136423792 11.822544989405577 -0.08935766192922674 0.34138696399048307 -0.7888129072206157
P 0.8532075599116001 4.206118398355406 10.69793746269632 -0.18169883196680967 -0.9244897639313562 1.6315804142808157
