# total energy = -340896.09982559126 ev
CRYSTAL
PRIMVEC
9.02217186700253 0.00000000000000 0.00000000000000

0.00000000000000 9.02217186700253 0.00000000000000

0.00000000000000 0.00000000000000 13.20486050247277

PRIMCOORD
 96 1
Ni 6.3110092357455025 1.9915271560696997 11.40143319661027 0.0871377714597725 -0.016962081775635303 0.1568511767955105
Ni 4.624900642432711 0.059200785278329185 5.817652517038568 -0.33530630501404185 0.015211674743431866 0.6894811647978126
Ni 2.773677281395288 1.5033735238906487 4.799913634935805 -0.3090468570968806 0.5973163724370939 0.712154180915296
Ni 3.2330140965636587 4.406428750161692 4.698553142641443 0.7712309324727944 -0.8277003283144325 0.04876971320453536
Ni 5.138830619696143 4.537656240274512 2.7307118944296453 -0.4186015627992726 0.061457335974532866 -0.08350248870003038
Ni 7.283355766644716 5.890846690915383 2.6266844481251526 -0.2650048883853178 0.10142179218261242 -0.872229263964743
Ni 4.986969422475172 4.6617471924238245 11.385243811374215 -0.14520099415109186 0.3192150558791341 -0.18404522071179916
Ni 5.3421272188513305 7.6414006580250735 12.383518259845532 0.564027528476977 0.7936553229145816 -0.08061411140864182
Ni 1.7075633180627605 6.6732855257413926 0.2774958429803402 0.9233543647753323 0.1517861035677773 0.15375248326552873
Ni 2.735125540917317 1.6841507820130686 0.41497479599444514 0.783662730478244 -0.7535486847016829 0.6816783809239422
Ni 0.6432718334516349 9.016000722556472 4.66669044040133 -0.647223541680182 0.12083079283684353 0.14335571341223696
Ni 8.543058472180805 2.6052152879001627 1.3869721688415884 1.2895905265990113 -0.96896933440097 -0.14303818217181818
Ni 6.792423305524121 0.7118565797108058 4.798197617842683 0.42826839646507536 -0.07928716506710215 0.07499805077344504
Ni 0.8457816992181773 7.463420273187974 2.5939889994197656 0.06989646788082157 0.1875840871029931 -0.588193069979587
Ni 7.52690929676473 3.6994694053517616 3.8494413597793575 0.43225257792380395 0.5537467153762592 0.04434253067111718
Ni 7.445285707692836 3.9049583922757636 12.545291215102798 1.9221713786653543 -0.6918231826674279 -0.3531579884834821
Ni 7.891991482217827 8.845373407808196 7.074464518701701 0.37782669487475573 0.6123786660868551 0.09032851048292831
Ni 6.705521745897673 0.5841134523811798 0.27128588206974175 0.45912291995208676 0.2897460998857397 0.13988163882070748
Ni 1.6967637783126714 6.3133730447801915 9.077100675017252 0.672122618914707 0.6871319478393457 0.15362315677651608
Ni 0.2235937792519086 5.062241402537824 1.3462884891464528 -0.21543376232540964 -0.8978875879627956 0.36243658557193065
Ni 6.429127510104873 2.0214266337069557 7.045294934770194 1.00460765242987 0.21495553713741045 -0.2584596310676323
Ni 3.4612750453332954 4.231976034532849 0.443679738073713 0.3686658543110941 0.5078352975561253 -0.2622036714910968
Ni 5.901592097634143 5.726868716848657 4.8847022019060535 0.6235650217209777 -0.919472513222423 -0.5359400262121415
Ni 5.296285563487752 2.8904332077995516 9.269032946462154 -0.3642432997633662 -0.2447229982078301 -0.13869584604272242
P 0.19203061311848177 5.429876862635262 12.379820973805776 0.15376199634722554 0.8126840574112584 -0.1157988868398909
P 3.8265376742241557 6.120343677233695 12.699708393619673 0.17298330647068272 0.2526527945778681 -0.799202992205688
P 2.485427911741488 8.513158994543549 1.4638780642331797 -1.609852278575105 1.34278176591001 -0.629665992412393
P 6.472966243309287 7.740626504450706 5.766351545465484 0.00836302725271463 -0.3183622209605356 -0.10122638834235469
P 4.670083679248456 0.9734743023852297 12.636523417235548 0.4557360057577248 0.3721514988668494 -0.18511145719278443
P 3.988097706224863 6.269182446872142 8.147966738593416 -0.21934518156467384 -1.3073871884608 0.2335315003673849
P 4.841974098061069 0.8700657770722625 3.7779505719550204 0.8604515546035246 1.9278398898050413 -0.6736979338216268
P 0.2809405082072275 5.555276029708352 3.5583933124058604 0.37522113893110864 -1.0024360986998477 -0.13583729354800475
Ni 1.4193229705808488 1.1653127432424943 2.608184484668546 0.007894829367044469 0.19024852130903364 -0.31156679530525694
Ni 1.9721745973696654 6.56086024184343 4.647661777672079 -0.8737325879831468 0.3189900843525216 0.5438119727610505
Ni 6.065389628263107 5.721969677513404 9.111062836655734 -0.3519529124317874 0.44473682643374374 1.6266593228301147
Ni 8.517751280034606 2.329930779249603 10.340039633609614 0.38061197092937676 0.7825306737563298 0.0798972878472753
Ni 2.43466917269888 5.126912330631925 6.92952783840487 -0.702402500845171 0.14032489700571316 0.5436929306846829
Ni 0.554555012841295 8.926004557972396 9.204144584025547 -0.43360574951758873 0.4088467974053539 -0.27524584938703567
Ni 1.414261532151609 1.125570076075291 11.496376218040607 -0.3711400268831995 0.45106816796841026 -0.6845765284073436
Ni 3.9044531506500286 6.947252797296286 1.5551102663659297 1.596420064329599 -0.8539595191212777 -0.22174350659352135
Ni 5.6982594097914046 7.792810746651637 7.836662110896695 -0.44670474879339195 0.5247773247271027 0.45119440913362935
Ni 5.097969203214811 2.663669939563344 5.151546468755271 -0.052321692221851825 0.6426480064943577 -1.0179537347194727
Ni 0.8530048500318125 7.507123673814066 6.941650028553759 -0.09934254105608052 -0.9649836102803445 0.047151460874822027
Ni 5.235719723602748 4.48595919535554 7.340832414875224 -0.882344498021874 -0.5980550503753312 -1.2529983292972742
Ni 8.210023041274338 7.053127984403467 8.999905167908052 -0.6414593855028953 -0.23967438004032915 0.2052586215646207
Ni 4.651904002893876 0.3786641630134854 10.42144759277338 -1.4885828555389462 -0.5321011120820255 0.23496874703454373
Ni 8.190643416058638 7.118755262717709 4.490841092564206 -0.32513399246673036 0.7589032641453768 1.0415901431914898
Ni 7.173050693140463 6.006610178411954 6.972694419803617 1.3755178226904503 -0.37017123521202694 -0.3920952889786279
Ni 2.4946034605517142 5.319580811302898 2.4179285327604587 -0.9567193133890234 -0.6127669026642092 1.0953233710488877
Ni 2.3125901648806213 5.258879638839573 11.382233112615147 -0.6584587482743691 -0.22669725105437083 -0.05466782385652521
Ni 1.0045556845398305 3.228602254510364 3.892607941178105 0.46748106210879486 0.5322504931756963 -0.6840268265514606
Ni 3.7635629144450227 2.565707197202051 2.8481038839520223 -0.4092599736833726 0.3185997908926384 -0.833817496955764
Ni 1.1420716284586767 3.3427778397546226 8.215799937934307 -0.19476774933562588 -0.12013505232139955 0.2960152207239031
Ni 3.594442302402064 2.6045025363210006 7.11240184927409 0.2893925732010629 0.24161196338267418 0.18170885926913866
Ni 4.003525620153562 6.622183944167036 5.965375244014453 0.21957349552539607 1.2363509505485806 0.85302826555626
Ni 0.7213325668449067 7.394590123853446 11.264010181061874 0.35135358828489166 -0.1389511565866381 -0.1352073732734897
P 0.21708067336586903 5.334647838356071 7.82979533587264 -0.38416960637364805 1.461845953764734 0.41896665944817524
P 8.680466150036994 1.642865323452995 8.318666230716797 -1.0630807089650982 -0.4276425899556183 -2.158953267649237
P 1.6317770742024857 3.283420970902629 10.510052538452308 1.525576916264792 -0.8398217941683149 -0.6515895319583617
P 4.01148317575889 6.311731009496552 3.797229148845572 0.35137492844113033 -0.9193817532808295 -1.104049438067976
P 6.850805779812197 4.003399309747127 10.415531754666336 -0.39395548211581827 0.28914086220157303 -0.5838805586471622
P 6.174621063312672 7.836505125105841 10.190336539904283 1.0275748027490046 -1.235216322723505 0.2935914417737589
P 2.403172770637426 8.51503560629628 5.780599359311215 0.7776126676294222 -0.6682201985365072 0.0610798980304561
P 6.872846945734895 3.9143053623518647 1.4638113001612076 -0.3031654586154392 1.3862107836279225 1.0481695961812205
Ni 5.355786787089955 3.004617815215699 0.19901828524583687 -0.28387575714789176 -0.9497184565911578 0.6115196605206693
Ni 1.5040140980947057 1.0295741671856093 7.001732280025558 -0.29609775313538034 0.6833102601004103 0.7328816432706347
Ni 6.6691533710166295 0.8060020411462323 9.312054270893503 1.3524825381375418 -0.3843997201065832 -1.3559913226217488
Ni 2.791026917936158 1.6001002287032686 9.249912257579643 -0.25181255806475983 0.19265275987515207 0.3576628183323711
Ni 6.437924127695798 2.0691178343076 2.510507745156106 -1.2633357066675404 -1.2684630005917767 0.19598362402059796
Ni 3.896432439841483 6.863283443533478 10.258723700599104 0.6687925261002095 0.24806903186192764 0.587791206555478
Ni 8.26875738026605 7.212594872526128 0.13863649766735173 -0.8061352005491472 0.019840174654378734 0.79212063143761
Ni 7.586437586882599 3.7570128176542417 8.312908280617794 0.4907305195550387 0.10905179792404444 -0.3271523084483398
Ni 2.986393028001681 8.580247864703669 12.402758041396963 0.2343347129949706 -0.9512518625165487 -0.26908291510943333
Ni -0.04675379694146786 4.895132734825919 10.250378191602586 0.35979631973560616 -0.5956060746142066 -0.6232392629504427
Ni 8.651640310854425 2.1259124063433656 5.857583747598234 -0.0884426063141251 0.8037407321750417 -0.0017969439994227118
Ni 3.8198973557144935 2.590328704284752 11.404959061384153 -1.2166048782699046 0.19216707848798517 -0.2313319216129048
Ni 1.3115801938928247 3.3617424450634683 12.753822478387477 -1.7701464196138934 0.44495511309213687 -0.8658513854628572
Ni 3.219381594840697 8.438004302715443 8.120460843158082 0.1954123248981602 -0.567506488164513 -0.8910574524148396
Ni 5.8140499638036385 7.748241217524285 3.5121628014339037 -0.7241897719235915 0.28966896679090115 -0.03494591994756562
Ni 3.295727213358036 8.510723008133755 3.5244564128486666 -1.0457005658154377 -1.3887289220640857 0.4693754509180303
Ni 3.370484929623064 4.3497875550480245 9.300566339428348 -0.02414085891226165 -0.029223415641491602 -0.2080546962525191
Ni 7.235114213558896 6.097652914935052 11.400852168740677 -0.47025348264760947 0.7353468169816756 -0.6026496117245491
Ni 0.5350256195722533 9.160391561454071 0.4781733056364038 0.20377535215087486 0.3527684663545473 -0.30067277410057247
Ni 4.6863686995065255 0.16353227877545198 1.5846488571276607 0.03930985334321617 1.129720360471519 -0.21428576476389546
Ni 6.007774038585522 5.580565177510775 0.31585360676271623 -0.614915830686412 0.8814104162433788 0.9560086604752438
Ni 7.8633099977854695 8.840420235441615 11.355651989798343 -0.0909913408779078 -0.3396730666231698 -0.38465605909176337
Ni 0.13002573681732243 4.739373959349277 5.689221900211067 -0.4208682473462622 0.21210135551806697 0.12680217992893
Ni 7.8551539543986015 8.814328114341148 2.4042879110827986 0.9763527713492347 0.5450674424347065 0.6851977069311102
P 8.394219702542358 1.6069209906506932 3.606604190107261 0.8518527571909201 0.08481503686386684 -0.3680374766984758
P 1.9026136521121986 3.368878983026977 1.6192723439655403 -0.6107907527744448 -1.2785136999595594 1.725689989072731
P 4.878721404161413 0.9610237051796132 7.9414555395944895 -1.19744450329137 0.04735226403171845 1.334453705660289
P 8.373946882309735 1.6762563816109566 12.409888263840152 0.41159607801571696 -0.22331573617664766 1.353586826945314
P 6.41126360976638 7.6760638424192615 1.348929278858108 -0.5932820544667201 -1.2440891997331025 -0.719485938690019
P 1.8063019672064329 3.2245873880201468 6.05457384860362 -0.044157925464136855 -1.125807655680674 -1.174832679429125
P 6.875400220379234 3.95856813763502 5.886000882394271 -0.15350077226603887 -0.24284994955483338 0.789163348581499
P 2.3573401374457355 8.464917441457729 10.112744057232007 0.5694055049594388 0.34197831771757875 1.6505844661871443
