# total energy = -340893.0462945724 ev
CRYSTAL
PRIMVEC
9.03495360396630 0.00000000000000 0.00000000000000

0.00000000000000 9.03495360396630 0.00000000000000

0.00000000000000 0.00000000000000 13.22356786651517

PRIMCOORD
 96 1
Ni 6.4020055161835465 2.064757954073665 11.346641388797664 -0.6002510295853856 -0.27372349920523825 0.3084243930215333
Ni 4.686466589987426 0.5622695590446776 6.201628314479412 -0.25198147954245637 -0.7832968624983929 -0.420715780928798
Ni 2.934092157823781 1.7084464875931018 4.850735599491606 -0.13160037264852176 -0.11052683980767417 -0.8946839934238334
Ni 3.838238037927311 4.397257724149688 4.966177009069297 -1.7218950408066733 0.08603039732820668 -0.4322996291116555
Ni 5.370801083119187 4.58943118795377 2.570463282394702 -0.8833392578349755 -0.006099428029518528 0.38823606313353787
Ni 7.20524903409789 6.251718097428628 2.618491288924544 0.2558545893446174 -0.5543930907110065 -0.4301859252027624
Ni 4.841262450605918 4.628010439972737 11.18610742912595 1.6019553923255314 0.6081391740842107 0.13927948646033433
Ni 5.537143614482467 7.853515992321054 12.14062407923673 -0.24034800906858608 0.4328902115078029 0.8932107513124165
Ni 1.959238730577291 6.310607925217768 0.2542716036288039 -0.4269453067782776 1.7776944071644802 0.9259061846629085
Ni 2.7087784840886515 1.5237991401664903 0.550377753071056 -0.4004462320464845 0.2744302954642758 -0.03592859557580909
Ni 0.5273051919748414 8.978765257766074 4.694233939626935 0.17000031258295883 -0.05932280613003332 0.26228131880656763
Ni 8.63200373727709 2.154438903848903 1.3170794010109945 0.7042102434778711 0.7104582812701119 0.48533171713697065
Ni 6.731645799535306 0.9381895853980194 4.775069669794077 0.18004766951663187 -1.6212906023190334 0.9525649249010175
Ni 0.5190246569688968 7.3887670123202 2.475623374094211 0.0795761570624307 0.12987284843445376 0.17971779698103887
Ni 7.622438018167165 4.1544704500855945 3.6674638618063495 0.748342200800079 -0.9407154817615991 0.5475968937247794
Ni 7.71023066263281 3.933448379326814 12.398642478137726 -0.31285620354064186 -1.2817828576291344 0.4339775310347107
Ni 7.939664275225234 8.796457963330777 6.884758448291706 0.6139357261613299 -0.2732067074698198 -0.27635605173207883
Ni 6.831382652705651 0.6347831934191572 0.45897293414237067 -0.9525484698407853 0.20000971446085553 -0.8545169342866445
Ni 1.9870754227249345 6.343495156447052 9.319124610109709 -2.000479724758955 0.7210594538247259 -0.6950072368223643
Ni 0.36624268751551614 4.948471210431928 1.4075427777709735 -1.4655241739472697 -0.9089574726237121 0.20263661056074136
Ni 6.529452572150653 1.9655270583068463 7.214157498381426 -1.134231360967995 0.36949349241871204 -1.0751366116883676
Ni 3.6131954128012147 4.567584670065747 0.7497105141350511 -0.3143662124272651 -0.9616530032452147 -0.8383830048392593
Ni 5.893961038366558 5.634206121377025 4.786310055610658 0.4023876720435715 1.373583581782215 -0.3814136408950657
Ni 5.106935262225995 2.989485458556401 9.322853335474633 0.4243441217100047 -0.61494385571087 -0.5695937097108448
P 0.09636862245543486 5.51285765911315 12.48804695833175 1.6595121076940773 0.23755733369732634 0.23294554595692785
P 4.023463622386525 6.202604089471929 12.470181241015052 -0.5676188453726612 0.22597682794857854 0.07766762718580818
P 2.186838247581928 8.331401794906352 1.5185281482161705 0.9650016080024735 0.155894469309196 -1.1047135540145363
P 6.343449981678879 7.891535077214687 5.798335992595236 -0.8498946050232845 -0.6064836407586587 -0.37135625665906363
P 4.739474662960559 1.2280218630365314 12.892224705672099 0.15927521285597085 -0.6246343435257565 -1.003534216860033
P 4.03496511836314 5.989216554534232 8.171966485596586 0.31766699466572385 1.0917024864668488 -0.07114936645131618
P 4.733267649813714 0.9635958750180043 3.845902389095388 0.3452587882410635 0.4118418754779359 -0.3401842019316335
P 0.3071694501675975 5.554246781712422 3.628904486685378 0.4480651194760283 -0.053271714839946964 0.22381195908677584
Ni 1.5707989689727357 0.97749163370774 2.6882320960286203 -1.101308127877413 1.5485360961641266 -0.017213278554492936
Ni 2.0523077879654363 6.229943859169679 4.85449052622207 -0.8563727565484606 0.6384319115304811 -0.4886648952752615
Ni 5.98031712520433 5.813170482967587 9.10020858704311 0.47694220752169475 -1.7528210409615683 0.23962655752152923
Ni 8.568235034525365 2.130966094306684 10.029150897396303 0.7757697008834123 1.196544874295236 0.9353115371372085
Ni 2.5413156184747048 5.1659786842269195 6.975432339471367 -1.187763271447864 -0.8502324479786776 0.14614510323191604
Ni 0.4075450745598969 -0.061458465107405116 9.026367717979735 0.7787380394831169 -0.7307067471065029 0.48642546442178164
Ni 1.465415269780878 1.0640826293400072 11.444032768004513 -0.7923345472206289 0.8240457622809808 -0.23425757990013205
Ni 4.001382195704006 6.961476950087644 1.4952017049228288 0.5060501806312446 -0.02046392428130669 0.22556570855308897
Ni 5.289603954806668 7.831226761704944 7.797012295786764 1.1124420330070453 0.9620769781565109 1.782836356376736
Ni 5.439385416158058 2.847961944826869 4.766223546690618 0.20924228880271706 0.6282616558656986 0.35854522093732444
Ni 0.7007528108762274 7.081533413981797 6.924216801299302 -0.6218444394854451 1.0831643670888509 -0.18579768462653162
Ni 5.329836603340734 4.623258054361034 6.911006795590418 -0.6384182846837262 -0.9008615829894548 1.1125428202509677
Ni 8.180852362496037 6.87708144818854 9.148236593572951 0.8634299205055582 0.24679864978993626 0.251498883479083
Ni 4.255824559956501 0.3352735769428198 10.40745073053695 1.0417629213239283 0.5419111561939118 0.5596093448046234
Ni 8.124392937234555 7.066580565716834 4.6327709570427125 -0.2423976925087632 0.4295709173265828 1.0651905562192494
Ni 7.254498566359105 6.196315761742373 6.977759743527593 0.3944360212966626 -0.2012533570599695 -0.6971908747372445
Ni 2.413778212971253 5.174552855225983 2.6742017165297325 -0.3295007540758583 -0.15377176653923838 0.3005892132478307
Ni 2.2541396172047117 5.112817017042001 11.542786618219434 0.5716184534503574 -0.05323803338853412 -0.9779928780558189
Ni 1.0508825620801217 3.306982764223502 3.858451939693596 -0.2828182624176549 -0.2522948970178171 -0.18351223102646458
Ni 3.91121335843251 2.578042704998616 2.5734520450569676 -0.9449691148316306 0.7416699309862259 -0.08608747581838723
Ni 1.238231360643424 3.242048552452936 8.011458727290414 -1.0925252394784604 0.24354697562185798 0.6477580740274135
Ni 3.7138809361031746 2.6888744812320278 7.050052925033392 0.49222561604332643 0.3928162263050525 0.7735693507979838
Ni 3.974792327157913 6.910718580569481 6.13455823966967 0.7739894690545379 0.3055614696514415 -1.3416723348959152
Ni 0.6209615213492238 7.235073416045106 11.334448718868014 0.5029147203260566 0.7556495330947696 -0.34961860787165594
P 0.4068286027366876 5.356887254522182 8.000006923558788 -0.3507455223872476 -0.46704011791663436 1.5495115727035185
P 8.57452336225492 1.564375116938664 7.934101454272523 0.7520193925413501 0.8909594933843946 -0.7891011278849959
P 1.738044995699457 3.225053804666595 10.402915183812473 0.11341033200305631 -1.3106355201947686 0.8311042117896591
P 3.9613573511035325 6.279663209019884 3.73940016264359 0.4705409319810412 -0.6275317196782096 0.013042692116571086
P 6.924677583934657 3.974060495913525 10.116003003188604 -0.6338342648574697 0.12599485353628626 1.6235657715064553
P 6.30357873129019 7.694365284050771 10.053032086842798 -0.05333599241897911 0.797881188070471 0.3207458907013637
P 2.191283444770062 8.182849087249243 5.868883621058866 0.566912820444572 1.1480703237336163 -0.5415982529391834
P 7.275604218049107 4.052005040917654 1.4569594566744255 -1.0801474346393978 0.3310606423638105 -0.32768889767810017
Ni 5.489990191464437 3.1951119683221316 0.4171293533752881 -0.0006736290282569043 -0.6693085465046795 -0.7294258235115502
Ni 1.6864463754932926 1.0698740346196693 6.833688372873155 -1.2179482796716765 0.564061467038706 -0.16106881442128387
Ni 7.030747939602731 0.5937563724606262 9.12875813703251 -2.2167992321234276 -1.1372554925062994 0.5272643528150145
Ni 2.519008317951325 1.558872830175303 9.186161714948788 0.40095428203115463 0.06920921200580984 0.10835014387132953
Ni 6.362224615331201 2.2555581049253153 2.4985134291270104 0.7297122444037175 -0.8044984362766725 0.369479351351325
Ni 4.062097084127299 6.919852918693877 10.205632453728127 0.668753445332158 0.3193533812292113 0.8557739466221971
Ni 7.968350253014513 7.022345432722721 0.47637154435617035 1.2384178603799383 0.57352698332698 -0.4422652249647996
Ni 7.74255772673676 3.8361961384059327 8.143271472853673 0.40310166739146064 0.46621659357407447 -0.6429714512720476
Ni 2.9678467446019687 8.536576556990363 12.45633607806567 0.7880626593181524 -1.143792522293869 0.3760001831889782
Ni 0.07757772588657119 4.622481048348473 10.411801060711923 -0.5785498904628682 0.5349612072386399 -0.9367212730005416
Ni 8.682012205643598 2.387323868729675 5.825814900578957 -0.17424571812287412 -0.5246603395332641 -0.04108854251019375
Ni 3.698051697335673 2.763837491536798 11.726527759796515 -0.8667661839676427 -0.8426986014954777 -0.2605206273617191
Ni 1.3500118070084501 3.2773119764880714 12.758111660913519 -1.160934067070162 -0.1362620397902492 0.30836757164166895
Ni 2.6638928344328607 8.397149152504015 8.016721587782463 1.6149284075464316 -0.8058670344894251 0.4479049397490802
Ni 5.516715584315047 7.854076159446388 3.5889555356954332 0.1501603950388962 0.29813715216291237 0.5337170504188936
Ni 3.0747031412362364 8.523900517041273 3.7292177698976006 -0.04670460314539054 -1.412041628648097 0.5326544134823342
Ni 3.1962413375264345 4.412436446255511 9.342067067873588 0.8096326721794445 -1.4910117766954127 -0.15363266985821283
Ni 7.323471402404257 6.209235745439592 11.553153324019567 -1.035595359060636 -0.20845887366947324 -1.7173009936780876
Ni 0.46664812725480914 8.823111076552312 0.1588968260731551 0.22110972966426434 0.5502248182659298 0.3288739191251368
Ni 4.474072899949515 0.30278659415954107 1.716630348595158 0.4180662591210929 -0.20177169145728474 -0.30677425901262007
Ni 5.888133493272358 5.639997526656687 0.3748602262920245 0.31172671792188894 0.5360559829647156 -0.22252666461644902
Ni 7.795945267762539 8.845797845128336 11.31945340632097 0.3425971822485003 -0.28325457862412506 0.2451649708412552
Ni 9.309616224904845 4.699784111644559 5.8667016797561535 -0.9088646557995895 0.8588142761104176 -0.4241734004600953
Ni 7.632728830356768 8.993365742839295 2.6116418905742913 0.7863690736658134 -1.2547662198309746 -0.10800895848182689
P 8.432701695055453 1.5299158037769918 3.6911471857682505 1.4340482148261755 2.013946391786822 -0.3871808823961461
P 1.7515883911974504 3.2058364582861865 1.7847719689059425 1.4688025875882251 -0.9217834207437867 -0.7955931633672427
P 4.608088367208844 1.0302919027472819 8.369103752927417 0.43875875447343793 0.39713259429221925 -0.7432359899217651
P 8.354034353760571 1.6332576034474706 12.41222291694562 0.9378893251667137 -0.07440129772971057 -0.4587434251254809
P 6.24679404769787 7.775444957966044 1.4120656755603633 -1.7657503474287268 -0.28943113974848217 -0.34616278811257156
P 1.9246709979720058 3.235931888842435 5.941427974275703 0.2865134518810549 -0.09194676281264165 -0.5738617409585793
P 7.073266431406304 4.071900008820643 5.801483770441466 0.22361295570209233 -0.583050606546699 1.0909537812262824
P 2.287740609771114 8.376883751502016 10.253409288546933 -0.7156236275211353 0.05058594047766773 0.2655342785262266
