# total energy = -381173.1258563809 ev
CRYSTAL
PRIMVEC
9.16545235058389 0.00000000000000 0.00000000000000
0.00000000000000 9.16545235058389 0.00000000000000
0.00000000000000 0.00000000000000 13.41456597319672
PRIMCOORD
 96 1
Ni 4.1402548372110575 0.7473995687119278 -0.17559815362848882 1.4177654185057518 0.18648108384680143 -0.015301406243760746
Ni 5.088769179139532 2.037865026022928 1.4596789567710116 1.2518009665550633 -0.3490593929340763 0.4454418229205683
Ni 2.089888134062372 2.07569084823554 9.166079355185738 -0.13462141886303264 -2.1701709907419273 0.6491734663177013
Ni 3.501129507787778 2.0907496865915665 3.3212987482233105 1.703353273248744 -0.8542287136222643 0.9826483745499591
Ni 4.009775456300288 0.7134938105071503 10.682341232584218 -0.13972788685166257 -1.1301458780447116 -1.7231847061523744
Ni 7.219406914742314 8.70450350421505 4.744087675475654 0.3799167446345651 0.8919797071187928 0.919618551881984
Ni 1.6134312545129577 7.1021441162474845 0.5412291319304491 -0.8993227777474254 0.9008050187199067 0.43588194714627515
Ni 8.259172501145896 1.9653388008791428 1.3894670083678817 -2.169067730375419 0.34121007209298654 0.4967558998135122
Ni 4.371233404107118 4.142757005726697 2.3435511957430735 -1.9870922477084554 0.38997207198803807 0.6987258233245321
Ni 6.778612810630087 1.8416876820348609 10.136824502003162 -0.8848886045999663 1.9254551916229485 -0.2568249236776867
Ni 5.729654275430953 2.7734200805489193 7.721974335197783 0.7805007878104945 0.1332469071130092 -0.8065789729547851
Ni 0.6536754851689837 7.6395879163209415 11.721325922440062 -0.1291393127025389 0.07988134700767534 0.7577928046900175
Ni 9.045394176750472 7.304269838867968 3.692949595686706 0.6135523746799821 1.1305716527282206 0.8730679578159544
Ni 6.683512076130921 4.606657215435724 9.322479552137093 0.023033999001328073 0.07962475091217901 0.4812968849459646
Ni 6.314895909969825 6.969428364941784 8.465838788904282 -2.5097144737657677 -0.232366019304374 -0.3208762456316409
Ni 0.19990951622091768 7.792550152062711 9.433404440270879 0.27649103464804636 1.3712148244397224 -0.5291446005568629
Ni 2.370488460459058 4.166293887588094 9.735969773435807 1.250792579895207 1.0962980762573313 1.473802611905978
Ni 5.166052274098763 2.3548430331469836 11.758953770880009 0.4843392713167142 0.15637732248288552 2.233045518778961
Ni 4.380408021997795 5.411218961369216 9.001268022531814 0.4412064446829821 0.1989311366846961 0.35765767612604854
Ni 0.8894503333259743 2.6308056406099207 13.743089081619491 -1.9057368872584146 -0.25847531479691616 0.5236666081614272
Ni 6.827556326650283 0.27956646336165253 2.2026580277719767 0.6422088620744101 0.8469985144224123 -0.063784955666445
Ni 7.475443828604519 4.596813519517055 7.186223394189669 -0.9229946674430685 -1.5044869283637121 -0.3347409194288751
Ni 6.696233724115196 4.403935738406754 11.584202505056814 0.48386978787946344 -1.5913843016779043 0.00226025678908643
Ni 2.117494476806348 6.0781614389425505 8.25692054948182 -1.014425152740924 -1.747343562786765 -1.0456337171332444
P 0.5830235950488187 5.759762786690568 2.2510442842839278 -0.12375542268280622 0.9735572108819683 -1.0470074575523194
Ni 7.387922923271775 0.25353932807278534 8.660752217001116 -0.4997309232814361 -0.399779287886447 0.37391527563549154
P 8.130727850676413 6.358477636313652 8.580586587250059 3.5425934623365056 -2.737078668980176 -0.4880532298331917
Ni 8.634396958514959 0.8162202014349326 10.916639526353409 1.317810440676653 -0.5174913325886507 0.7794944580331672
P 4.927704683442358 4.978921231667238 6.590214186126355 0.5495799855930793 -0.5199935301852142 0.8968966848044361
P 8.139361706873235 2.6389537278275155 12.515132926482524 -0.24429593797274057 0.05493624702656346 -0.7450758713439813
P 5.714824573385882 1.634960902290381 3.605647744667236 -0.16905260395770888 0.023915887385649134 -0.049886343307481824
Ni 0.3353868183462593 0.14636860925770095 0.595534437627015 -0.014114070803878918 -0.5849146563386313 -0.8226018307456027
Ni 2.359059141268574 5.809008762641225 11.848133623104074 0.8031259814091782 -0.6501219462738997 -1.494065475920072
Ni 6.600885522400196 6.4413974845224 6.10125287981545 -0.6906600155972622 1.3368250341059429 -0.18699864691316825
Ni 0.16312947213150855 1.1768990857845123 7.718968983343284 0.8683253009246465 -0.215576458550861 0.7435270387996227
Ni 5.121700649750124 5.512203916333734 4.539864897337301 -0.06382969286145135 0.8067242402833977 -1.8731751512723096
Ni 3.009073028188481 6.6838970251333265 4.7158635812373415 -1.0705322801471369 -0.5979822881558668 1.3277644665655712
Ni 7.52743027483421 6.726158926326045 10.707775363100332 0.031130402856217355 -0.7752999603358454 0.8068633369644233
Ni 7.832117410238588 2.1100063021643063 3.931299935978842 -0.5730346170715938 -1.376475044397397 -0.4669066776625636
Ni 0.9249774600670762 3.8175300914082255 7.877006130100107 -0.6640691524826111 -0.048492291173432615 -1.0883032309773129
Ni 1.6420274661202634 3.0673561402432425 11.713102678512474 0.1927283503080939 0.9377988223354364 -1.8646072070976405
Ni 4.498394891235245 8.952264014525525 2.4966252500045902 0.2774163746757932 0.0676117856117029 0.8630640525257073
Ni 6.30441063238048 8.793802507320812 11.036807773271159 -0.4898149497193048 -0.12214899742763481 -0.2834805785920021
Ni 7.5077978757115025 1.2307552843116045 6.275562370831122 -1.241356888403604 1.9882824113618147 0.7380001954441225
Ni 5.459621715695556 4.098744503118273 0.2523212394437434 -1.2048526228299832 -2.206386778540852 -0.2636578874391201
Ni 5.499775562827481 8.052124930566077 -0.009448664918580547 1.3353955007482678 -0.5670354620653654 1.0466711572588232
Ni 4.744468958297085 1.613440419965396 5.616317040215421 0.497433385496511 -0.6605631962118818 -1.148425907300822
Ni 3.355142181351508 6.5249497489493855 2.4859603295474555 0.07953913317690818 0.5728268719361619 0.8164489237703294
Ni 1.3026674241420275 2.577646016468135 4.051252794764294 0.7293957416045631 -0.617819120376136 0.43991138002064234
Ni 4.752626210967118 7.980377768879542 4.91413156492657 2.8478567055667083 0.2048361893152214 -0.855819712258468
Ni 1.7413443087410205 8.26934615335234 7.584072770902527 0.28053280881758785 0.9853696301358643 -0.3043782479766178
Ni 6.749649980925253 0.8477603563654006 13.16269413832996 0.9326540449097036 0.732646387331377 -0.4909624330601867
Ni 6.600583062469734 7.459037668740072 3.129819615155085 -1.7638600723845492 -2.4635382323200217 -0.6592537333718388
Ni 2.0972754887275924 0.7673866708439954 12.161967880041814 -1.7499303496773346 -0.31164701372388914 -0.12522506524979723
Ni 0.5889857218598932 5.473672354283377 9.965292143076276 -1.186367162431286 0.9511405337496652 0.07048602183570442
Ni 8.928772959926318 3.8419468567036943 2.845015095724979 1.4908767937794452 0.6089133332460739 -0.09419056454149585
P 7.9161004509301724 2.6904635705304187 8.209915526652312 -0.40638368057684204 -0.15582633507542196 0.3993468283347187
Ni 3.6779219198689694 3.687710623073009 4.931583502914221 1.4985014002042387 0.6308988363782296 0.11136784765173079
P 2.1813501839435583 3.4119404901112746 2.088460156572494 -0.11531860476936269 0.3302972818352247 -0.06951388773042222
Ni 5.0343447225612685 6.387092178825833 11.185453997459764 -0.11332291449557257 -0.5910732197408595 0.061968985503628754
P 1.6884963099821348 0.00999034315768047 10.104723421383474 0.39508959572026153 1.2468878455241623 0.5884028719975479
P 1.8840962304665925 3.8993134235146316 5.749362747808898 -2.3984795521474758 -0.6955322560878989 2.9215067269526913
P 7.727622086990226 7.533882753350731 12.759210758003316 0.9234281554360613 1.9749286157627277 -0.6107598995365093
Ni 2.9890923418731203 9.060672985965015 5.579829374058791 -1.3791027118282315 0.27747242472470923 0.13212127814899827
Ni 8.031456835317847 4.274235420953235 0.6995586566200518 0.3239839380226872 0.15177119116944182 -0.911125169698992
Ni 6.49661017001035 5.915383003639427 13.24424100176346 0.8010333605462076 1.9236639040504806 0.8893893206837974
Ni 1.1313101253567117 5.276111026977136 4.364710351606823 -0.6111571349749281 0.6483939078391994 -0.09572628445973191
Ni 8.244324468195947 7.966904553795331 6.98297948637172 0.1421094997099617 1.9795221486706813 -0.24585402648847982
Ni 8.774481733581004 3.4935771749786695 5.47626892695913 0.7072837401968721 0.5498682062574595 0.7605107178418128
Ni 0.2603886706798813 0.5107915809283012 5.293173433236161 1.3801110984880876 -0.6205069516209443 0.3036619386358834
Ni 1.6209010982501224 4.912499197847319 0.33725657064366005 0.19499426352413515 -2.1011916353587363 2.456150938717015
Ni 2.226783331679909 1.2423770780032914 1.7787714337725695 -0.9630532260268512 -1.9787161078296183 -0.8346878153758591
Ni 6.724142526789633 3.896352982377081 2.424373988433952 -1.0348834205952757 -1.7978269162482974 1.7717484739936906
Ni 5.809008762641225 8.903925418366253 6.856855528459603 -0.46149373417710843 -0.6519019209924579 0.3745181993268131
Ni 4.0465655823873785 7.026657449966149 7.3644630312108585 0.216116390214731 1.071688248128451 -1.5705102864423728
Ni 9.097169817574084 4.863344876421044 12.210421044356565 -0.11249141973321272 0.3066858130638718 -1.638528306353559
Ni 2.947591173232774 7.329575653049946 9.919132174961574 0.3690291511877838 1.1582904587997278 0.40781038572103956
Ni 4.599984766060685 3.1815485121712617 9.74591062315032 -0.6647651501083713 -0.282748585521984 -0.03780113000817361
Ni 0.2312150355689667 0.6700083214139256 3.0003823461865426 -0.7537664571394438 -0.7232418061880254 -1.037631415654058
Ni 3.0246176355237346 2.621777669958256 13.548309469128256 3.105196106986968 2.6521613022104904 -0.8052219447062584
Ni 8.91325584894838 3.277519964652062 10.079208634885903 -0.266832942732992 -0.561428143180917 0.5420499957646213
Ni 2.1477038080427833 8.540689372786405 3.259042412536572 0.36517918131407434 -0.5463509371328203 0.40718560765284717
Ni -0.06333235980298742 5.960330382396551 6.597055279826256 2.25414219154826 -0.5976413598766804 -1.1120923629771107
Ni 6.309634940270276 3.3842333273904783 5.207346303514004 -0.4532055260263872 0.6461179673208292 0.16008459613114365
Ni 2.2316593523770525 1.7401986271862409 6.810105305207876 -2.881791153530624 1.684514800386002 -2.4268956413963236
Ni 3.9893639937203296 1.1308243563774851 7.666921128582257 1.9416914509761527 -1.8647676439349046 3.27951433021899
Ni 3.569366301190467 7.947757923651849 12.33780525197894 -1.8920905001195738 -1.1833656566008006 -1.5744813552749786
Ni 3.9037128406849866 5.940652156011652 0.4605676512024832 0.8459297068382657 -0.22388317864434348 -2.091835905175449
P 4.885681084013033 8.303441636422589 8.992614918884872 -1.5143730771291726 2.627188177204921 1.3820257990122973
Ni 8.264864247110042 7.346018474724147 1.4804717021724003 0.13013458673627262 -0.08746944376757838 -1.0481893936755626
P 3.117051223363374 8.455349845133961 0.9999334466522383 -0.21819332734841776 -0.5313493215176655 0.7006505511510708
Ni 3.3955801575090185 3.7164718128242025 7.655544969015915 0.15403864704737988 -0.03412085294310898 -1.3227485014082188
P 5.790696188669624 5.734026196243993 2.145565507988942 -0.5331112985140948 1.2825863273670361 -0.9091104532618085
P 4.09917527938287 4.277709127427327 11.816046290663042 -0.32100711478255034 0.4309698545566384 -0.20168427394980104
P 1.1659647010256933 7.598077582228157 5.565018919463841 -0.07023482505684679 0.1316258265698185 -0.005305728483629571
Ni 7.596867742506309 5.532367911697859 4.195392365989015 0.3378280429946311 -1.2410164743450498 0.11395617720419729
