# total energy = -381165.57297351706 ev
CRYSTAL
PRIMVEC
9.26140943040821 0.00000000000000 0.00000000000000
0.00000000000000 9.26140943040821 0.00000000000000
0.00000000000000 0.00000000000000 13.55500885901325
PRIMCOORD
 96 1
Ni 6.624713784833188 1.3131566876189922 5.236977747351093 -0.05252480937159341 -0.3581587841321832 -0.8194689415435759
Ni 2.089410961108099 3.6765386556751047 1.99582627342612 0.9213429907722583 -0.16208002929461762 -0.29265581733336693
Ni 3.2427712943940157 8.143168130183794 3.12201641054263 -0.4886962627338294 2.0737404811263187 0.5374235527362035
Ni 9.204757159709049 1.470961838974114 4.772596797960118 -0.7362451604262288 0.23367548214441689 -0.7840458248492755
Ni 5.829825556034115 4.5630036986416425 5.456243462437822 -0.08359247731067539 -1.6472060366332149 0.8067401811229977
Ni 1.363483185210619 4.691061203647058 6.207001076399923 -1.243465964326807 -0.17472831418624749 -0.12381224406267065
Ni 8.982612998643027 0.28866238036163167 1.4938838267435797 -0.2685339845844988 -1.10016270141906 2.5397686128386714
Ni 8.86026052170468 2.001112685797357 9.638776431320373 1.626039944078561 0.5329824862457143 0.03290317848592397
Ni 4.465082819172325 2.7437850895280462 4.882934448743586 0.44939309425883245 -2.3491423964752447 -0.43964527084344934
Ni 4.854488030386449 3.9345337317534916 2.518195684239704 -0.18242902526461485 0.17900200186093687 0.9089474453213829
Ni 1.60240901974665 1.2981161590785428 2.525528868044093 -0.804415389644563 -0.8006389533212663 2.532902738956773
Ni 2.9820811482384917 1.8406680328202967 6.8290269547668645 0.5903695088056156 1.1841151331723154 0.9531516506424229
Ni 8.856148456019975 6.737536271704958 4.902345436285413 0.4686051484109091 0.4346889552794384 0.05018947637019744
Ni 9.035977238452185 7.279578767940723 0.293238442647245 1.4848228742758813 0.34434424684659404 1.51617567755555
Ni 4.602522131697121 0.7078985906082599 8.68901799174159 0.39881718108349384 2.7118533187544847 0.016201806570843066
Ni 3.4323152950767972 9.210536279049716 12.366831017322585 0.08703749843648236 -1.1318988561800765 -1.149583160833717
Ni 8.970147141860119 2.8097541072581085 2.3944512174986285 -0.6670598596798188 0.12744367016767083 0.1532032956302781
Ni 2.8680546781707497 0.6958846905942999 4.855091874266275 4.603286387795718 1.8057060618860579 -5.270728827625936
Ni 1.449336448492618 0.2297598178510046 8.374731144405997 -0.6224237090276828 2.017993565273002 1.116784112025825
Ni 5.213812184519673 1.9712724253556524 1.180765769248998 -4.124629768686077 -0.5370679691689976 0.37904874020731494
Ni 1.2627097917077679 6.888274967840644 2.6015316965012016 -1.2228122926321972 0.6928102291710456 -0.5645216945045762
Ni 6.777036181942036 6.588381276542434 0.10086971215852887 -0.6933445044079608 -1.0039466218071034 -0.31661567058307405
Ni 8.497222542482342 9.261038743416137 12.742765508855625 -1.448513755432202 0.8835318334617558 -0.27521705303162924
Ni 5.530765391563886 2.281955658371611 6.910140228820414 -0.5598582275906357 0.8659267187854829 1.4909282158426709
P 8.9751668256464 7.4512297260495215 10.996053546226218 2.44498463768755 1.4988194456652897 -1.1509489308329919
Ni 3.527828208154171 4.627009297621351 5.268939796640469 -1.4995157004013657 1.8650473799588525 -0.34784454669036863
P 3.0220163447079607 1.0964674965716428 10.054997126731552 -1.6118806218590433 -0.016978022615235278 1.2051734965045113
Ni 7.961477804502429 8.827336211999446 4.303796304099005 0.26887825529779497 -0.6049669470038163 -0.520933011280348
P 4.86984344683969 6.1396567394036925 10.507855956937076 -0.5142921089250627 -1.1651956705599933 0.22283211167200978
P 8.099500585806812 4.058025362023413 13.238146247120117 -0.6596730802974445 -2.1745472654327513 -0.1697164627939529
P 1.593870000464449 4.957595299007645 3.8040367715648533 -1.270776736326618 -0.3798910336029522 0.9588541003438389
Ni 4.6685374564731825 -0.005346611531035377 6.211067761179549 1.5540737381529042 1.5897506227292233 -1.401650258111444
Ni 2.4266651771182377 8.17078565241755 10.109379195411764 2.03176567935643 0.3582276896969056 0.4721977508581739
Ni 4.521012469329821 7.093378135979063 12.546637572372715 0.31025938934774305 -0.682173832503122 -0.30289549278350414
Ni 1.0208943975014042 7.01626764298166 8.793838621064747 -1.3983839286553466 -0.521130986223767 -0.5388664558303171
Ni 6.263287290811612 4.937859236002906 11.912426457921619 -0.39867808440246827 0.06248423457715045 0.4211649526510746
Ni 4.48804185257859 3.5876661729939765 9.23695167036934 -0.11238523317265162 -1.3797565433621464 0.33329698789349693
Ni 7.764997008329009 5.607848100333689 6.651388495610405 0.018204438823168648 -1.0598385478787167 -0.0039780108111415365
Ni 5.334747665850454 5.9483067639269525 7.801679597887513 -0.5544897641898708 0.0356156923210806 0.4212233166928358
Ni 6.986936760045944 4.3196509105081144 1.4389321813975804 -0.033678623199367805 -0.34155048615154077 0.26409703185906774
Ni 0.8543696293846859 0.3444281035762919 11.175643384301072 0.3288325243642401 -0.1411985578599181 -0.8205644886005997
Ni 6.910104109324535 3.0574690191247345 10.836903638255286 0.7637788470701233 -1.0790248909991804 -0.8605824237544341
Ni 0.3424785769397373 5.066916973201898 1.0117311592391378 -0.18581413968676386 -0.9891216409791287 0.3091273326258289
Ni 6.589844579196 7.883635660178243 6.289727687936075 0.6411338838426764 -0.016024657563030467 0.644306110923071
Ni 6.681986339324652 3.6563209993919763 8.644151094873235 1.0116671303798126 1.6083697804923074 -1.363958399987625
Ni 7.064612199004533 6.856091570871394 11.155297920570986 -1.5384419451529183 0.41591218889256754 -0.181247603362004
Ni 1.748878206241236 2.829768012538842 4.359643527714622 0.8236251298037944 1.0296764224730397 0.46610037971118434
Ni 3.2700461444873796 5.900295618635272 2.9652392756086843 2.3671475748034134 -1.4041596547968591 -0.8587955070573403
Ni 3.0959223901222384 7.224945715071196 0.814845639483687 -1.3476054125508985 0.2662094502163802 -0.1569635340036587
Ni 4.728180931719793 5.349038020245722 0.5156484061573009 -0.6253645368235617 -0.5282683685994967 -0.039018547355042475
Ni 8.53971388789095 8.863048205873815 9.067650331774525 0.5923356313930509 -0.8444639209260165 -0.010574947302368886
Ni 6.000522588995336 0.10597552705036986 12.995864077890085 -0.5452407347877771 -0.18726835563478714 0.12948332630551893
Ni 4.4661756654579 6.9182171037835465 5.558068952025769 -0.9486522201101727 -1.4159317077311229 1.083241243073373
Ni 3.0325558283773155 5.40874632535673 9.452950886431303 0.3365229510299624 0.6020184058984536 0.2519339141339726
Ni 8.654694283106272 4.408402994869646 4.288872469314472 0.1763331967795221 -0.09868510997773973 -0.4543424678443078
Ni 6.917902215870753 1.3982597767558085 8.833379281502307 -1.6680736241108434 -1.17974091536402 -0.4617832403930692
P 3.7436560881459404 3.4316855192512117 0.3515732807739253 -0.5942842704789894 -0.3017009582547707 -0.552710303691945
Ni 6.0426712622635534 2.7906848657157526 12.868786429978007 -0.1455663479103106 0.22554179729368898 -0.1161891802997741
P 8.802385975615229 3.7889999475880836 8.32823794408216 0.8773467876969664 0.08501584002076325 -1.3333406751017682
Ni 5.134497476132722 8.318180979832116 10.728612758904971 -1.0251929327803893 0.3765761102971063 -0.9285035130764396
P 5.529598454004712 8.164654599527292 8.551624060121874 0.9299173627048307 -1.7798819017341023 -1.332726181446221
P 8.611267535368484 7.632410674224899 7.2299163133887205 0.884732024417444 0.025189869002066295 -0.10166964652736038
P 6.8622967150352485 3.1421090378015615 3.367944796574618 0.044360014172613926 -0.7196741434414251 0.5423323028917305
Ni 8.197606693460125 0.6272076368142206 6.890363415615195 0.018663380737458178 -0.891997961951238 -0.04827220474282654
Ni 2.085021053147401 6.922588488925844 4.84071075806085 -0.12619102870749235 0.17097450357077004 1.4132932416670112
Ni 3.8149596775750787 1.830906507523724 2.911100781990426 -0.3749851116609026 -0.8261142147742354 0.2367626057101729
Ni 8.264251794061773 6.4109326762745695 2.3802729261546793 -1.5782143399548498 0.37607963027666197 0.9799942247565638
Ni 0.9668355520022643 1.9474613423030072 0.44360668241494017 -1.4023709383275527 1.6564792344050245 -0.9756086940943585
Ni 2.8739264116034127 0.8165469603536873 0.7995513483311636 2.1902952722956277 -0.8025431123225146 0.15081268391091446
Ni 1.595722282304406 0.04731839188353708 6.111505760000028 -5.204063465087901 -2.9850086041610786 3.809153096803453
Ni 1.4130502472478637 3.7351633759097385 10.74632983470416 1.9517976861722193 1.455761181023235 -0.14741599952453968
Ni 3.327272391932846 8.525469840541684 7.645607256193672 -1.4947455327062322 -2.4645476474211425 0.36455080370145604
Ni 6.263491041814007 0.6666788366827806 3.0501478751523052 0.1788724182616081 1.8142878900177979 -1.516129397698647
Ni 2.7297077475443743 6.352326478858336 7.330073823179785 0.2896730805559592 -1.0851698275546537 -1.1394563568123601
Ni 1.7930458667150067 3.3525560390482565 8.555704637015298 0.4557408908537313 0.07928356552267636 -0.6861261322826506
Ni 5.004420983921754 1.517083656789039 10.904435055717352 0.3259755145314192 0.5058954002209352 0.9176079492098584
Ni 4.971061387984131 8.326692214886716 1.705775607825441 1.4425624229447738 0.6962369954644073 -1.3053999828274423
Ni 8.916819947687761 5.70349067313986 12.359388548889639 0.5440623982089597 -0.3126016643276745 -0.7568517809329869
Ni 5.833233754619636 6.1837780928314645 2.462646678000319 -0.07419303837364642 0.6144481470213741 1.3202000239547522
Ni 7.195790798910276 1.5939718759656467 1.0470949241275935 3.446242656918897 0.2530034930490675 -0.908123663868507
Ni 2.388943457447517 1.9968894832022552 12.107387456845352 0.9620409827122529 1.3812025317800536 -0.5520099351908105
Ni 8.649498632545193 4.856701507185197 10.237975714432608 -0.38224179322331586 -0.45980246251761453 -0.8642878976304792
Ni 2.142636279779258 5.101434245289492 13.001991426216662 0.9544055776541822 -0.9742560367212061 1.2108898301629982
Ni 5.475345118912377 8.187048686972371 4.126469954432578 0.5632518266532172 -0.025771195426833034 -0.6884072150073435
Ni 7.56158867807415 6.365996318837217 8.801348697784853 -0.34749770487391124 1.1065680907247717 0.37948942728915935
Ni 0.5314131768971735 2.3098880685181595 6.8027569675716775 0.8164111285538584 0.38215874659120636 0.9800536172395895
Ni 1.6383803330786118 6.203199267923412 11.151312736192319 -0.7594609364210598 0.4246009749158171 -0.7625552590756673
Ni 9.224993338810577 2.6897632896657053 11.915516990171584 -1.7920648169535396 -0.7969435067475501 1.335586019492519
P 1.002464193193834 8.962608354771493 3.983017208914361 -0.21931304277515778 -1.461136329292219 -0.5963344681397988
Ni 7.7418620081479474 3.1929171286715774 6.088774557260079 0.01158539084475424 -0.1716378481863818 0.9974908388794305
P 3.8268883726244005 4.116418547028052 7.323825150392692 -0.5786190531379067 0.09398744739175427 -0.34811399830167145
Ni 3.977395533530092 4.172940927374334 11.457655146716338 -0.07225802613446264 0.01824043426742665 1.1668835997853775
P 6.61598027595779 6.20928401376767 4.7024082821986335 1.0054622871206813 2.5653405477705045 -1.7501524929904695
P 7.250590557145398 8.252647248334442 1.1744059595515064 -0.9476062953441616 1.731382411471818 1.1017411016497736
P 1.1389032735250537 8.881385796089388 0.057307747846424235 2.9389825151399513 0.5020009502625354 -0.6371844122766253
Ni 7.193160558697537 9.197755534354012 10.801240729849678 0.0987208483116816 1.5735333895394126 0.6042853475557594
