# total energy = -340893.88024770416 ev
CRYSTAL
PRIMVEC
9.06262427021173 0.00000000000000 0.00000000000000

0.00000000000000 9.06262427021173 0.00000000000000

0.00000000000000 0.00000000000000 13.26406668356154

PRIMCOORD
 96 1
Ni 6.311673763771858 2.025931539395695 11.113894947611584 0.11030778181833262 0.004985369029733349 1.4880534653980373
Ni 4.107190400207868 0.42234457448648005 5.886407399207625 1.9162483283126999 -0.47977247788163824 1.0942165111379543
Ni 2.6262307111083985 1.6503038869681503 4.717498334209246 -0.3812346921150402 0.7802732451807207 -0.8793499341699242
Ni 3.476585812800373 4.359711363999633 5.019003688662469 0.2852957774238699 -0.1237939892302255 -0.4632477407537377
Ni 5.133586979134089 4.747156678528256 2.8172481750159832 0.6549471355766849 -1.001025077284934 -0.6983743535223843
Ni 7.376849312123321 6.089449153050572 2.442644599135541 0.2852003894965862 0.3950901099408938 0.8084556211522077
Ni 5.440039620198493 4.426502905169075 11.583549139786914 -0.8979996880606276 -0.28043510689745893 -0.15771995255370902
Ni 5.551899592064763 7.788999340522758 12.481354329844555 0.30475697147227515 0.15088004681374015 -0.14809502786943526
Ni 1.8044500638678826 6.535810588222688 0.5269027899456653 0.4680708731739939 0.4826922226315945 0.13376241329684704
Ni 2.806341306658124 1.5661483576195163 0.4340770479190389 0.8165628236403744 0.0829162771792572 -0.3310511292821137
Ni 0.4807513756437142 0.18874365146804437 4.548792145092033 0.6137830026335493 0.9970797194839408 0.7004003828134776
Ni 8.372759222868538 2.2367916192314334 1.4335802892034257 0.9395335456383561 1.165577222269128 0.11332214316462419
Ni 6.716102436258627 0.8660098789261795 4.696567297101383 0.31816733134091013 -1.2085025608777444 0.518559625952165
Ni 1.064912732246455 7.772269736045311 2.778277984217786 -0.7386085184520828 -1.4907765207561552 -0.28231381197741057
Ni 7.676504984954743 4.138103011731472 3.737668237778403 -0.3989719614938032 -0.47063940523211845 0.583760231019214
Ni 7.694403667968263 3.781225929002648 12.736621268802445 0.30440344478759834 0.23093417195385388 -0.5387551270634334
Ni 8.1134503534681 8.826234818124508 6.622270742933519 -0.5056200350723614 1.3386440895925527 0.7647106148557733
Ni 6.853020564343826 0.4197553827209292 0.5001363290441802 -0.18389661094907683 0.6511943534024721 -1.1082411075518204
Ni 2.035791674645675 6.448555641359815 9.19799363623384 -0.8105538984421331 0.278083833056463 0.40238484383009404
Ni 0.11329277276978332 4.76621537745354 1.5597220507208391 0.2502223307595045 -0.2534650060665183 -0.1870968630539294
Ni 6.260207120311715 1.9672238591113476 6.899211854192743 0.5319735853652258 0.3363735699362917 0.1052743331594832
Ni 3.719255703966469 4.119878074242768 0.3564602020105341 -0.8416192523883699 0.98431727761195 0.13595016497678522
Ni 5.8629651089032855 5.804801186077576 4.937708323546275 0.15220365072117015 -0.5152310757995643 -0.2736448234485029
Ni 5.176181313394112 2.961574998475134 9.119536685051738 1.0699247284701252 -0.1809573258150948 0.13530044720792828
P 0.18017584644476217 5.625025907627344 12.615719516661446 -0.25261242825823593 -1.3210867974350797 0.2997433203077677
P 4.019908265472062 5.986035547041821 12.457027527407496 -0.10318556895125455 -0.41329583431564304 2.475005609529673
P 2.561822640132656 8.60776213386783 1.448051487702661 -0.01605448235970138 -0.37948865595821096 -0.9836914711024929
P 6.3580562749937295 7.899146476394318 5.713311274874338 -0.9241565489616534 -0.39185540505368 0.46605050030985545
P 4.648691265393117 1.0585688952290047 12.354748561962436 0.5400568765939925 -0.6146258102498189 1.367733036538709
P 4.0396104107234 6.244084711663079 8.250435544973199 -1.0666709974195179 0.8921005489673733 0.7443389931779568
P 4.652379753487549 1.0855755156747218 3.7844241291218745 0.2650401124986274 0.03328164487126527 -0.25428647352654915
P 0.35860260639757013 5.749854494882145 3.6602852075771133 -1.19745247371117 -0.42204864080760857 -1.3100577933144277
Ni 1.581301065466912 1.2986831263394998 2.529616792119923 -0.5446056723069395 0.4618899411742626 0.6226260548464762
Ni 1.9456548132520164 6.29790763744399 4.901204979085435 1.198836241432574 1.2549405406253098 -0.38536414090238147
Ni 5.962508974331391 5.4880171532990385 9.34990678250343 -0.08652893423118001 1.2047533782479574 -0.7189650331895424
Ni 8.76385677499435 2.209331867570184 10.55553125737152 0.3463641054901002 0.8069155303585974 -0.22000081287080178
Ni 2.192239758120311 5.129635674934648 7.0649464087984954 1.1037529898734797 -0.15538281978010013 0.5483970210285717
Ni 0.5319352652253655 0.11973176734249541 9.354005807479133 -0.2243950852837555 0.6826733978473597 -0.8109246515179904
Ni 1.4923695331065692 0.830093792520669 11.701771980181688 -0.5442588304904821 1.047550217429667 -0.533569469097436
Ni 4.204387045939518 6.633795682269364 1.5827483665693216 -0.19362257998758914 1.1876966798759867 -1.227032758471448
Ni 5.6311431790370285 7.840819426331017 7.9017891376433 0.19204417975687568 0.3767689430342028 0.5784874126560489
Ni 5.515476904960288 2.9939738803856835 4.574338776761306 -0.8067697488093525 0.45506829026673884 0.29712079508325606
Ni 0.6906834427500426 7.337970653830661 7.130231741807508 1.3401780097385758 0.6437306980355751 -0.7744126726348857
Ni 4.827514968290732 4.67268003194339 7.2282929618983935 1.895376112849381 -0.28287199847372574 -1.3381879758917405
Ni 8.218721797460534 7.3279473913430895 8.963550795416946 -1.2901422853374234 -0.3217020839670459 0.8345965412136336
Ni 4.683355803381328 0.15727278228690436 10.299070770791916 -0.8961328100552179 0.5697554320996897 -0.31310200100286073
Ni 8.197605882816735 7.370378598365521 4.670476907973472 -0.13873981190678042 -1.3605056655523342 -0.17781286664884213
Ni 7.29498662672528 6.064934754290282 6.87939461361266 -0.8422111203360979 0.5129021705560715 0.8362173646465082
Ni 2.541377359687845 5.086180391365113 2.5096672372249036 -0.7000437708050072 1.0921853396405383 1.072249777058876
Ni 2.1170018510933497 5.2440694321051415 11.58410649118202 1.2685529892024217 -0.8463092016648714 -0.15056740066932778
Ni 0.8765125542397841 3.4379065322425473 3.842878962187955 0.8539839446013099 0.03971865874586063 -0.38871146010805957
Ni 3.7532405451313813 2.821992458842605 2.6548033530349944 0.29261982188910896 -0.7215492489769508 -0.06199392520429324
Ni 1.0020090569062796 3.215953800250581 8.182894524773268 -0.13319779904262868 0.6632805951430447 0.36491667168130704
Ni 3.647606596166523 2.757276258640301 7.035008935650717 -0.3791194455442503 -0.6776962563477426 -0.6686919959666032
Ni 4.067287665368105 6.959261709137498 6.145334732124586 -0.05887337729744055 -0.03678811536262696 -0.5441788691821661
Ni 0.8349441090517253 7.325736111011293 11.41500245285757 -0.5836429887150594 0.5217282534881338 -0.11984940276018068
P 0.08955775970020843 5.567233552398372 8.091173516650107 0.495853699714217 -1.1847967326203723 1.1200003049702776
P 8.560273982480059 1.5635020713208085 7.925970031828959 -0.36250754801918217 -0.20642358840699934 0.5729078616857424
P 1.879243902303622 3.2147484712172654 10.353586081070162 -1.7195553369299033 0.040222852075788795 0.9210066904787622
P 3.970988219443209 6.256962700808503 3.745467532260143 -0.6697011539574079 0.25675936054707393 1.5998059500826964
P 7.120802987474716 3.9498269916778566 10.345175965709885 0.18405833333792174 -0.37289660456299 0.11873328687786648
P 6.271925093545376 7.734995162255634 10.237936119717178 0.7563838401576329 -0.20158091560271735 -0.469000841187431
P 2.242954203762671 8.322715411425165 5.8406329900769975 -0.4151375155100721 0.6183888768366769 -0.14966494345971645
P 6.852866499730545 4.026315540859686 1.6527290452336783 0.4948234586774897 -0.4244742195299657 -0.5003027366245061
Ni 5.551383022479057 2.6943544580515044 0.4512597836120186 -0.188529738845714 -0.5133338587768513 -1.0000177190663422
Ni 1.6398456185136678 1.179890246875587 6.953753446081489 -1.1212295493916884 -0.6850987194594007 -0.3595842037248001
Ni 7.001303223314572 0.6637203229010166 9.307090413947796 -0.41766825235172583 -0.14208970221561978 -1.772301261173367
Ni 2.801329675414338 1.6852856168072334 9.044050462118665 0.0641125142091928 -0.653973458809506 1.351959832864852
Ni 6.328493994492411 1.8144642637311437 2.4831663112157205 -0.504859245646937 0.4770165124030558 1.011946095072812
Ni 4.134314834769623 6.804608025276369 10.5997668328942 -0.11135782034940177 0.35602708250116105 -2.0395571503763907
Ni 8.128303994713244 7.321567303828397 0.10063047408295246 -0.03772065447922536 0.052766493068754285 0.8178476038900688
Ni 7.618803255968876 3.7938139141701317 8.164974997723832 0.00148918295101679 -0.004643669419598454 -0.15483260370358495
Ni 3.182820845770869 8.350147975213483 12.492058195417856 -0.06618790868098277 -0.35893937105194956 0.15417825794903767
Ni 9.172282064802113 4.965765302149594 10.351078452923405 -0.19065449849820068 -1.1863118837133182 -0.9095565396602915
Ni 8.590225955826735 2.4969070621955183 5.906515550028081 0.02570126142084606 -0.06291335169476907 -0.4513520177574162
Ni 3.6580467393723843 2.7588712805189743 11.491722098959322 -0.2286358628379804 0.16706205589024128 -0.2995674568515357
Ni 1.0667886954787582 3.220530425527456 12.934838987724836 -0.11950538915720063 0.026408829010831938 -1.1649136205432002
Ni 3.0105403576255396 8.47519406545174 8.048025456044703 0.6163631046558998 -0.3521673424354386 0.3419801174897917
Ni 5.557953425104273 7.79365752941843 3.520972734149042 0.3795146241001399 0.559220851116953 0.6957906519556082
Ni 3.2041270755251916 8.494896210703079 3.53678338852139 -0.127224097957697 -0.24206216354621535 1.1888423634446557
Ni 3.329590046481738 4.310184122141967 9.241950989190185 0.03063083751197951 0.6454931892526367 0.11758040422034588
Ni 7.368058566541997 6.238701512822557 11.322287274847534 -0.0528629094373025 -0.8591513477348622 0.17004530688828132
Ni 0.5805653072762775 9.174547720879776 0.6622005208041217 -0.5849645357399603 -0.338573662911404 -0.37031521698905895
Ni 4.717866276756257 0.16045104463264695 1.5854535599260486 -0.7507945189953135 0.18007209499666404 -0.4356970848289787
Ni 6.087310373713261 5.5479301626167015 0.27587897169001785 -0.17933136017589763 0.7619564491494039 0.6537621141296482
Ni 7.950993750075508 8.807139868701983 11.306807406262523 0.06946118011561586 0.5096409833062965 0.8073315348500935
Ni 0.13976560464360355 5.101324036588198 5.954518458476698 -0.7654451790289527 -1.597745725119558 -1.6055369390292027
Ni 7.859850937383368 8.615157235305315 2.5815057538729427 0.5045126609407957 1.0855570356907434 0.40541617445725014
P 8.361458130353165 1.8300157270482074 3.530138672376826 0.37883071065923785 -1.0438079767784152 1.1282442901466245
P 1.8887052820839338 3.340936452118663 1.6346237343858752 -0.04040180085581429 -1.6526863430214958 -0.526217399607739
P 4.791889792125593 1.06667088136272 8.18813362788725 -0.4193101588305231 -0.8182646368228296 -0.3953947856655062
P 8.368091971348557 1.5407639469254044 12.716579275139459 0.8956381298069866 -0.27305706926583295 -2.512666100194924
P 6.314727868164544 7.5946241743080805 1.4553469002727288 -0.5833200581580018 0.07528447166561228 -1.2427599393987177
P 1.7121472352639804 3.202196736547025 5.8832236992872975 0.3225742021593541 0.8220403018151778 0.8799901388570844
P 6.897943993051685 4.050630561885143 5.888953996638916 -0.19044032560486557 0.26172107542772344 0.8320915154035928
P 2.2672329742908843 8.44898495594536 10.262368954858673 2.0499114970275207 -0.09682208862707195 0.02743418495155275
