# total energy = -340875.95707243495 ev
CRYSTAL
PRIMVEC
9.24247582226118 0.00000000000000 0.00000000000000
0.00000000000000 9.24247582226118 0.00000000000000
0.00000000000000 0.00000000000000 13.52729760965034
PRIMCOORD
 96 1
Ni 4.473247362218859 1.5741230180271883 9.118900170432012 -0.00908113636566178 -0.23368242412295237 -0.4919669630653011
Ni 0.27439431760394556 9.000646389965047 2.2269449604847127 1.3596620866051166 0.9158022634596873 0.2424619700877953
Ni 9.057783375165583 2.145437415177937 2.946475396048576 -0.5419252972612989 -0.8609714316627366 -0.5006750323622603
Ni 7.113499202612115 0.8099514245017287 5.54995234960676 0.6984882533924293 -0.00436727582976022 0.8873064700128397
Ni 3.209070769086523 7.225323916934548 12.086464123441452 -0.3341685918651729 0.11923182378083981 1.6117543806938242
Ni 6.446395786597186 1.169635308496898 3.3965830417243414 0.9876861940841829 1.3812089595379566 -1.063208492792214
Ni 2.7425105922953463 3.3784761074463776 8.808110831747078 0.163198459169777 0.5114842071626223 -0.09292583889645932
Ni 7.236082158729019 0.285243135660948 7.93996877980721 0.752933162604871 0.40949163007820444 -0.9114838385899915
Ni 5.410924256355057 3.637154519253657 3.481398469108644 1.420971069927243 -0.7305134001487742 -0.09768212263452208
Ni 3.671471831781899 3.1313507903496567 0.8637195272846658 0.44577786610374837 -0.3150226150643413 0.6932138923673674
Ni 4.820320812275561 8.928980232856514 6.880294902517828 0.315543777675134 -0.5611139543746078 0.6417774309639465
Ni 0.2667840630562067 4.604361123470041 1.864169468344998 0.3713040632648895 0.5904291583989574 0.28215748890520437
Ni 5.284099003860435 9.061036726636077 1.6830123220455633 -0.5386679666662658 0.010240446781085589 0.9437789511782714
Ni 9.23092267373589 3.461806268974691 11.156394711110263 1.5374523275461391 -1.2486464800864818 -2.3856785437280656
Ni 8.801609674291553 7.570059020621832 0.6194325744964346 -0.7350285144103083 -1.0565570489139677 -0.2646009680786797
Ni 3.553805872773807 6.7073016350646615 5.9024871785950355 1.9161776229757643 0.8077542242098089 -1.9799124421305645
Ni 7.872556010047315 3.429531543591276 6.5173438033385125 -1.5725404294985241 -1.0055679594606102 -0.5819118649565655
Ni 9.101842257153768 8.80590742552388 11.96841182894624 0.2729897063630073 0.2561659499374491 -0.28609127674197177
Ni 5.211961480487711 4.148549945997567 6.805271878210194 -1.1442074983441004 1.0518521872391307 -0.6349503807397839
Ni 7.4250076059118335 3.544304607683844 1.6558902769030575 -0.5959364613704317 -0.37112022938885764 0.49541995461090804
Ni 2.956427693956039 8.57294158130442 2.525682110767592 -0.34031147153811714 -0.7345191788740576 0.974527802325354
Ni 1.8628302336061502 5.499337779556016 4.165312100051222 0.28365952737202765 -0.7532666346848899 -0.4215002245033063
Ni 1.4642114961888233 6.087565907363022 13.479302449003603 -0.5983604974308921 -0.5594003141176107 -0.7991081184990367
Ni 1.8058965828725202 8.680320664782231 0.32672891239519675 1.0211478161767382 -1.0274624455408563 -1.2283419642011748
P 5.589054491840326 2.2037204673737607 11.003360570079058 1.254802986606181 0.11454187450433823 0.20866147659858258
P 2.3117187967280572 2.564278689576625 6.721092333158761 -1.370344506019627 -0.4308808943872579 1.482316048693628
P 7.761350541601368 3.8153494520693045 4.0065559422717705 0.13646104317493274 0.9335212780060052 -0.08355699608704964
P 3.690465119486056 8.71964739917697 8.866061154815238 1.1145500804889839 -0.6112962316559536 0.03682591057909787
P 6.553035472013522 7.477837597404274 6.616796539597304 -0.09139551829486195 -0.34844438505789666 -0.03427923289784419
P 8.907972085434835 4.109953367188535 -0.36956593908679236 -0.29024772211250655 0.8243918327664899 1.7671798807864019
P 4.217258510860199 4.77565192688666 4.776461567763975 -0.24702156443401974 1.7669507954947312 0.6452828730140435
P 0.18396223769515813 9.004833231488155 8.2426691036996 -0.020324570489964996 -1.071378430197516 -0.5573825123566336
Ni 6.731027070362264 2.39296940120847 8.994002898382687 0.14695885738246303 1.5804846240462653 -0.011134162239948566
Ni 9.433887441610974 6.633426526247469 7.639785182066569 -0.34666106790522877 -0.2598958492935266 1.1608782741315622
Ni 8.367712406866065 7.472985297625839 9.522933150154495 -0.2696153905741357 0.14815673434530616 0.9943090987173393
Ni 3.690252542543382 2.1378863124751164 12.079700479674104 0.02070509375783531 -0.5801524590632976 0.3520734971700517
Ni 4.05043182323974 1.5319403586199989 2.9693902662212857 0.011109479649600221 0.7186148489389753 -0.6007053435139849
Ni 8.020472592245532 6.608425629293822 11.873098797584136 1.0768199129280616 -0.19199275769365 0.7873304091378183
Ni 8.906715108730326 1.511283425277521 9.351244920279834 0.811289491056577 1.3068372294946011 0.6385352698775648
Ni 1.7453491241134274 7.945895055269938 9.54828341269219 -0.31549878336981146 -1.597244102892791 0.12604344738603454
Ni 1.0216447864925335 7.817276762476237 4.260963406026451 0.2972071841494753 -0.5958472440907351 0.4491712080560135
Ni 7.899359189775811 1.890178719404983 12.186268998027023 0.3217383365216201 -0.44290183010753403 0.628142356679015
Ni 4.953218371350053 -0.06645987050816789 10.918733689200431 -1.2674384159820042 -0.4640213856949686 0.7246664544496939
Ni 4.214541222984275 4.23337738860037 10.812192898274818 1.1497813928874523 -0.6580337449218085 0.20949065736809727
Ni 1.4511611204037769 3.1048341273699838 13.958953668473207 -1.4498548428411289 -0.11038645757506794 -1.0884299863631641
Ni 8.589698189872612 8.091001924834549 6.040140915699969 -0.3622697209767632 0.3548819131531243 0.1275701684432061
Ni 3.962036784990318 7.203613341354467 0.9793456718906615 0.06817357165244388 -0.4965610101938868 -1.4367198481210675
Ni 6.958281064556824 5.428013594050914 7.730309686733041 1.1781743422078486 1.0315466429125588 -1.011207931355207
Ni 5.899259706056694 1.1589417640328055 13.137426967319074 -1.537835421917171 -2.174282184696823 -1.7242810245403468
Ni 7.824439681196784 8.38333219091474 3.491097523180051 0.11584208137300049 0.28460492200443244 0.3622229268992278
Ni 2.011458486438537 0.9669108449917937 8.833690307683831 0.41252296070536054 1.2362007981239613 -0.867114568445997
Ni 1.93921929583236 1.308253960072058 1.7508520941859604 0.4722010932922835 1.1816820982507907 -0.08606947809625821
Ni 1.9751263141927744 0.8245277330361456 4.079102907321038 -0.23894110141873043 0.4686871666017541 1.323949206584539
Ni 1.3211010013901985 5.350644829393249 9.507147001541988 -1.6320995200090793 -0.010757495626820183 2.099281819930533
Ni 6.305614395692211 5.874517598424563 4.9403851937455645 -1.1126040125062064 -0.0926928969500468 0.35728460905734594
Ni 2.071155637426933 4.017066485715648 11.732063238595527 -0.15910886248143566 0.14848532132931846 -0.1271546781723423
P 2.2585838035352586 3.353170208792372 2.7449321209466793 -0.8215834167834173 -0.9622289303533428 -0.24884036281031338
P 1.0567939218399354 6.793681813596562 2.2000798561685695 0.10020077529131777 -0.009241830313242149 0.11853531193444747
P 8.53521379521762 4.2408915214001155 9.245907499699273 -0.3996435336395311 0.3325104874364596 -0.9470650781287109
P 1.536644778786138 6.2349371834909 6.169475500365724 -1.2360413897279614 -0.3733666022208731 -1.803888549061345
P 9.135059715065564 0.5736111523792077 4.681067202615108 -0.21848540466753985 0.22439637083533612 -0.8740074389110883
P 3.519479317769797 5.085644564160353 12.805386404099751 1.4778544133778484 0.4841078720321985 1.8071805895490554
P 3.9672495413237217 9.328708067366055 13.359992253556303 -0.9199893049578413 -0.9864677482960493 -0.770250570837396
P 1.8977205796320356 2.0927090909189503 10.61021707530696 -0.4561666655372402 1.0036874546084456 0.6340481806404886
Ni 4.966582991311226 4.969836342781719 1.5396365681923843 1.9410988116974761 1.0941108387980254 -0.4641568828315683
Ni 4.191749277739286 6.559717781994109 3.333910737786083 0.5908065963430341 -0.3996288783515118 0.5554333590500629
Ni 2.740893159035868 5.212673151121881 1.7604291475772245 -1.0280059767491523 0.4662019382860551 0.3591239762589299
Ni 2.530386530933732 9.362812802951622 11.38029923208634 -0.6643262627987397 0.2892858724198695 0.1176588228667651
Ni 5.717256873224446 5.902522300002956 12.2797150492839 -2.7549781749684166 -0.5546031498392836 -0.1621533057347143
Ni 7.169231331495847 5.629776840076101 0.5459160737390579 0.8654703479743546 0.2634015484539399 0.5563147332137515
Ni 0.7639673348109771 4.052742442181851 7.277861846192705 0.24835108187872068 0.46975983084064254 0.2660518415925934
Ni 7.205304714420093 0.3807807591842252 10.411244132716266 -0.3572360152075977 -0.38428067803021565 0.665882551542266
Ni 6.4018193259659695 5.196951699839753 9.92673691647792 -0.2423943500746535 1.0634342356497748 -0.46141248731721185
Ni 8.202290575562412 6.153242940173603 3.280937487919232 0.08129262553290516 -0.839697866995941 -1.1047780887038845
Ni 5.940980241675461 7.855152428175331 8.799953422633847 -0.9602473811469397 -1.1424779172475032 0.7062331874451708
Ni 4.883798135853251 1.2625314324455532 5.208198868602376 -1.3417417546812698 1.7410402462765562 -0.9824401151938953
Ni 0.6786001316232982 3.308898749861513 4.727032807354323 -0.591600038778607 0.29330296399906264 1.099968840240699
Ni 5.742377922363084 8.306083578442065 4.189187263456272 -1.8183114093548942 -0.4876814483160698 1.0751818631040064
Ni 7.504529867423547 0.5499476416692543 1.0895603469342316 1.5274854461414147 0.20665935856688925 0.5094741187111289
Ni 2.9950982125712193 2.9945621489766494 4.794061090122251 1.6554487362579813 0.13789469029766574 -0.5046322172377954
Ni 6.241693433277635 7.905579375967975 -0.10445938538255861 0.679602729341836 -0.18422622637435368 -0.4917615319227144
Ni 5.73401348179264 3.3443898568123474 13.29907879275678 -0.0327900499468274 2.340501175860479 -0.8921632838845087
Ni 0.18293355014213003 1.4351254249455223 6.689898053192677 0.8265356185823701 0.019918850411114082 0.16292797911720971
Ni 4.067918587393641 6.63764109519788 10.153630454117513 0.849167497049273 0.32943364828334876 -1.983321210701797
Ni 2.731207044430536 5.914685398114231 7.878270632814947 1.034173796122761 -0.3786643602847027 1.0764013373334045
Ni 8.568856407014765 5.4989311106222045 5.52351979315658 1.4314105200930123 0.07433959125383972 0.46411420251909097
Ni 2.340342744182936 8.789021422294928 6.992017025359232 -0.4756558846101034 -1.0273896833213918 -1.0629197579072018
Ni 7.268745068094709 4.255420693308114 11.722282850737358 -0.6432229051612213 -0.4406071205360863 0.9956064773725242
P 4.519690802955303 4.8957024446430095 8.78189454922988 -0.212551298571292 0.40301502121492533 -0.5449183184513519
P 5.81372983529549 2.1782389616801536 6.913909786887667 1.3158543453915468 -2.0423365128937405 1.11908164981075
P 6.313812471698823 7.034013911003475 2.2471684217136505 -0.6686997092760871 -0.4096132432577333 -0.368413629090972
P 1.0213397847921748 6.915359007088159 11.448651961631885 -0.1734620458793142 0.26218850198244525 -0.8058037853516573
P 3.622616104869891 -0.48252100819570687 4.857612353506089 -0.6135158650150918 -0.6185385150406638 -0.17578735157838113
P 0.24581103704244806 0.9138054277214541 0.19100407998313748 -0.28051249710261367 0.7557449210220533 0.08947850377780718
P 6.358888026021536 7.527811663884263 10.975927053503154 0.17359471480243652 0.018542024668245487 -0.6606526706018945
P 5.796039736674684 2.089538921730373 1.5303700619869398 -0.9010271620330418 0.41330560450765597 1.0451287524723678
