# total energy = -381173.8404179333 ev
CRYSTAL
PRIMVEC
9.20203929900737 0.00000000000000 0.00000000000000

0.00000000000000 9.20203929900737 0.00000000000000

0.00000000000000 0.00000000000000 13.46811467048392

PRIMCOORD
 96 1
Ni 4.584842425672708 2.835350728929167 6.921277912308209 -0.6317146474113057 0.8525451552722543 -0.5095119139276
Ni 6.652862710059724 3.209137562096233 0.9994564849177245 0.4224337920611692 -0.16175709873756014 -0.7559030438664724
Ni 2.2413682992368735 8.479872385203052 12.902077049475512 -0.5828500605001188 -0.17541968382631723 0.5201925335698976
Ni 4.098118965143272 0.6903590672721049 3.1666903955764636 -0.22984350999283643 1.157617086881787 -2.254036776318647
Ni -0.1307674187613793 1.5058124961256902 5.401535369209395 0.7282564857937973 -0.01172397330514755 -0.24160425007319036
Ni 0.2763390782219013 6.268797199082524 0.07979732351489038 1.9231206299525008 -0.6359963055057949 -0.3070251986811615
Ni 2.329487026819538 7.549297764875973 2.5154528778495693 0.61825517947229 -0.10751582089549226 0.2718080273500803
Ni 0.7620503144369986 3.443697541845827 6.349448471837147 1.49804837182722 -0.27225745618267305 0.09360975233736137
Ni 4.120240667431151 1.5966918354747288 8.849090405896769 -0.5392618914965229 0.208422364004583 0.5520940102641846
Ni 2.910715430151182 4.930489422901198 2.117429713781582 1.621791710325168 -0.7314791064961531 2.274255417358367
Ni 8.608562903712196 2.471364067532729 9.592664865985347 1.1947358461109554 -0.49561047335515934 0.09428620957909568
Ni 8.692025399448909 8.024472666182744 12.021746483500365 1.6436064922074147 0.289048816708399 -0.9009914236991
Ni 0.4998538502942323 1.4960491325119467 0.558952106784849 0.48188181091515725 0.4905505423337487 0.44859065296219514
Ni 4.185547539784343 3.792473232409543 0.28409639728541275 -0.6969803013883351 0.10808686290761385 0.3314203396960744
Ni 5.0954819861381635 1.5546293141944074 13.072192387946945 0.7548990280819902 0.6226342823765922 0.3508738204349957
Ni 4.839076365277328 8.4784644732022 13.448464691907668 -1.4330819942581643 -0.3001850358308765 -0.5513255075292763
Ni 5.5969747196177 5.9528175763033335 10.606288810488103 -0.034251979204334565 0.1934418314353507 -0.6999843783219816
Ni 3.2899682746156693 8.275642326726688 4.545771487343213 0.22976226313293976 -0.04419134980523357 -1.6938913565048956
Ni 2.2989546606834392 5.306549159755914 7.355866299425744 -0.8211314168476633 -1.9474044422005299 -0.052244044906380994
Ni 6.753367382434186 2.267833364037181 11.35915640998622 0.8069684950837198 -0.9793555627313004 -1.4691136910707407
Ni 5.668649403111996 5.00751049118304 2.3119635835305163 -1.0481228021036852 -0.6025110292641559 -0.2847825852328773
Ni 1.880482725057996 1.5592211317658098 9.810551670869962 1.2911468153425376 0.8147558523386227 0.026517329564238204
Ni 2.895228398141823 7.150582607458549 6.277892494648805 0.17054770044599663 0.05217925310671658 1.7847585131001134
Ni 7.685616773899532 3.31940559808444 5.351312479547671 0.16961336155718532 -0.43987049948037793 1.543516017241716
P 4.942856963614555 2.3375572152165716 1.8278792678497358 -0.6734058565025047 0.23458590977382826 0.525355822938392
Ni 2.914911560036071 6.49952913051608 0.6745858518429649 0.057906899619113175 0.4085678327123544 -4.035597865527385
P 8.675452526811442 2.7922023670207383 12.49112410009775 -0.1867057982630978 -0.670513108335742 0.28165920911254716
Ni 9.306666407192903 9.358565908400736 9.621109289422145 -2.0840567754506623 -2.1926627440865403 -0.48485554883150045
P 8.41338765182954 0.4046513929190518 1.7995691941855685 -1.4256841591321963 -0.15646242599752408 0.4541460355627856
P 1.6875619727845461 3.4632426731517567 4.2880048848815555 0.4546044632564429 0.4561291274310854 -0.19448981308389085
P 1.9617735395384948 4.394369415832109 0.23892450695223177 -0.2525350380530812 0.3428671480804353 -0.24404576963514743
Ni 6.114451395224544 9.614198557966988 1.5013311030249428 0.6169878827240922 0.45499835626075186 2.210617785903064
Ni -0.3165197824814777 3.9141978072282027 1.2778503784977302 1.3038192686038836 0.1769978269467145 -3.558100556833169
Ni 8.896494710945024 4.3992833047762545 8.15752955230237 -0.17021834213103587 -0.80276988362134 0.6627540332156134
Ni 3.5637289414477773 4.6230308884408835 11.300232992240806 -0.15904587045398413 2.1272880753354717 1.6148785281451026
Ni 2.763933702533066 1.6339232861638955 4.884696394920583 -0.18623477216395024 1.083761120132585 -0.5314516514234847
Ni 7.2509124410878085 7.821365256491372 0.2911828876896953 -0.3830444916302693 -0.8321786758007604 1.4570007098572908
Ni 1.7967165620269818 8.214651210768261 10.678868054437848 -0.10989871930537204 0.3748586133853673 -1.6116283966389213
Ni 5.787015233614899 4.019487539997715 12.083107521435487 -0.8706536919475069 1.4228670013983755 0.7832500684208575
Ni 6.350354872700439 2.522564213759749 9.042640577652952 0.19515727146456066 -0.7701299860991317 -1.3206214277628867
Ni 3.14153938197695 6.380417934836255 9.228136204478778 0.47949068497516134 0.13464018791611004 0.5063317164274054
Ni 5.895718922935494 0.8534127608451526 7.052187962677517 0.3532760021185852 -0.04212264020166294 -0.22727652059660855
Ni 7.33414488584399 0.9893020346370781 13.043801336337632 2.015792443856625 -1.1357835359464632 1.0605826251335928
Ni 0.7907800010896548 1.150963459675951 7.767546209901985 0.48984117497154994 1.9352079001343383 -1.286232922980688
Ni 8.947639644936718 5.321631302039537 5.232214166722755 0.5787563500467193 0.6937178285869795 -0.23713901521298517
Ni 0.04118188612684813 2.7841505827021464 3.1414777283141677 -0.24093062104493346 -1.478174001500796 0.8839254693557486
Ni 9.246116989117095 7.636735541556265 1.9088627342202449 -0.5578645941993747 0.255321856769599 0.38464680312038274
Ni 8.018206077473074 9.335100708386555 3.9754907500730865 0.39988393178511134 -1.1707873057151579 -0.9320002133757885
Ni 0.5709202789960033 0.8852048861506399 11.688936330985515 -0.03834363277520493 1.0180815185465886 0.9986475781916931
Ni 2.4420647746522772 5.4600299719270975 4.7675378719635075 -0.5563013634773128 -0.4564312320525365 -1.2084501103732541
Ni 7.8427876037984365 6.261279133038765 7.303462526468585 0.26647247406977975 1.1971670812602673 0.06525254135090697
Ni 5.240377295715923 7.526163838273758 6.793209451650421 0.1625690531158942 0.0457628080574115 -0.6820051681357415
Ni 6.9074463271547515 2.1079111244111237 3.640081021478233 -1.6672644979459867 0.18403519340947014 -1.2557257555307664
Ni 3.7272675824877846 7.028563567384809 11.445122780595035 0.39625019168726594 0.651899864109929 1.0038134386633486
Ni 0.8173729742351376 5.170727060850304 2.855684474996357 -0.011834530741082845 0.7809342758034873 0.7795728766795864
Ni 7.741353525462627 4.660961694110865 3.1352286234790188 0.49126556612290234 -0.6538104508690804 -0.015380596221128348
P -0.016894944010210078 5.058673829253173 10.558556912843573 0.98171789231589 0.49084544786634815 -1.0843815273254034
Ni 5.266041783103983 6.213290498499961 13.164246827704536 -0.004915435023746373 -0.9706081555559735 0.13126304391376103
P 7.9327559412645705 2.173862139509803 7.355381351958785 0.11124186359682776 0.0844198583079772 0.06567163116619658
Ni 1.8712806858367488 4.263323175282326 9.587950661292302 -0.24231850253139556 -0.4119665739812583 -0.7813366534482286
P 2.554228430720061 3.0160511731168005 7.821661562154296 -0.46743143981778207 -0.03325336273649111 0.32151645031880116
P 5.987720911069525 6.4159286041910475 8.468830858341477 -0.2057021368599425 -0.44916529451874254 0.7286642627551774
P 7.807046883463112 5.87031209264563 1.3789062530215463 -0.9114961798851656 0.4475120751860357 -0.28137921597828314
Ni 5.571411454661075 8.904850162557917 4.520168653617937 1.663313997938671 -0.29595891356467097 0.9217507677336383
Ni 1.461118191628092 9.080204221958006 5.772581835096373 -1.8783268706765779 -0.9325247184206907 -0.022661960373890004
Ni 7.548699632326593 5.753409386378904 12.34129097627387 -0.25265587990166166 0.19906483404908296 0.02515515910938894
Ni 6.424394480274596 8.17540451348964 11.477029011186865 -1.1714550212061439 0.30553190196508667 -0.10874095155184497
Ni 3.87994781724672 0.16017897652032997 11.100702415194736 -0.7781767676630081 -0.37159022704674066 1.2313175018897309
Ni 0.6319914526956554 6.522883906059605 8.76285349533485 0.8258871863650938 0.42030671841583744 -0.04505369780552886
Ni 0.7541954537577418 7.4025160372578585 4.126279965772056 -0.840447857788088 -0.061372232459894295 1.430312144822511
Ni 6.579043951426878 5.149654391033647 4.883673128159181 -2.025392943060867 2.0378671642684774 1.0432320496702872
Ni 4.424220831065836 5.127201415333803 5.962819272732907 0.36446775706934653 0.4019564980434239 0.3315985171451515
Ni 3.398009417112334 0.4610175639648801 6.732980264539514 1.8833132681475757 0.0347793124627143 0.7062249599150546
Ni 6.462812994023302 4.378799565469759 7.352202967611766 -0.6454980743486431 -0.07173994884746354 0.40314820435867993
Ni 3.9251666379799293 2.446113671909626 11.305916171663847 0.47413404864893827 -0.09175238741364843 -1.0732010852285518
Ni 2.086424362829511 8.361497352660926 8.100464946479647 -1.3115485189273413 -0.11421328752032589 1.1208593105364633
Ni 6.940518456115916 7.218659293617336 3.221088250432867 0.1274945780102643 -0.5496674031005631 -1.6094763832929246
Ni 4.470589906701701 3.3376716459386153 3.896918217978544 -0.39999166100756917 0.9594325985551282 -0.48295241827151664
Ni 1.1930903952308212 0.6032258780900362 3.052238192354355 0.06656174708063375 -0.772789792319482 0.04897437301617372
Ni 1.545390466816275 6.064429110017843 11.320286996315671 0.5800205614711237 0.023561846480340067 1.339602339740764
Ni 7.342638368045201 7.5157011196792 5.392525652607872 0.31579780266746904 -0.506842594625553 0.4367558651107962
Ni 7.911315189879065 7.042154979314592 9.959226257955889 0.011864869758386019 -1.4346642511436194 0.6833128312035716
Ni 2.8496967080750912 1.6552352090003042 13.23681318879937 -1.0728681273691654 -0.40474434520120617 0.3147482783570321
Ni 8.180152765727806 9.044169036367602 6.8751894988685915 0.8832017038158467 0.00639998998907285 -0.14475927862798293
Ni 2.521763636347501 2.5741324415556193 2.271788400494473 0.248535687085701 -0.40937387355341753 -0.26953825747929705
Ni 4.8322944623712685 7.060457835325653 1.9727423702902216 -0.5888985806870438 1.4411100067689633 0.9394371292698079
Ni 6.85770010312469 8.536906624296343 8.660819444041815 -1.090612852947096 0.4146652038593439 0.7021955270406874
Ni 1.6957425856522348 3.20564998923138 11.714498675738218 -1.4235730263264645 0.16951745940926935 1.2376665840362104
P 2.94566477511348 9.25706741579038 1.3466494247353857 -0.11081634602363495 0.21504012643141676 0.05692705220434712
Ni 4.5420713473723495 3.910719436402571 9.434145017136608 0.005931534993086559 0.9038232367209401 -1.32926881902524
P 4.920615634816801 6.669895684658253 4.330523827307251 0.14514880075691777 -0.06271640519261457 -0.04548461469536037
Ni 7.370483738728695 4.386510874337164 10.381451705379678 -2.1141808485295526 -0.703936163880878 -1.398964226638849
P 5.189407200469435 1.778754181467107 5.107567024247428 0.18066344872375983 -0.6893562091841741 0.41186552962701967
P 5.6680604726018355 0.6686790628668463 10.197127498146719 1.2952317840451886 -0.12338107006252301 -0.8014365095218972
P 0.6170602238552595 6.977510653785329 6.395832270735766 0.15705403683493596 0.3230573124433597 0.43240375878968756
Ni 4.277503517722268 8.495893135487243 8.825373070007926 0.988844218948026 -0.9191416122455653 -0.00491054992773993
