# total energy = -381179.6870444419 ev
CRYSTAL
PRIMVEC
9.15194698879022 0.00000000000000 0.00000000000000

0.00000000000000 9.15194698879022 0.00000000000000

0.00000000000000 0.00000000000000 13.39479951108043

PRIMCOORD
 96 1
Ni 6.749313645863439 7.955650054502876 2.451328810077795 -1.1945098461430783 0.8104189155261655 -0.30099596176794613
Ni 3.2334285562343057 1.885346795904525 8.843072234564527 1.0903395446810513 0.5278173971050071 -0.8139081596263467
Ni 8.687183464324193 7.37575525083841 1.5406835650681665 0.6481635369959482 -1.2808549464982264 -0.206308917206006
Ni 6.661912554138053 2.867643547430092 6.7003196139846235 0.8629804916729653 -1.6012879339448616 -0.3869566822004819
Ni 1.563811449769656 1.553451446017495 4.208257319189411 0.8108691156897068 -0.10403866098016921 0.011414669594844858
Ni 5.125538640807424 1.1208755296308865 2.0185423989153026 -0.07673560228984204 -0.435651576303024 0.16335118269755736
Ni 1.3376027812695122 8.157715887403903 4.061142520324691 0.22887189010818648 1.247529592873219 0.6280382270009829
Ni 7.026022756681979 5.1903252720455395 0.35140730041671825 0.7750145678849426 0.2779971868799277 -0.160261230918324
Ni 2.5465566466873217 6.84165678884869 10.1078758551922 -0.15780737006119275 0.3263192710240832 0.17757529671673933
Ni 8.522622309317473 6.69249836026855 12.332564940076628 0.45892828744277736 -0.021706538439156164 1.2718604563090998
Ni 2.8879883251165355 5.7614525106971355 1.2297132262932753 0.5519767679600301 -0.30729953538847077 -0.3267846406962759
Ni 5.474218661084439 1.241040590819821 10.566125727873805 0.42826145448653985 -0.1821091800313509 -0.8177452739842497
Ni 8.070131756742965 7.073823374701004 7.238603261235707 -0.325479291621291 -0.5302578882256997 -0.9434771036671363
Ni 4.808853826464644 4.617825241377316 12.839544353375178 -0.48564436328138294 -0.17567190904643937 0.17479464864780864
Ni 4.66763013574062 8.65821755277332 7.456924782002978 -0.0545328409405577 -0.6514198391497168 0.018831787994522408
Ni 4.717581461252363 5.960699543990684 10.469709968572554 -0.5841867770336713 -0.8841846365544062 0.24362873670238688
Ni 3.089944334656232 4.42545132011369 9.279783000505224 -0.33369062378748987 0.8258542762446294 -0.5612196267145366
Ni 1.7699865067737923 9.022007437180031 6.894879020138723 0.9508343153631559 -1.455071611155378 -0.2930689936113856
Ni 4.514014709079823 3.53070209146195 7.043105780536911 -2.806226431620432 -0.016271226356197786 -0.2955506223826587
Ni 1.2831578498900018 5.949305370252662 3.1984900842164175 0.11615447040709674 -0.16997331599976534 0.18753986412861898
Ni 2.259331949021403 3.4088439201191734 0.1961390321679 1.193192155772919 -0.9113203164289336 -1.0480492685532725
Ni 3.838170895399759 4.802301032571935 3.288195636140385 -1.5475140826575153 -0.03523722593573931 2.117693746778817
Ni 8.268756457655643 6.9730604406804275 10.043674948547844 0.545824375205389 -0.09598030945206697 -1.8360772179787475
Ni 6.062450888263232 7.3505507894130995 0.05473047211896915 1.6792442960156821 -1.1881641064307085 0.39624067860556916
P 7.996577560491978 0.9508232065576506 9.722253086553017 1.5430511617901554 2.7682345257576904 1.6835038426229847
Ni 6.72791639429758 2.1643896531513342 4.318121864280238 -1.3383784946359918 -0.07209398975277262 0.14169272388751725
P 5.251478580412978 1.5829390185346883 7.93515976086267 0.44316459685061743 0.12003966439411584 -0.16406389249386583
Ni 6.37362623064594 5.079193182326025 6.690903175945226 -0.09196476053477064 -0.2711500820511072 0.45240257050911764
P 8.902583683680078 0.2641535550344501 6.2905723136398795 -0.034922522908797916 0.4685005045122448 0.28040502499047193
P 6.060940817044941 7.043365695825393 6.45337354928128 -1.9026245668816777 3.7904208105012724 0.1476042042759458
P 5.245053913775153 9.052163101811985 12.375267008545892 -1.7031038762420991 0.7373635903013881 -0.08151631150793703
Ni 1.8290623232227317 3.692060065096535 2.445542034130364 -0.14712803597047566 -0.33144090852136465 1.0033177299738527
Ni 5.970052833597316 4.090563283630409 2.8792125233515646 2.405930351998566 -0.6335293320225412 0.6999928629624138
Ni 6.274226936695216 3.0620675047718837 11.69260133373786 1.3125232241357847 0.6991084034749315 0.09352799125683248
Ni 8.561353348079969 1.487383542230525 12.073710362226366 -1.7602124483296329 0.6781181743765096 -2.0446613043721755
Ni 8.225678244173821 0.34003600654564053 4.256693082314797 -0.4736910475742487 -0.237458603335933 2.007684727147826
Ni 0.7228381451879886 5.356716816407765 10.54256404089506 -0.3079376831931019 -0.7396896673314035 -0.5715927424187446
Ni 3.921956968148022 6.851174813497319 12.54906522343517 0.24862336170350083 1.637245582986393 -0.08025621384859082
Ni 6.8216872409801255 5.240331509237949 11.002970112237453 0.640468996565168 0.5253535089455469 0.5340883177153835
Ni 5.289413399805829 5.969906402448875 1.906414577386393 0.6874839318621256 0.47290557555847584 -1.305301509576365
Ni 1.0914794765814688 6.514209285095538 8.097571123571349 0.4112088698796273 -0.34799341356340713 1.3901677113931414
Ni 4.336595068850677 8.010946116932697 1.3327165568849904 -0.4803872286475018 0.8769225556753543 0.8239277486458778
Ni 9.135519033061705 8.690697811886764 8.457931773520523 0.748528348668956 1.0418765640836574 0.7258805293624531
Ni 6.718306850181176 0.42093097930688267 6.547886618847484 0.626403005390405 -0.65054232164077 -0.2877241843597044
Ni 1.8616066459636191 2.113989882247491 7.020094125559496 -0.37339025636995693 1.0419657813633538 -0.9005764476488684
Ni 1.510153585813013 6.548163007640165 5.803524010033428 -0.030578901228121527 0.10816785265719436 -0.6731759998798859
Ni 1.994575280694314 3.103031618548096 11.03222431011182 1.0936107592331554 1.4936083337779953 0.5740700003146436
Ni 6.617461548639602 2.955584604015353 0.7280465180990794 0.4535271710318641 -0.8602525512188411 0.5540053683542847
Ni 8.68582897620112 2.787024048266854 2.902920641478749 -0.19466310543696153 0.33029239673921823 0.792218590468055
Ni 3.748170650789555 7.015177699750608 3.3851065157623004 -0.7090925112708368 1.5309309814878538 0.1821271777534799
Ni 6.469694215969645 7.722000853272603 11.212974343773306 -0.4024234103775134 0.048242894166787884 -0.4928871608867254
Ni 0.18557860078131116 0.5154010347232311 2.4533111217498065 1.1994486782055924 -0.08463197431878328 -1.5917856508813812
Ni 8.658830733207415 4.190163920410239 12.231567716218548 0.07423443313454313 -0.6550420092833363 0.5733297797145094
Ni 6.732016466453912 8.753644901822597 9.027679813792744 -1.3520541923508715 -1.0413170920357615 -1.2476715177677222
Ni 2.997189354065992 9.152587413801793 13.1664582986312 -0.45254706650678195 0.1968562564335384 -0.5886805511389668
Ni 4.0094312754476285 6.310514405668112 7.879665101187777 -0.49461725620395464 0.7866506094619743 1.790874139079548
P 5.250279675385122 3.904467597856167 4.93847467906412 0.2509795206405033 0.4338487187663303 0.9519267770963862
Ni 8.212609264175512 7.196761475763529 4.106149048992538 1.0214699754028471 -1.232249269675381 0.1685869771752
P 4.411686792160289 3.6169317339998126 10.651906009824891 0.7364390216045897 -0.4439297571514161 1.659317218074452
Ni 5.648078194017127 8.742561894275012 4.37830415109458 -0.54864950335901 1.516747233788304 0.21867849451495244
P 1.720392107186372 7.225452828911077 -0.28578967241120257 -0.6999995478306331 -0.71850429150304 -0.1401624032859199
P 1.4823133637157748 1.4746348803694294 12.354813322692797 1.2189957470995845 -0.04045373713967226 0.4930673952183315
P 7.245266793684425 1.190942834159636 2.3388120308108395 -0.042479252210133295 0.26717927032881733 -0.17786685981522918
Ni 1.0471749022314587 1.4348879755146282 9.975883733182664 -2.1811688845143276 -0.9167327456937567 -1.6021363979880858
Ni 4.281848123227508 3.364640017183716 1.6703181455878084 -0.9355629910263823 -0.3842148577892867 -2.8693269596253423
Ni 9.311373690391893 4.5683315132044475 6.4392813816332435 -0.2251846710645864 1.6236359626227588 1.5273540627698727
Ni 5.907901963031128 3.958711186406572 8.8892172654115 -0.086099045782613 -1.1160947992682841 1.3792865457042631
Ni 9.395297042341818 2.480397223432577 0.7277664685276872 -0.34486129569232865 -0.011604931228780013 -0.1923264868839849
Ni 7.506243707992395 4.59356343047009 4.824311464571888 0.12526543156942943 -0.4724512616298767 -1.2581793592775816
Ni 4.565311370767863 2.0092641552722452 12.96083418882307 -0.3567775875139404 -0.605552644303957 0.08605250881539372
Ni 0.6359834246852207 5.082259084496497 0.7842028635259873 -0.5424737135656011 0.8142832835775782 -0.5438911627384181
Ni 3.5187679528640543 8.062114651365851 5.479303482714033 -0.34279130053717743 -0.545832602735505 -0.18193923011238988
Ni 4.529664538069395 8.276563068256873 9.749739128309963 -0.681504317239923 -0.9028876122805483 0.24655259521740117
Ni 0.9282453538574906 3.7626307266980485 8.481211580538517 0.0387192709470688 0.3584408341489762 1.6328726507296785
Ni 0.31671959174053405 9.182605799232082 13.657739377622258 0.9843432457538789 -0.8350302863169425 -1.2147457135739788
Ni 6.952047570879225 0.41631199176826456 13.669660703494666 0.4234941150048836 0.21952130213122195 0.2236715768541696
Ni 4.066740766168505 2.4642897971041284 3.8381187293031274 -0.1823763176498085 -0.28033149144005914 0.003937644491509348
Ni 2.6909377590495938 1.3058546778982698 1.796175717672365 -0.5949728119055817 0.17210501763078745 0.49622008191470024
Ni 6.167185767185256 6.264342834175487 8.705119449618792 0.9617622751295694 2.000891358375077 0.7738889389209317
Ni 6.02974183048035 6.478608212130958 4.4022538806166915 -1.0637147430046712 -1.513034046602775 -0.41255664215677335
Ni 8.127697501973612 3.3865131699820066 10.020354872964027 0.3487146080001478 -0.9017750959426599 -0.40586200374541714
Ni 3.888570666303602 1.1785144904357538 5.908071274046512 -0.037363271139806614 0.9696781875425364 0.07150520712883814
Ni 3.154291672449027 0.747694832635753 10.763805947879039 -0.41253041690452824 -0.49039859013691667 2.313435172881622
Ni 8.91164411098983 2.5460898974016684 5.53482468303458 -0.40504156472665087 -1.781546433920719 -1.552315617811217
Ni 1.9214420739950928 7.943340686087102 1.8333994308006019 0.18771161381979284 0.2670715411063594 -0.8232170957320983
Ni 2.4419041352862965 5.198552872198537 12.117323964594673 -0.5969191369986753 0.36271169361018823 -0.08132656409463412
Ni 3.7509345387163684 5.642532114269944 5.811240016361562 1.5671441981836172 -0.3385417812322041 -3.041900689362432
Ni 0.9274582864346232 8.39968420825495 11.24942105662013 0.16226386317064959 -0.13203514619309517 0.17437684438409967
P 2.329609748326036 4.8989547424894 7.201606516387552 -0.10079521434220705 -0.6392376952612282 -0.12990370167238918
Ni 8.628336446544694 2.1327239173010897 7.719182053665124 -0.42982854186334357 -1.3081806308963728 1.5685547053778985
P 2.2540604276775476 8.76529533007039 9.084339516292415 -0.025702289862110574 -0.13528733458180572 -0.03964898185018978
Ni 8.170601828466662 5.086221877451167 2.536787858696989 -0.18920722452871286 0.6893706073618773 0.16301333974216442
P 3.5117667135792456 0.3726663575862366 3.723887790404742 -0.22854227468290964 -1.1722098970942973 -0.04303049672791299
P 8.044369026564226 5.117155457559209 8.483516040737099 0.8500079906726974 -0.33595859388606014 0.5360413276766962
P 0.4565668296692187 4.304169721417898 4.377487797442025 0.5759019113170597 0.10374606944041487 -1.884517315758006
Ni 2.4492714524422063 3.6806841952520686 5.214207277161497 -0.6114859790692565 0.0577451772302683 0.08502201066835036
