# total energy = -340889.420895641 ev
CRYSTAL
PRIMVEC
9.08835917773207 0.00000000000000 0.00000000000000

0.00000000000000 9.08835917773207 0.00000000000000

0.00000000000000 0.00000000000000 13.30173232203367

PRIMCOORD
 96 1
Ni 6.2577897661594575 2.044726330636632 11.599336593860755 1.6343618336806949 0.34612936377147485 0.4398262765060038
Ni 4.608588830371796 0.310690105367866 5.587538721192995 -0.4966551125695899 -1.4548422687533913 1.5748472232548296
Ni 2.696579809959878 1.524790385923516 4.776199987126454 -0.8113666241514155 -0.18830708131194665 -0.4626286191125001
Ni 3.435499770961735 4.237674712389806 4.948497101913834 -0.1002416558315822 -0.6081348032088365 -0.4892647336427896
Ni 5.307201918070456 4.292041277463026 2.782456625411795 -0.7560652804759496 0.29728817389905576 0.1674397509446342
Ni 7.178749563071814 6.235795936758389 2.592135476546646 0.9518277896246767 -0.6123092463015003 -0.11963060188115525
Ni 5.193970050091979 4.85870047711453 11.812217776908662 -0.27847695472982364 -0.7859492125195755 -0.9686659442279382
Ni 5.610453201386761 7.912425540782589 12.422394767188734 -0.221478940078225 0.6680250518065657 0.8540106840741872
Ni 1.77427493587754 6.43524906900461 0.5267676643663328 0.5770632786150126 0.046926489348209505 -1.8110159041347456
Ni 2.7760938650962217 1.8648586125884707 0.35156590996052994 0.05162132372071755 -1.4655563127367857 0.7915637304928755
Ni 0.569492950067723 -0.23765514154558146 4.588086400724743 -0.8327175790233659 0.37886104967654105 0.10126366933819334
Ni 8.610929568170167 2.4569833948770783 1.045692983530111 0.44955275976514836 -0.7375078291887364 0.5582577158727353
Ni 6.878742824010128 0.6981014130725097 4.952647755586343 0.9094143576554725 0.4598238026738532 -1.1942105697351046
Ni 0.8259164623141917 7.426570943281872 2.287392793476325 -0.23769591615771965 0.20734404333873965 1.1249432507978496
Ni 7.787233392022373 3.9668688716197047 3.7006880968753073 -0.010065097545485891 1.233788846248359 -0.21813753440981787
Ni 7.605602532278423 4.025434258669493 12.720739245342381 -0.21355120059071608 0.05086773338414466 -1.1705008848229908
Ni 7.969145990903279 8.628951784576085 6.846534587640521 -0.59900815831722 0.6080795244908689 1.0152846725277418
Ni 7.028628044870634 0.624095812481616 0.5173457623249742 -0.40323690741774426 -0.3008103281197013 -1.432101632622766
Ni 1.790706689413545 6.732556565367074 9.479066912247006 0.21803906115874058 -0.6797996758439906 -1.0991373454783393
Ni 0.08738639192444474 4.804679269693061 1.3613925925202368 0.148748345182718 0.6846983986971885 0.5196670000837308
Ni 6.518898327602725 1.9890692185489691 7.12065677070337 0.20537560675845917 -0.711122397216672 0.1458201157923295
Ni 3.4356451847098413 4.495565994656222 0.5303612016164083 0.4131572518552497 0.4114924625583171 -0.44598612545981253
Ni 5.8637730389470875 5.4682294673796035 4.716541270458092 1.2226659968623201 0.8184315014179969 1.1846324391283662
Ni 5.403247698694628 2.659408420600221 9.229978614756572 -0.5905597704395507 -0.17000391212738464 0.025090110199408402
P 0.18088016126935152 5.56195771639333 12.346801430235706 0.40492149420901874 0.7474220029786548 0.5008298127725697
P 3.8942528811591512 6.452062533629394 12.722974072883588 0.31019948264408514 -0.4694777808238495 0.36768754955822486
P 2.3707893956871047 8.71970814011289 1.3642390666394166 0.1389951224506961 0.24049456194877933 -0.5646469072285308
P 6.056818877917378 7.705910753393958 5.87701114304031 2.09335465581282 0.31565484933170157 -0.30105535425097185
P 4.84855786818412 1.0607660273572486 13.118980241937235 0.2907372601544154 -0.013531458827531534 -1.7383354457508835
P 3.8562090093108568 6.204386567167441 8.200850983643537 0.14407510807676477 1.1183357727836611 0.35969244716789023
P 4.9436857245233705 1.3423052204094417 3.8093630615225056 0.33425189560759855 -0.4280719641835531 -0.8838527071362843
P 0.07298134250267035 5.922538369900522 3.6477738516112983 0.5022043245225931 -1.1668977408527645 -0.09530719464444232
Ni 1.1700353706998308 1.0941293941883738 2.5742977538336387 0.296107009106761 0.35345263690576545 -0.6163124539236224
Ni 1.7764834071769036 6.618243182637056 4.979277557044223 0.781941376911763 -0.7924399624502416 -1.5143792477767595
Ni 6.124999749060691 5.731564676840747 9.392353058907554 -1.4099999156277203 -0.2117447435095966 0.1377936459434272
Ni 8.53077932788586 2.3935193821879617 10.071539778695143 -0.41605668489023184 -0.9132661273013949 0.027105340857224287
Ni 2.311415144663476 5.195133360076828 6.927675459083804 -0.3587534802933886 -0.12489365005230749 1.1164886922725932
Ni 0.40804733623277045 8.927449856001168 9.003117717500102 1.187136950717775 0.53366151459061 0.4664747323314676
Ni 1.5700231499438129 1.3387516719400954 11.519632592015949 0.32459483213380874 0.2652141761826465 -0.9868379871512746
Ni 3.9202728537109115 6.920949164397964 1.670990277105455 0.3747238875797159 0.0745103125037491 0.04457007330089098
Ni 5.295468846270134 7.963311264260517 7.8904944210603905 1.0749016128594262 0.10882451240458678 1.1426010730889289
Ni 5.639145151559974 3.035257517658567 5.142861661812264 -0.9571980527976547 -0.7677200911060585 -2.0798681912906116
Ni 0.8126129220343222 7.275113436269966 6.987705889645762 -0.5019559559572129 -0.14979504127967752 0.8996585638202892
Ni 5.018210270427818 4.529002068361401 7.257584717771686 1.5994673357963551 0.1789017288376467 -1.092522668375299
Ni 8.237461621237061 7.044805324347453 9.429877076606369 0.2219042005411017 -0.3209590351534343 -0.008896274048365325
Ni 4.798608245709626 0.5346445453340627 10.66429165777246 -0.8545747841077733 -0.914930145267379 -0.5174131710525476
Ni 7.896457293568672 7.164108216309367 4.928717196827684 0.5146672328762942 -0.13895295635885102 -0.33327693328883895
Ni 7.19668998424442 6.0804213469068715 7.416912743899841 0.47609708591258 0.6057609036600213 -2.365918330382003
Ni 2.2561124785868216 5.295823292281143 2.7953993578291763 -0.6549509922314268 -0.01403359527493067 -0.4167398270001855
Ni 2.4246379242826968 5.410763771799868 11.628507500566794 -0.7938944355085812 -1.184906261615043 -1.1422879127238843
Ni 1.1478779508321426 3.265029416384939 3.725509314841117 0.06285935852838208 0.40297928288098345 0.14813873662317711
Ni 3.6023984003506717 2.6605899073035837 2.759191334550722 -0.3368859907963359 0.0022756834080541453 -0.22757605411489837
Ni 1.290219833509638 3.1017752190579153 8.513467821173812 -0.9191521537685268 0.7351915223507338 -0.9501987386616861
Ni 3.928997678597286 2.4825580378252634 6.556516864237809 -0.4470091674076882 0.023839268511442815 1.9008168242489782
Ni 4.242273422173666 6.661303828795016 6.030566243368648 -1.6213777627162012 0.49265499027126125 0.04159119317822515
Ni 1.1987454975915566 7.631758830219033 11.579104997319549 -1.698000750687579 -0.5173632916512186 1.094074072022819
P 0.3697380842941816 5.4225059319594475 8.252940005887044 -0.4774029492081972 0.4378596396979363 -0.49433494907684544
P 8.534205639325613 1.5902538376490936 8.053201499160165 -0.3098027614262987 -0.36126467675101653 -0.9243565807876015
P 2.211443192840436 3.455621398355936 10.511520882847968 -0.7456314867371353 -0.5190332231544739 0.13289852263465501
P 3.956417258474569 5.973533153689529 3.8800086956962194 0.11421997238854521 1.5669112562372047 -1.1878856559583413
P 6.710780856588164 3.893207719844638 10.372877053552001 0.2850911176122316 0.37209133505287534 0.782515247137362
P 6.145430380669618 7.821232944001464 10.301686117822888 1.360075519993451 -0.4172764162299459 -0.49817437742759363
P 2.4322994111360443 8.545402497929794 5.633643058866005 0.17224951362845176 0.34045468198420076 1.0642402764908383
P 7.01963056920656 4.162386744307801 1.5085894767126296 0.8701027045400435 -1.0073407350903165 0.5737774087748893
Ni 5.286144189672821 2.986489381887437 0.6760221530944286 -0.3508131424003894 0.15593097897408628 -1.2093579668995045
Ni 1.162937362120395 0.8556517561300664 6.844020747470135 0.7781047767744922 0.5029589433004307 0.31100732325736113
Ni 7.047868101416941 0.33615659684089694 9.284636007326005 -0.5853825971139854 1.0897438200785814 -1.2174721113662064
Ni 2.96852169563706 1.5967065727213081 9.300770571514319 -0.1885752473716688 -0.1561052997684215 0.0951524142341329
Ni 6.592586744455561 2.0342656291322396 2.3635050757429084 0.27920457692446754 -0.24017034584014121 1.9987889673200927
Ni 4.153725537936222 7.059810205480166 10.345621972977263 -0.9960669619487102 -0.015326860165057476 -0.0093870976418548
Ni 8.364326028100498 7.346657000338237 0.21220500911921256 -0.2642320147750353 -0.7845060523151457 0.6742090691300905
Ni 7.699130837388505 3.9090032882326784 8.165907151137683 0.47686481731653996 -0.5919885324662773 0.2201666490247047
Ni 3.283297018490785 8.543775681622854 12.4464707396955 -0.6170675869220922 0.670323360922439 1.0742184707494724
Ni -0.2937212297997935 4.657765942309476 10.31486787408872 0.8007433401096145 1.6109691657883671 0.45147903025358377
Ni 8.891232744363458 2.572405557436406 5.829125486952999 -1.0518498732462853 -1.699728532011963 0.27682219273522
Ni 3.8577449420252283 2.681947551556688 11.678442581666475 0.24745736641985772 0.4501713671857538 -0.31689694926891876
Ni 0.979088942717825 3.324730848341807 12.631524275535499 0.5512566019645538 1.6542721994513767 -0.46169710843716616
Ni 2.919744471506673 8.361181455797702 7.95830721365381 -0.3750527316740444 0.3424539718024167 -0.027269377238914327
Ni 5.711752053661272 7.836992158952477 3.5856285598503197 -0.6589757971201038 0.24756252453915428 0.48798895225415956
Ni 2.987270980783508 8.378031273859513 3.4609908010047588 0.4491879202265619 -0.1813224224639974 0.48063148344782386
Ni 3.530573097145446 4.295067701095488 8.944989480530557 -0.5776893422347857 -1.0088111489882563 1.80043941417048
Ni 7.170688188411173 6.317891085923618 11.599123926254151 0.7790355161188777 -0.9631704683310058 -0.11111973619666671
Ni 0.5213564552649294 0.2018106526373934 0.049136214321024045 0.5457773240175375 0.3715591166984891 1.0305264291781606
Ni 4.758228665532375 0.17257430974470822 1.8393639472017442 -0.17989288910632242 0.6933547888206059 -0.3740610571847364
Ni 5.736054326313527 5.595239287991147 0.657492806241991 0.012045875420940546 1.275913286222235 -0.6820568473092834
Ni 8.032673622107193 8.661433580559317 11.38851755952818 0.11465808836722835 0.928130446007737 0.4144304621407185
Ni 0.2277288355654793 4.833780196032823 5.720663189912407 -0.4548039808617586 1.4819728064215962 0.021112613608899124
Ni 8.141234073427757 8.793741914617481 2.5628709597402652 -1.3536331068022172 0.9074261235808501 0.19531436586771525
P 8.406214275914351 1.9483624574384786 3.6870010278348073 0.73764306921502 -2.8127791451372848 -0.38990805151932206
P 1.9657939304927141 3.4123426315758163 1.5587372254189176 -2.368279888635644 -0.03448697803327609 0.6109843568424898
P 4.544761283312414 0.995066278290998 7.9830084652774325 1.1511875292063594 -0.45451884552117205 0.018621728866245347
P 8.540113072842429 1.7604060996519073 12.076403656796227 -0.6951231935749382 -1.0463181447947787 2.31376273142437
P 6.371257931478607 7.698394680288717 1.190611416056864 0.39121648591810043 0.2708371787963787 1.49686026505639
P 1.8895607730480182 3.1553329201572944 6.133441925974183 -0.4116994363628006 -0.1255168854586032 -0.2817751658651212
P 7.210586085547822 4.063141861225292 5.923101848174434 0.3274770387776102 1.3408986899546842 1.7836871344128054
P 2.3973728465127766 8.850289685912296 10.365907190838083 0.8243386109310512 -0.8597342168215257 -1.6273458073741782
