# total energy = -340860.6686294763 ev
CRYSTAL
PRIMVEC
9.35770080915396 0.00000000000000 0.00000000000000
0.00000000000000 9.35770080915396 0.00000000000000
0.00000000000000 0.00000000000000 13.69594102509306
PRIMCOORD
 96 1
Ni 5.5638737461551955 5.3120954449191045 0.5479663795481606 0.0012058473826430847 -2.747616078176391 1.4422770304938708
Ni 2.3555298359269394 8.315009746620046 2.836333188586607 -0.21176788343804817 -1.4507477869690435 -0.09001483589725143
Ni 7.67241642372246 1.2189434809081445 9.26324991193025 0.21125751946053292 0.33469206846881067 0.22937222678337268
Ni 0.4897998463342521 4.572406617166628 4.5482581341453745 -0.514732538896591 0.22079194131352944 0.5348624768772465
Ni 4.649794803861881 2.291214357431598 10.488529492138438 -0.9147175150359408 -0.7187691151286524 1.8772799174693025
Ni 5.835022488317427 7.991551456256307 3.5902812810169817 -0.2288281813544446 0.007710481270380269 1.1201378589894064
Ni 1.1229053962584008 6.625617209131834 13.308701931218069 -0.5794883431167375 0.456690142140878 -1.822442143693816
Ni 6.942216304713514 -0.0029841708267371457 7.331793302541902 0.2828969381743902 1.0273907117626564 -1.5465393774490719
Ni 9.321177823770432 1.4143697071407522 11.33644574577273 -0.7122464835187863 -1.6451401552431213 -0.05922613265116897
Ni 5.393994043462859 2.5210956384903147 5.392256318400064 0.8021497335388379 -0.567788538181306 0.10404457451744017
Ni 0.4024054700340131 3.171923738206741 12.794665639473816 2.4591295617293647 0.26435979860215114 0.5121940887454534
Ni 6.361720685190742 8.075405814294538 9.341549538696135 1.6503612944327448 0.6445148844997675 3.529532001166857
Ni 7.521982023563708 2.6263978470612557 3.959482820839294 0.6178584582545036 2.288385686112162 -2.1876593773346777
Ni 5.366931572371847 7.571680773205605 7.553817857899369 -2.4924310040949718 -1.5444693822939208 -1.3255116659756527
Ni 8.540867216278647 3.417385591314744 10.309551296831375 2.9913144917744483 1.1012734179847357 -0.97367599584802
Ni 7.743123211953335 8.77180591754251 0.41127376320585 0.9235309995625127 0.16449018139800706 -1.5751385292430033
Ni 7.511042871175951 5.640700470794618 9.679770538047833 -1.3686995142170364 -0.5803540335511425 -0.49258659892717105
Ni 1.7509942827137073 4.0090823788513275 6.577380132375281 -0.4342135583049167 -0.2551907305083734 0.7111828181409623
Ni 4.4296268163690256 6.301999837852278 2.5235726219266184 1.8323509181670958 1.451412417136236 -0.11707569666978547
Ni 6.424005542584165 3.3653661318420824 9.467004491991005 0.25313693330313825 0.6242885301505636 -2.3962151815933317
Ni 3.7947816698418975 0.8046191071989509 0.7336325237102544 -0.19691976268162217 0.3450710977102896 2.2169982355081106
Ni 3.44191212545359 7.5049042193655415 0.6504706355408815 0.020525116536545297 0.3530500021507081 -0.344388212710652
Ni 7.056586125486112 2.224971192544573 11.281895028198369 -1.346800914371732 -1.3447756564115871 3.025507849826705
Ni 4.175265789676116 8.74554820873152 5.8356354177283745 2.163519289753364 0.4705725565499251 -0.8974967802822801
P 8.483111486135586 8.716848139977671 8.657368721323213 1.3963404158627566 -0.13876860826218682 0.12307279479348482
P 7.0308430902263 2.649221279630751 6.894961786554664 -1.073673653989596 -0.8723241376713945 0.6522153384678187
P 5.489919835701437 8.641106908646185 0.9175291266263903 -0.38675742170548233 0.5853034071366178 0.39218990557496325
P 8.11665455999619 6.061684720256051 0.2634716843188472 1.3466924138183258 -1.7168443657566432 -1.7960045183275781
P 6.895671100285197 5.6162394405622855 4.0564641617428325 -0.8797178590323044 0.20316728625323074 -0.00772847899250927
P 4.47349571833122 0.4513434385902604 3.388211087123717 1.0122289164205533 0.13610725937993978 0.2864653722519389
P 3.060351870012364 7.871520226420755 7.460850034924922 0.9598971968963728 -1.0464389866433592 0.5862909678608678
P 1.9649955452933616 2.0450132459500856 11.274060760979351 0.05995941127276771 1.4024164468535072 -1.2381766909034093
Ni 8.710475545643998 5.3200588484109606 11.8049016120546 -0.35790321647795137 -0.6522243373288831 1.666745135107407
Ni 7.655694212159653 6.9260555552065375 7.733112343497884 1.3654992621121838 -0.9697188109724848 -2.0101226471653573
Ni 2.531941213868767 1.1820834969428964 3.1477378243817653 -1.3145903910774586 1.696623153613762 -0.026170230637464608
Ni 5.368700177847711 2.649165133425168 13.563857426719979 0.9443245392690962 0.5200608930880398 -0.10062526442324606
Ni 3.6166859057325795 4.556769898911759 10.644554182833074 1.0186379052706909 -1.299065298858666 -0.384023567714087
Ni 0.7222788251712762 7.163404281607795 10.793114235495446 -0.4294575316771701 0.2656849451714779 -0.615749896551933
Ni 7.348321809695448 7.000196619678905 11.492867202986819 0.5657452824990322 2.180493198603542 0.8337503911632544
Ni 1.014683584997143 7.736179797862902 8.070347041171507 0.22579016585906925 -0.868638204179375 1.0304127864184318
Ni 5.221868492547202 6.26461582263492 11.143894205265973 -0.19511304849018657 -0.4514759449297902 -1.959806929629941
Ni 3.9310765838946615 8.318359803553166 9.715188500299691 -0.8390823448991291 0.14187424377070404 0.3747028045337934
Ni 1.7700091310044876 4.805909328485449 0.5604860476230795 0.27449174482983046 -1.719518827265013 -0.3650647672233971
Ni 1.626742729758499 0.307798177856543 10.048561274799297 0.7771902353800227 -0.7471062715104487 -0.9930618565737993
Ni 5.001045465989211 0.6736646330672242 8.348758295025902 -1.0418567665893153 0.8787359547350092 0.3984168603212816
Ni 7.220224241657803 7.0962814928333025 1.7105680789238449 -1.3080893567341472 -0.21838461742361742 3.171388129433009
Ni 3.6608823272273416 5.5072970863293795 12.766835836906502 -0.9278422253433568 0.1794185205730652 0.6970075550818448
Ni 0.4955043008214862 1.2842134448983973 7.877877848432938 1.3001014534326643 -0.5238458140517688 1.2982600293485511
Ni 4.881491478901116 6.105628483825689 5.662573160949575 0.47993394316016696 1.2026946959467157 -2.2114353967083527
Ni 2.7004079037205977 1.743255464044182 6.188661235722221 -1.1295390976986481 -2.6860510129793997 0.9782618154464894
Ni 0.9544480641075005 8.54413305390339 0.737556207710414 -0.3805628628589962 1.152938193348879 1.0079045780135867
Ni 0.8458613025099532 3.6298896217455185 2.4505329588537696 -0.09848790636526909 -0.6896488007239284 -0.8184587551115065
Ni 2.603836430117815 6.362731316891237 9.538771507737305 -0.7159259892529024 -0.7110671184987045 -1.842804252289936
Ni 5.903614436138008 4.697827882738149 7.301908548850251 0.6462195258957 -0.5826762539264159 -0.11542453421960766
Ni 9.421239719820292 6.908837385494413 4.549503644139224 -0.05810718855537734 0.3153041508605022 1.0922449892338801
Ni 4.790179033221276 4.432106607115609 3.9282421362828126 -0.08732777598339155 -0.3809469856712923 0.20305621459666318
P 0.7480471262236 2.4223157474679335 4.218336479748938 0.5667166452733658 0.020543628479306554 -0.9823789229386566
P 5.522129042304225 0.35400182620089754 10.546340432716988 1.0393622823022357 -0.1663732573533328 -0.981618390623548
P 2.963490307680736 6.859737528712068 4.366567141338558 0.5127905846788717 -0.05951975263218782 0.09141685845110063
P 7.306361878723076 2.604613119295047 1.3857276561326712 -0.782283333632214 -0.4167956199387854 2.3779107268571886
P 0.15146000418073613 5.511816855878812 6.745018665694763 -0.22021267177129172 0.700145072269562 -0.9512374643388457
P 5.950917614341696 3.973466969109836 11.655300983048754 -1.1979152722802013 0.9958373624364075 1.0987923034340947
P 6.584508828944138 7.9214248454831235 5.717247400176219 -0.1366153093646099 0.40400155349791067 -0.045134173334477105
P 5.199896610762383 5.153903510688965 9.214273576800188 -0.396780096048807 1.957647717195093 0.20810843230858997
Ni 1.6738587539435779 3.2701795979770143 9.246376105612368 -0.009456260316893391 -0.2060914018785612 0.03749516873198058
Ni 3.670960571129492 5.392468738211187 7.4011497745285055 -1.164899222365497 0.7961513498635578 0.5159694966274855
Ni 6.832899642443388 0.5045204456680251 2.28033322278961 -0.3499471948556683 0.23254239698123824 0.7546596583776745
Ni 0.39954294931937245 6.122247760678261 2.208045918871574 -0.6859721232032896 0.18734188918519992 -0.9952802043813568
Ni 2.0147972296454943 8.880383321439126 5.462407259195667 -0.7054752262332237 -0.975975590515474 -0.8810219225557084
Ni 2.320073507101267 0.3657092458350488 12.638231081478425 -1.3348159740957142 -0.5094746329317613 -0.4182374945916345
Ni 8.313690310788845 1.653047227074141 13.568924621773846 0.01895108718120607 -2.091243780117405 -0.6695538297462662
Ni 4.243193340730631 3.360359761844264 8.54196674613798 -1.821477722898018 -1.2393295735609302 -1.6513989916686398
Ni 3.167656626582432 2.8709613608799303 12.714407445903177 -0.30464358582286244 0.7555965683696471 0.8697023837778313
Ni 7.7643277622618525 3.8894348147539266 13.48846149455283 -2.0031338745523506 1.9472432340323176 -0.6836856411619581
Ni 7.342473246613885 0.8633966982836212 5.091534433987167 -2.954801484450079 -3.612191682250618 0.9605659408286231
Ni 8.932655438836912 2.0700544536401093 5.976429514388524 1.430107999231505 0.8391633346487097 -0.2868037294279641
Ni 2.51802631258511 5.332354867433641 2.7433382282794625 -1.4691172906151666 -0.28474016203071606 1.4646710819183548
Ni 7.5605263936964455 4.619054756305181 2.2985077495368316 0.17577166784909729 -0.09423581595713447 -0.6918164977992086
Ni 0.06533266058648708 0.4011646388906285 4.323959657461796 0.9283073379052335 -0.9339102859143078 -1.4993004990667662
Ni 7.64166701846483 4.515025195060789 5.8723269630768735 1.0606229914532248 0.9362988407511423 -1.7704140714529832
Ni 5.636657943992641 7.132916891976218 13.182493682998292 0.8962361684023016 1.9209822434532595 -0.3854536152923942
Ni 5.406598866616245 2.54653922732035 2.482663560768742 -1.0485251797484265 -0.1656536055784889 0.051701799249665795
Ni 9.303706996133183 8.783259743481445 6.373214749243678 -2.0799718067480115 0.10619478809122355 0.35748361244202953
Ni 9.330226720570227 1.2928973913619035 2.0693610480011593 -1.3111016611979098 -0.3338333200129412 0.6642416735047334
Ni 4.657000233578368 0.14803976449063755 12.400880483536982 0.7142897392010602 -0.4169743116084948 0.2903335969580936
Ni 1.4778897810570009 4.622535821051328 11.346730794865445 0.7244054874788234 0.1986668272797159 0.4694194167820884
Ni 8.858729601485944 3.5689429155851573 7.711910600499645 0.017385028245666834 1.0208649948289965 2.0539990368333334
Ni 7.3329096762629105 0.03785657911434657 11.864766567987393 -1.1748414211798734 -0.36212111121404084 -0.45566118665573135
P 2.789839451513407 7.131681675453392 11.452792848751942 1.3899584235958127 0.46178941104065635 1.7715322442178265
P 9.177630691496528 8.129240667747716 2.7973274837979947 -0.2087560931949179 1.2586226174625872 -1.0776071847160473
P 3.5018201268106655 3.410928777672698 5.521450608986765 1.4164659829680377 3.5758643085744932 -0.7289031182388608
P 1.5887785370834517 1.4585754863364446 0.843582702333376 1.3965653873893689 0.07034204005867241 -0.9578295157340665
P 3.5623925249338058 3.9788195740420838 1.4514683124797283 1.9091932212381313 -0.055421157082781974 -0.6538919548392932
P 2.896638892233228 1.4956974859277468 8.461147090511512 -0.6116181337717466 0.09496549503430742 0.10960561354498545
P -0.10108001391109847 8.494256507943815 12.193811405806642 0.14728615881489474 0.860888385030627 1.4378722165579558
P 0.22552620704566087 5.333496506947162 9.678743998255756 1.270535052629457 -0.9037301627865018 -0.6014003126984804
