# total energy = -340859.3177786927 ev
CRYSTAL
PRIMVEC
9.38109665875221 0.00000000000000 0.00000000000000

0.00000000000000 9.38109665875221 0.00000000000000

0.00000000000000 0.00000000000000 13.73018321586515

PRIMCOORD
 96 1
Ni 2.7748157372485465 9.403423393454766 1.2944515226642541 -0.9585496817295427 0.4862735122249496 -0.13676160513448704
Ni 1.7167406382831083 9.477346432961163 7.920187625267312 0.5336121494099133 -2.0113922579064 0.4989058562769795
Ni 5.623385654268579 5.777789119653834 10.036049823539198 0.16986121590193326 -1.1731298378054054 1.5152302829231454
Ni 8.10407587658767 5.958159459830169 6.418957037995953 -0.5672797168656876 0.394404653838095 -0.7862428325005942
Ni 5.339813872771192 4.033083433049841 11.678070029123264 -0.3470644739912345 1.0997572384505254 0.5739239616550825
Ni 5.418249219638323 8.686463721206543 5.552595900954456 -1.6271563170711911 -0.9576783348681828 0.8520898129023906
Ni 0.9552770447889012 6.016575547013715 5.577172497261419 1.278944616849391 0.3374197518126189 0.28958849126195285
Ni 3.36134064537279 6.6937124651116005 4.461869896024295 0.04665549507500997 -0.17502013439505343 -0.21631539359941457
Ni 5.688359127824583 4.720014215772685 7.504039375341464 1.5863235993255453 2.117759052799114 2.766240121035481
Ni 3.1769176715585403 4.403308401846796 7.444271472168975 -1.1764385904636643 -0.790059378033207 -0.7269465087331222
Ni 8.987249814568681 8.59675229648577 13.58559027213046 -0.10548156407428284 -0.7710239586683109 -0.308007874309405
Ni 8.246565349565168 3.154919000537918 0.9905781104821216 -0.8463932767382455 -2.71096500261226 -1.775652437033787
Ni 7.815935501151245 5.38631596754698 13.543548888685292 0.39017904579252155 -0.32040856196660306 0.9342247318309331
Ni 8.796982417707161 3.8383693965022765 10.736728603012883 2.2159101446502545 2.3845264324014934 0.9647221290888418
Ni 3.4280402406634614 6.953962840998212 1.6437772849367993 -0.5450512444847903 0.5823227272417391 -0.1357961558974242
Ni 1.6379394286569984 0.8583262279885491 3.5412616310323286 -1.895522665729574 0.246428153824395 0.885605942381965
Ni 3.1481739922377785 7.295594228016551 6.7437577999916485 0.0330589873374979 -0.930213810899327 0.0408039213902394
Ni 3.5628372146060294 8.264783438743013 13.096973990747381 -0.8630288284123976 -0.478422391611647 -0.9566200688069977
Ni 7.900515466149937 6.392494841315795 11.516383080505422 0.2952395189001431 0.346643584403732 -1.4631613301420479
Ni 4.816076642745466 3.6433739270631906 5.9131639691336595 -1.6214685226577947 -2.191009781864149 -3.0274495469341085
Ni 3.612547644345167 2.3678262517224575 3.8936878456598056 0.42879392995124216 -0.6618459195790473 0.05313416082081817
Ni 8.74959849987127 1.1075603823913585 7.668718893705819 -0.904166736103288 -0.12341732261709712 0.8422831112246139
Ni 1.2271130747098282 4.9274677812098036 3.594341750592621 -1.0552933517101954 -0.6362246194665172 -0.08047270073477109
Ni 0.30732190321291336 4.599795465610947 1.4868831384615762 2.334301217697354 1.9471879553143498 -0.807656265179364
P 0.2558815993005549 2.858579546861825 9.06447406189263 -2.866427269480044 0.8084026564270852 0.9498182153938157
P 3.254433670980034 9.008338519240048 3.258570734485405 2.808061942167274 -1.8852397957463274 2.0216116216415636
P 9.227462168578938 8.80369928271815 2.9897882514374894 -1.2638059614357395 1.5509699024166 -0.2017817187596138
P 8.61726875427771 5.9071638198864145 4.087352137521993 0.09063884263449551 -0.19067095355843292 0.6857900890994706
P 0.7153114136135436 4.814800813637234 12.921941494413577 -0.7676995222807683 0.18282394671018834 0.5443531899765012
P 7.7771821919886905 -0.01768805723214645 9.333901964371769 1.3215315982819822 0.9317505592588275 -0.8844887980583863
P 0.25371456603583686 2.8519940172002136 2.977115328332262 0.6108550303534769 0.5332113144270687 0.5497357944446533
P 3.8101229152898695 4.128048271745687 10.117195369151686 0.05029540582044241 0.061406942352571665 -1.4315766133572312
Ni 2.9078396839745277 9.18105388476699 5.554751676903514 -0.14961506405838748 1.3666176919873432 -1.1835098954881489
Ni 2.8783830413285765 9.157910719987512 10.793269409029257 -0.5570523827107245 -0.0023044797634605473 -0.46136672168094095
Ni 2.0709989810343923 2.4936548975218638 1.8055599207377566 0.22682657754338356 0.27375820909791565 1.5126285836342401
Ni 7.17719541055332 3.0785193515861278 9.482764954232596 -1.6526976558754054 -0.8657894218766701 -1.0879988123630167
Ni 5.938524825098329 3.653937041591643 0.39280245346447445 1.9310645673899258 2.3066500316389886 -1.1368811398860161
Ni 7.2401050429048315 0.8739729586475239 11.106839122433954 -0.129811399068899 0.24483715518819124 0.21546333001176438
Ni 5.304231374186449 7.570028821635862 3.2992940738886123 0.3847002820661375 0.5725826171358396 0.17363482401175256
Ni 5.743238541671338 6.7022305006283265 12.787743034420311 -0.3226711327485346 -0.9358049318338593 -0.592399908972083
Ni 7.371374724606993 4.772229398246367 2.3291611248659123 0.3526293696735217 -0.6639956189321984 1.6438458619117304
Ni 8.8561677547942 8.094694780203609 5.088406118336195 0.2121036695109121 -0.03731673417258735 0.3220018745956519
Ni 8.7948998143099 7.052408066452545 1.5863987470133305 0.6884347258111693 -2.1186411982937514 0.6727229715028672
Ni 4.394921701679445 8.175062632925858 9.014880895858292 -0.4207654032198108 2.591254439422789 -0.11114236190448601
Ni 2.5933384276988924 3.4650205226094286 13.647059906187017 0.3620555480834281 2.365617511312132 -0.8717435825775761
Ni 7.886809684332825 5.636369091664118 8.966468809858709 -0.4671529893454148 -1.368398952257482 -0.753219069276406
Ni 4.925807327149825 1.1739128771158198 10.373001919681167 0.22601590871663013 2.5428223120633304 -1.1705327665021907
Ni 0.9090038487648833 2.707937901126578 12.29802822665066 -0.32603824944855464 1.0367047900747308 -0.5679379192749767
Ni 5.696661398124477 5.875952912216644 5.456786763584044 -0.28072769843721335 1.9812147058817557 0.639055661157409
Ni 6.6830836829084594 1.3723418278314718 1.030063145162633 -0.19121602742862553 1.6579342216839965 -0.9101828603903808
Ni 7.062783559053316 3.976290275540737 4.955483487451162 0.1489388639269693 0.6755704682539913 -0.24317133744999408
Ni 2.0626967107344987 7.206098568512612 8.875533152059816 -2.8073736578509974 0.8051162723663295 2.4563607407349757
Ni 4.24456148883572 2.966152579097849 1.454273509320943 0.4773240163411457 -1.9073281430049347 0.7815459412455572
Ni 5.547577014388984 1.8863320987141576 12.615594287114966 -0.7294744173612985 -1.0439398743705892 0.46535090313966954
Ni 5.199106808106666 8.703237121541243 11.293212426186448 2.09207758887261 -1.7926021775142484 1.917162098376221
Ni 8.252916351817177 8.009795857927859 7.672439436531738 0.568646258195911 -0.1702268267714681 -0.517683908215431
P 7.236849802459563 3.067337084696327 11.809495437025399 -0.20171641273931712 -0.8145406510040231 0.8455648672996792
P 0.8626387179963017 0.699413269571476 6.0222642438610094 -0.21453490466022407 0.8709498830316871 -1.2840451713007497
P 6.556617122554937 9.358713088088333 13.076914392349344 0.762048751752894 -1.3806199198037061 0.20739546540196538
P 6.508276332887871 6.464213323171939 1.719114993777914 -0.5240643578204781 2.1341740038220274 -1.0456694554671864
P 3.8289976812145996 7.125965243199965 10.840048246148374 -0.6388797977011771 -0.560392502827551 0.9328293941453031
P 4.956952567144906 1.3307554275609308 6.382379205084862 -0.09382212545848359 0.2169689680230134 -0.9766268509462277
P 0.2051092294507416 6.2480165759048765 9.984465050742525 1.262461531592703 0.4608278184583354 0.9957010939688593
P 3.4052629386429616 1.0911247015264842 8.936852688574229 -0.9377569133539077 -1.2649945824272022 -0.19509967875374787
Ni 7.462174356508317 8.882491111247875 1.8805814866307284 -0.08916765740560773 -0.5308978358025437 0.693762822892302
Ni 3.3342292768228545 2.4832606427283244 11.642000651636188 0.31664600960037725 0.07797667378579475 -0.4379056624445232
Ni 1.3288698271877346 7.296926343703087 11.722102081221127 0.24432704832099214 -0.32919504990998144 0.25385375686450473
Ni 5.076355161921231 5.291838945863105 3.3139717372911135 -0.06698752176414269 -1.5806430040010004 -1.0182591817750333
Ni 7.603678814365488 2.3520660097972352 3.1654248903784277 -0.6722781706559647 -1.1101115851016559 0.06946015167435135
Ni 1.3748747238551682 0.5353350794853391 12.51469121440801 1.192226192315224 -1.2551963653898577 0.18711486077605838
Ni 5.442049061164685 0.3755712556262317 2.6777842430192913 -1.9810516979413302 1.91209753936912 1.2324189624840258
Ni 3.8444577280555317 6.061032562777779 8.712515025865079 1.0713745735427742 -2.849538207034189 0.12844254374583042
Ni 0.43752589236584544 1.2283889038180604 1.3402172013738944 -2.3888438288299247 -2.307548375083542 -0.21853297007602362
Ni 1.7226976344869867 1.8401020557335064 10.13965746633368 -0.5557794295355719 0.04533574782232192 0.0515174511530016
Ni 1.7015995487192341 2.9005787153732645 5.362048009311054 -0.11369469601269451 0.3219329690309294 -0.9055186221454921
Ni 8.656200304271563 1.344217300872058 12.921502459102804 -1.9859290806382892 1.0377638274668641 0.5348215963369821
Ni 2.9303167909107364 4.729582934084426 2.0738752251857457 0.25440885803702634 0.3233149369801206 -0.43159874638988893
Ni 0.42536892956174116 9.17927147645402 10.135593575380105 -0.4011268030532769 -0.4568348952488584 0.3085832871969008
Ni 1.6729872047478491 4.704704266473898 10.967134896972883 0.7847487644535711 0.37088574478054837 -0.5149299996193778
Ni 4.594119902298591 2.640243909619196 8.208109421157987 -0.05571631972569759 0.7408420357682919 0.6579982636981829
Ni 5.3720848443323606 8.116402637236327 0.8545559653517951 0.5215156232566953 0.6838797594506352 0.4034526229729762
Ni 6.738216386357585 2.5233366864810316 7.167594796513873 -1.1168584169071862 -2.0346635697295152 -1.0360915819707641
Ni 1.413337219029817 2.3159769320077537 7.601001449457478 2.502390172190213 0.9696378212229043 -1.366075703440944
Ni 5.921685757088941 0.5108691801157088 8.270760135249299 0.48179876428304763 -0.3624630679344919 -0.4805643776553143
Ni 8.47105498603574 2.07926372694875 5.444374634958294 1.4869226942277036 -0.1587928739029136 0.06900635196638437
Ni 1.34764140105224 7.5351499052799245 3.4499966967503553 1.3958531918136927 -0.8522394511063773 -0.18689246035260715
Ni 6.777025982098443 7.570010059443094 9.499652803943183 -0.8314867919400583 0.9666759103811029 0.0631681480180525
Ni 7.075147844087508 0.342501014653141 4.607877280145815 1.2074779762679722 0.5381084946183701 -1.079604160541418
P 3.383508176128325 1.2212592705661742 13.400781735254826 0.45687243335501315 0.5962460221910506 -0.47937781354638087
P 8.042535884308231 4.0048181896446655 7.131429731843681 1.004095745790458 1.3187283245052321 0.11379779724946208
P 5.297570795753765 7.328080964794553 7.2783977402349285 1.0136178263482802 -1.1400006593516046 -0.37881425559900567
P 1.5995144578678857 7.647488534479051 0.475941482058574 -0.4033610917004344 -0.19278362902606153 -0.9461924457157703
P 5.5576804551946175 2.9933389964188564 3.133501957493108 1.0516747811210017 0.1916423163327667 0.5052174003173041
P 3.1507913181289315 4.46793477483659 4.370921104690465 0.5828492891691703 0.16468018592162606 1.053026924273522
P 0.9190603840885964 7.401225373301074 7.1381156392366005 -0.8479747622927524 0.49008208733776243 -0.1550308357573201
P 4.251475356870773 5.210514221309683 13.65558638469049 0.10806346586884615 -0.7701942636781639 0.6085621205542422
