# total energy = -381166.50690440246 ev
CRYSTAL
PRIMVEC
9.26576460233439 0.00000000000000 0.00000000000000

0.00000000000000 9.26576460233439 0.00000000000000

0.00000000000000 0.00000000000000 13.56138309336480

PRIMCOORD
 96 1
Ni 4.983684001570428 8.728211010707842 5.934419988300688 0.011856385117953774 -1.1072910849337252 2.4537346159660385
Ni 5.420175627543692 2.062531342166312 0.4815417721370155 0.45285122801076205 -1.0732998155899451 0.44088865633224716
Ni 2.5462691004491127 6.366636390612916 8.811874376556538 0.2101797130153219 -0.36068103633340465 0.6916601747270024
Ni 6.566156093892238 5.01792100076316 5.249882924684839 -0.8437293567528372 -1.904234077460643 -1.3338993758187156
Ni 7.609379233840947 1.0680739198769658 12.31338262519942 -0.5450846688258871 -0.18608487684964725 0.47849695360332434
Ni 5.3302791820314095 4.311536191437828 0.61063518048692 -0.33410662827898585 0.645113694426031 -1.9469218461371565
Ni 1.9092014740631116 6.822595387439747 3.4243846592570355 1.6664422591550072 -0.5513162515578957 0.17006793259610065
Ni 6.732559955462541 8.90405668612859 0.33254272228081977 0.10817556596667822 -0.8142999957481267 -0.7978233382493422
Ni 8.994703658551456 2.880485219767607 4.315923530847234 -0.7992662413434558 -0.07079866798011679 -0.028371866274473717
Ni 2.214508408677594 0.7796158511168982 7.693100974004912 -0.05386255434641046 2.0643695814343803 -1.7919321480304171
Ni 0.31045777300453387 7.502721020658935 13.240941229039098 -0.0002709942731995333 -0.10222577614114652 2.087910344868798
Ni 1.3416641431959895 1.4605346337625809 2.630352205421877 -0.5319026229179743 1.697081324197103 1.0674418141472715
Ni 5.073395131796146 2.1073961730434996 5.145079717521335 0.34549995771759207 0.8643362343699115 3.0044114341677224
Ni 8.606755371893678 2.636323063954975 13.517443682086476 1.3422204940899014 -1.0441710165447888 -1.4885615153827074
Ni 6.479104238028715 7.19649677537596 5.109373168106148 0.6349956321554225 1.5055102274219039 -1.176020014869007
Ni 8.15999727904476 7.560826628761133 11.648291621179185 -1.7662861653275386 -0.11611050454303874 -2.3227345959056773
Ni 4.417360485830301 6.503621450441156 3.9513397955194685 0.025887923510355414 0.5962226251522829 -0.04912272566857992
Ni 4.972565084376577 4.276557931098839 2.861600665490285 -0.4623239433878876 0.2896429986489722 1.0577564685387073
Ni 6.061839073036485 3.030173642489822 9.229741816230101 -1.2314519705850662 -1.913491334392853 -0.0482799180523104
Ni 1.2391662581973426 3.8479792678618656 11.835845516405056 1.6519317242436582 0.568822121652143 0.5542578506847228
Ni 8.11830133956782 1.9089790957192345 8.239991402219486 0.2874287646064727 -2.1649195125350005 -0.2613968593190853
Ni 6.881080891879401 6.449574247114714 13.186573430266899 -0.8591816867521653 0.33367699694073505 1.3674227043871419
Ni 3.0000413768944862 9.25360764541027 2.7174568761420708 0.8928515682007848 -1.8583686823870964 0.9694262194327302
Ni 1.4648710114681829 5.961944867814065 0.756808172223012 2.317714002762634 -0.6561961774924376 3.022486803612195
P 0.2738487381437806 -0.11477780246282186 11.808384570665543 -2.076363263461147 2.775811566774 -0.7897750140235689
Ni 2.2961583239377705 2.977710884863503 5.853513187339633 -1.180522787835367 -0.20601478300435486 -0.5462259815191818
P 5.286869076153751 0.805648015997001 10.540299861999861 0.2108008915390886 -0.02890742706296957 -0.3956338982595058
Ni 7.847018291566521 6.890782147131035 9.31859586325546 -2.4077427226169563 -0.3309755388491719 -0.7673873903569881
P 4.589157022239623 7.0043155574445795 13.245484233289218 0.8016715083508387 0.6338602329993988 0.5784943546345843
P 7.346611423257272 2.2952132159762932 6.143320351385888 0.020051262223920306 -0.4059584201139654 -0.6289928776047683
P 9.318949815452799 9.313297699212592 8.217628480013353 -0.04884633207874168 -0.1679493435912011 -0.1846723127728368
Ni 7.731585399565694 0.5666552301030766 4.531400733452597 0.7085896034924893 1.1620087881915795 0.36169945029559
Ni 3.56586454136089 2.8548931786930942 12.276862541676216 -1.526298367811849 -0.3517665074525942 1.0340084741894902
Ni 8.985335970815639 5.262120219633105 5.3543460782975 0.12998314876007291 0.5731767990764128 2.2641892913716166
Ni 3.8543170506623605 5.989260341053625 1.5034017658506065 -0.9317186775796277 -0.5061805355615218 0.9719240461539197
Ni 2.799836007054877 3.819209069622777 1.698929777857336 0.9432791287237174 0.4601783577997945 -2.3880658130133194
Ni 0.681363539333437 7.583110791970475 6.899936722287307 0.19089103998903897 0.6297374690802767 1.1079798834706338
Ni 5.595103992295948 0.19657504337581702 4.030307272006628 -1.0110415809806717 -1.2148287602060883 -1.7350315781886314
Ni 7.3920414657584805 8.887860130082881 6.840443102688743 0.771140172531201 -0.565529309833484 0.25372263060327915
Ni 3.035269812870337 1.2437250142468212 0.6564441927491519 0.033036618739994715 0.3640352975176182 0.13805846956903964
Ni 2.606366847881876 7.93367171956393 0.6295827419616744 1.1202859545314965 0.8361435739857792 0.6475364449349106
Ni 6.13025747683598 8.056572817613294 10.358061735769082 -1.4331997507829513 0.2594142816714178 0.42829050795226237
Ni 4.507155007934974 6.110790105982413 6.687551505238266 1.1633483329386092 2.554647843943348 -1.7990052528271145
Ni 3.5447385986925735 2.0675348549035446 9.784795382817828 1.2142425486853154 -1.5825191379777905 -1.5342579889785575
Ni 2.22363518654088 5.5332642811694805 5.73447128013297 -3.1483780416910814 2.8657770374905547 -0.43027462826182666
Ni 9.092967089252111 7.9331157737042375 4.79854569110492 -2.3715660155860836 -2.3327984078995825 0.27006893317178643
Ni 5.008988803950767 7.807768513872228 1.9370126656942304 -0.007596838510651433 2.538563536786976 -0.3273029750935912
Ni 7.279193722005224 8.023401381318305 2.8281317981603613 0.9956604705389109 0.10736386869866026 0.05043116006735831
Ni 2.74089648016314 7.864067297930425 5.437504459990308 0.3117115484132374 -2.5282346440571426 0.4456858206105743
Ni 4.3960214305824366 1.9771287923532106 3.046700059745615 -1.646113060679352 -0.5454718769619766 -2.144319576896462
Ni 9.146736319648708 4.97524289026743 13.351371534879124 -2.088324292477765 0.6433694580414145 -0.8034522544003454
Ni 2.113011226226394 8.453203125446603 12.009363631826558 1.8491433071340864 0.04254352978916544 -0.6782636988154384
Ni 1.2454484464118685 4.714467219014319 3.7756108687292556 0.0672258630271939 -0.5119092105151829 -0.8997241269509022
Ni 5.27869667201627 5.198686797042187 11.467586978944722 0.017847826814698296 0.6842322576940475 0.19687065461124162
Ni 0.3458446535503964 3.793163006096182 1.7371862656156447 0.7695813126845132 -0.10685196205924823 1.4950394097975672
Ni 3.3904543568635677 5.120483746112104 12.91925149651591 -1.4584135310444173 0.28274807130135177 -0.710946276650124
P 1.752156034464299 5.95012175253127 11.038870255819258 1.8489988111364222 -1.1223793467254155 0.29479394672229237
Ni 1.8613345355435844 9.095459579856401 9.489943936671297 0.2337024787276104 -0.42399599434196655 2.6974075756427993
P 1.3618727751958128 9.059740058371155 4.357421182967551 1.7103225054777256 2.545914320725093 -1.049039914601316
Ni 3.6268795994621454 8.203323993043465 7.933843136204001 0.9611950897721898 -0.17466120839373792 -0.196069755976501
P 8.522955799309358 6.586253536720123 1.4249754100002137 -0.6084451353604037 -0.4314393379938892 0.6309479444486101
P 1.515712260337065 2.788198207058647 0.25406169842089055 0.5168488139086455 -0.8296913906025323 -1.1904649866497432
P 0.7093971093084329 4.067605679733401 7.085565191685777 0.9005792758623459 -1.367509350563677 -1.3112297021353416
Ni 6.548226839917154 2.6318199024914652 3.3101164738322653 1.7755475360248065 -0.30069308581554666 0.3696135629363441
Ni 5.616257732257248 2.6113518290904523 11.614863523212305 1.6452756523797214 0.20941198161136193 -0.032910891795407834
Ni 7.400130478017005 3.6856616083603027 1.3931882788958605 -1.7777887666504995 0.8687695875509167 0.8587703102463597
Ni 7.311420050338734 6.237258523298136 7.03279759041306 -0.03232982248095722 0.6798917213371646 0.94293228690726
Ni 0.4977114574661728 1.2836419269727453 5.936616901022906 -0.5681749749864472 -1.0699458115160476 0.4493105618473552
Ni 5.734229443684004 3.710651374753482 7.0544553879538165 -0.9062274752870587 -0.46049486059894884 -1.1866983205184596
Ni 6.367896534561552 5.9628065838965885 2.1256108125598923 0.42488199649134567 -0.4682755329856322 -0.3148050997368966
Ni 1.709385266325287 1.733068559948189 11.059293853551498 -1.0895077928083754 -1.386851759646031 0.547751674135089
Ni 3.9248480487286868 4.508331760004656 5.026852270999121 2.5981177422015254 -1.7742306169855961 -1.0360108493314997
Ni 0.22243949792157927 5.662994247528734 8.220896515091914 1.1150697004378798 1.2633369922191209 0.2595816604872175
Ni 3.8921491664144376 7.152632647046219 11.26465376808689 -0.3841940318536803 -0.19814335067607813 -1.2175962956488964
Ni 3.6105069938942 4.2605466903396945 10.158018516805216 -0.7904854098270322 1.5787758688852744 0.09451992285645656
Ni 8.8946334038068 4.97224078262509 10.618332422866306 0.921856182963251 3.1582968434666894 -0.3830964279141273
Ni 1.4822721168765591 3.5072029873989994 9.184785254286066 -0.5099510583475476 0.2010666949704602 -0.2949831799149629
Ni 7.258753445897194 4.389414940616423 12.301218529789347 -0.0342262681727217 -2.0601380598515355 1.2498965504434991
Ni 0.6493910929425193 7.266369904174983 9.879847299602325 0.1892877000576611 0.9203847406240472 0.9645244112557388
Ni 8.254128178855034 1.1375764181028607 2.0153973256051465 0.074350132776801 0.757769921871882 0.28212457878473995
Ni 7.895719148875586 0.4525325171782591 10.233487240682045 0.8562670842085317 -0.446464864868444 -1.962917964455097
Ni 0.5951928576575272 8.219159184280374 2.3859352410902193 -1.2514225001697223 0.6073565302819153 -0.8637759909910673
Ni 8.107275080017253 4.997341738190207 3.3028743524333373 0.14467057556891857 0.07035952356016915 -0.8253086881538044
Ni 5.754539999091437 1.0365610553967273 7.895450441710069 -1.3099819457711699 -0.045864623742598434 0.07493043076030322
Ni 4.4536730162325515 0.23538284411165425 12.5599288621737 0.38686823625173367 -0.743399512082823 -0.5332617080490301
Ni 8.755424560539792 2.837056582361292 10.683467039787882 -1.2300751448421976 -2.749947297412729 -0.38800414962838986
Ni 3.127501230993328 4.583690221285979 7.400161981615723 0.5641738242468541 -3.0736201319529006 3.5699047485569486
Ni 5.276973239851224 5.455367000462229 8.65661074343804 0.6923430597266399 0.017677619785421168 2.282451322905598
P 3.808293999244147 2.29036722123264 7.343204401713789 0.8542076305763417 0.09521900580601021 0.22981085698268808
Ni 7.92725981064881 4.052548812700061 8.019550529663501 -0.5445964163355589 1.1755978397299236 -0.2736191124168901
P 6.211184662478555 0.6228261466135445 2.0690062582788644 -0.9614907666357375 0.7069209575408147 0.00689364179603974
Ni 3.096155150270997 0.6934488757467198 5.599020630877481 0.01555877367020546 2.390260506671793 -1.168858207013245
P 5.814785998753452 7.625177362020544 8.220720465569677 0.34731541365977603 0.17497076921435675 -0.964160857268733
P 6.896823425473029 4.494905667493081 10.262467771771382 0.18750746822878672 1.5476097276951153 -0.57242320873984
P 2.7106808226888512 3.2090399570815658 3.600208096843396 0.24911598506920318 -1.230337397364649 2.3218033423406594
Ni 0.6987359208723958 0.43422799974788245 0.5792937326467535 0.2819019212509726 0.7194897953447609 -1.9643012179558685
