# total energy = -340886.06623787 ev
CRYSTAL
PRIMVEC
9.10236564738414 0.00000000000000 0.00000000000000
0.00000000000000 9.10236564738414 0.00000000000000
0.00000000000000 0.00000000000000 13.32223220616696
PRIMCOORD
 96 1
Ni 6.114841722540673 2.670388279402853 11.44141221948089 2.327655173135746 -1.9034882004335538 2.283940762966931
Ni 4.790247287486111 0.45440374025629326 6.1373527827056895 0.013426300708234942 -0.8854925567325524 -1.2184396174857983
Ni 3.029412882568402 1.7684075730295095 4.514651325721423 0.680352463023667 -0.20302690402062454 2.825101928368696
Ni 3.756700989901277 4.70395686236608 4.716429833836752 -0.689947820021586 -0.9408597206489474 -0.3163960983731003
Ni 3.936982441370406 2.5516752283041764 2.5617715721378405 -0.7117859989426 1.8374900391658742 -1.0693169196827972
Ni 5.2514277388712935 4.8776482011994595 2.317628834424025 -0.935318479115744 -0.40961761413310743 0.6998380825521043
Ni 4.967497651237418 4.829687837279898 11.280213877322325 1.0315142470127268 -0.3160289448416686 -0.01229270132442399
Ni 5.9032572360517355 7.775313445245991 12.448107449021254 -1.1218658974241067 1.550616118621607 -0.29656646524168284
Ni 1.7507762910192244 7.113562369649849 0.07431717351635131 0.7645854021318187 -0.4428133841587858 -0.14993182396785792
Ni 2.96377572481096 1.8421367337333339 0.23054562410154786 -0.18809110864639866 -1.333028543177988 0.6681829175406686
Ni 8.223404695014864 0.07984504009603434 6.59242645706418 0.14350200918211414 -0.8475677566623209 1.0060826943134995
Ni -0.10335371952193158 2.668221916409333 1.2098745917090665 -0.169512831423579 -0.069229523720784 0.8539613188934906
Ni 7.079683365188166 0.9110011506026633 4.787117894220682 -1.2318772310479429 -0.09543549269219048 -1.6220819878720774
Ni 0.9345398678347732 7.591254512086481 2.2667775592156314 -0.3017942892995254 0.24635076361924022 1.0009201762759536
Ni 7.901353900587456 4.0294260655812755 3.5224643565817777 0.6144972550917546 -0.8533203428753819 0.980618488604124
Ni 8.003364110958783 3.9100940536273074 12.586538044307169 -0.3589666247454592 0.976805285505621 -0.06508490542479115
Ni 8.213637856812987 6.6890644513062005 9.144806208459528 0.3539218632327002 1.4221728035448282 -0.4727857621511599
Ni 7.145111168538672 1.4663819827438795 0.25545515758081777 -1.089780843964104 -1.503212946747295 -0.5857548928517395
Ni 1.711235615204729 6.4954480343517496 9.216959749692014 -0.37184270937717895 -0.40128955388338633 -0.09792637743484425
Ni 9.3772569576642 5.206735124173049 1.113050909210459 -0.8009485141418852 -0.8219251163935521 -0.7004165807633937
Ni 6.124371899239057 2.3995473933852853 7.095127348764239 1.259891456872682 -1.3919749398052093 0.497987201117452
Ni 3.2910239699497135 4.560785755117876 13.65648652207555 -0.15043370330494094 -0.9962891052618456 -0.31647940211552594
Ni 6.397524786098447 5.792709006823593 4.686028843239876 -0.959566295919515 -0.7033628078759112 -0.09002692008210947
Ni 5.416335294978848 2.993067137051072 9.43307266302665 -0.7977870856947681 -0.27825532563732075 -2.546212825802118
P 0.30825706971993083 5.930600742070784 12.396616277516875 -0.633133125025387 -1.627845886939048 -1.437336141548828
P 4.430321550134182 6.106558569918392 12.887128191550453 -0.8821262113634808 1.4500505037917026 -0.8425358506653684
P 2.6142084794196423 8.732545510319607 1.3789446595684551 -0.673160316150602 0.9664807636511613 -0.49903441143504373
P 6.656887589196568 7.8569616639513375 5.508676062459352 0.17597684188136792 0.1017434371880893 3.229163131459948
P 5.141307320822544 1.0446875929800794 12.596356765992503 0.11075283977555118 0.7558806752689692 0.8408283810559584
P 4.102982281340239 6.148948286140332 7.967866705907824 -0.28971138999306234 0.5228238005451576 -0.7228360861091744
P 5.134453239586744 1.1033523387499744 3.6261785297782616 -0.30605897811315036 -0.49903929653105017 1.5553376924669924
P 0.3866757691391393 5.685383014989173 3.232093435106664 0.5384039143716017 0.01250044645985589 2.0871420992442054
Ni 0.5111670018692711 9.3276490655857 4.6175790545370665 1.1261832938525378 -0.19287053231291298 0.1148051554680539
Ni 1.9129531374710815 6.766671219721115 4.656586331732149 0.5186871526689648 -0.2700650765170446 -0.6183508245098899
Ni 5.922080927945007 5.961330328062895 9.091730315118292 1.9533429191721519 -2.7468560600819147 0.047777781604911265
Ni 0.12106965353154313 1.8055907361745864 9.930711729261597 0.3839011832036098 1.5994984461446067 0.7406515170240406
Ni 2.3505857692586343 5.365908190003639 7.004483262216473 -0.12097734571703682 -0.04235172549333352 -1.1583817329619535
Ni 0.40086362627359007 8.862800360896365 8.80821984653484 0.281792906476934 -0.6921116604421241 -0.37031984497474935
Ni 1.8121899511758546 1.0238158688450336 11.500536634709494 -0.17962446593628417 -0.37753256067310464 -0.10775107683474992
Ni 4.323696440444725 7.238337596184174 1.533987982163079 -0.5240247628317943 -1.096975304830014 -0.24445097549336606
Ni 5.656719665969872 7.752575736179552 7.630241764077422 0.3725304794728229 1.9115424381965982 0.16063224110449753
Ni 5.628757199095533 3.0588408302912993 4.854102202074935 -0.7710730667386915 -0.4601940415290784 -1.5329027605022438
Ni 0.6918089070129525 7.243252873564429 6.7159901587479265 -0.1480466911300031 0.3470909563537958 0.5817439719201335
Ni 5.059158472013654 4.584533826756922 6.791447858663807 -0.8400539647837789 -0.03146233227433936 0.5664780468999986
Ni 0.4162548161296514 7.608339652165626 11.077516030289578 0.95990799552965 0.2514520894015476 0.019779753730088518
Ni 4.785896356768034 0.43563648302923824 10.554485005202855 -0.22863046352134175 -0.6766367047349766 -0.84319122486118
Ni 8.519977968354619 7.240294604770757 4.515876504120279 -0.03666290263867234 0.01892409059801257 0.22670676413606766
Ni 7.147068177125254 6.053837668832398 6.994824742164273 1.5468538233656972 -0.04067279512901382 -0.5429748215717358
Ni 2.3198106714389266 5.571039099339613 2.2093452737370076 1.527696533710956 -0.1088499663258835 1.3391241145527648
Ni 2.6794906449218434 5.587441562004834 11.463300677844408 -1.5743525430065983 0.07738249184522157 0.5483476558478749
Ni 1.423009211045889 3.5503685683167956 3.6519300320680386 -0.5153457470005576 1.0584182704924223 0.698153752871146
Ni 1.7053008728863472 1.415272200354747 2.6927564324292206 -0.3696125344950796 -1.9902289935652238 -1.8121885842866081
Ni 1.5028551613784753 3.345210351884265 7.982748163294821 -1.0983315617475924 0.058659718624737685 1.1993311787911216
Ni 3.7489093650170204 2.27884092423795 7.177432758260056 -0.36451609380877864 1.7115319524047943 0.051805414707065615
Ni 4.145235462079394 6.9325345242081635 5.850738407480263 0.08729949384861739 0.6448570983305346 -0.5856931863758686
Ni 0.5200836791316743 0.13093024609826576 0.46338049313112184 1.3748495929788322 1.8213491677399534 -1.3425742778848944
P 0.1971972875496217 5.315135195138709 7.833126209603308 1.0438262316108606 1.1690505255297092 0.09707765628130378
P 8.608416551737132 1.805891114236713 7.789069850254841 1.2061813689437357 -0.34860970699116733 -0.24877017169401025
P 2.262948194041792 3.0973893482642243 10.30076293801685 -1.772141081446419 -0.40184671193843696 -0.6282937946552147
P 4.312163743332164 6.415119658646657 3.5929130247525585 -0.6604575238719529 0.20764383396734562 0.1927499475746487
P 6.977236241271926 4.227375208522766 10.377339318655016 0.7532728053324769 0.8600916001609447 -0.5334090322601718
P 6.298327206672488 7.867984628594835 10.115703654886802 0.2896473695243463 -0.05703683830933402 -0.49704797713263427
P 2.547397116510251 8.656313199098062 5.643577670633554 -0.4674265547217757 0.4685861222475156 0.6714693016014243
P 7.21203175983429 4.263930308447033 1.585105956681179 -0.2020264877805682 -1.1274945564647938 -2.085694053943769
Ni 5.18598173078975 3.068198062044822 0.433285342015683 0.2663446902426639 0.629082094884465 -1.258982571905167
Ni 1.5643416404592574 1.383213668996862 6.662062283994114 -0.7995410922713972 -1.477663894633597 -0.5914987373140523
Ni 7.10291260199263 0.9159073256173993 9.038481476832196 -1.450621031583192 -0.29323945775097887 -0.6168657553239312
Ni 2.4750060035377177 1.1278285996305404 8.920939900175814 0.4046713258714256 0.4404168589021512 1.8227887283999578
Ni 6.2167336021602555 2.3094066676507206 2.269855068997602 2.92847415940946 0.7180772312679504 1.6789082528325021
Ni 4.143988438003292 6.77879557059241 10.039700723276335 -1.373587181326641 2.463667301698718 1.4823116778182537
Ni 8.099594319225554 7.574296805124601 13.369526256960404 0.5910760479543369 -0.29046138078520944 -0.025556508312865663
Ni 7.842616335893408 3.7774088714569807 8.334694767032804 -0.7415614304328196 -0.2118900108382093 -0.4728744652102243
Ni 3.57855859432911 8.608953591302752 12.691025008336215 -0.4348761315895801 -0.49435448946087124 -0.7414148775526264
Ni 0.04088054401889094 4.750442643071565 10.173629288576556 0.9712265058662628 -0.4527347570375557 1.2313329285086987
Ni 8.58580627578796 2.6421527415629438 5.4905450605820745 0.3150508971991155 -1.2450132542092687 0.8406167792657846
Ni 3.8777988607659286 2.7046313784852956 11.576553219868241 -1.1496626079214005 0.09904789263379715 -0.10257467484013301
Ni 1.3989607613447157 3.5163894378344036 12.393698969368039 -0.3198969124375071 -0.029521149387568515 -0.3320487173086927
Ni 3.036394396921468 8.083474029891422 8.036382941878923 0.26617833986812867 0.45247661828016267 -1.1952816913120963
Ni 6.090929808322285 7.945709727761497 3.5439532210990112 -1.7236050815192445 1.195142851741387 -1.0461975600565145
Ni 3.3290081412604615 8.739390489189889 3.473571910433072 0.7118171092908515 -1.300548825382728 0.2538807534476983
Ni 3.5167262253586062 4.506990774900641 9.229469130624762 -0.20324210535522416 -0.527735121803846 -0.0778144371763176
Ni 7.18245817426309 6.182044487167381 11.280840120070032 1.1506902778549666 -0.3807916910403506 0.7485890267035624
Ni 8.31471052353586 9.184013737696025 2.3137521369494864 -1.802628965622631 -0.10868310173071606 0.6841147582795766
Ni 4.837816249688357 0.4799877590205204 1.4174321916924035 0.06762078447276743 -0.0532981972025082 0.05371754412811394
Ni 6.403632473361691 5.809484666475093 0.3561409737691332 0.006346511043318103 -0.39909100357017074 -0.5409688468853006
Ni 7.731767728603139 0.04958877711090933 11.084629528942669 0.2913378698528918 0.4605696797009423 1.6034196355758836
Ni 0.19399143441383318 4.85059597087702 5.513991843922443 0.37330438152436995 1.2737952114379676 0.5324788071364184
Ni 7.474507571939906 6.283280996469596 2.5086829354848796 0.40646209922326126 0.038483757897495016 -0.4199480495248381
P 8.81224582280389 1.8386596301050795 3.3995942551505784 -0.9374545516221404 0.7716307390143743 0.72282708724811
P 1.9891490392305524 3.194620816738083 1.5349610250370593 0.49163374809559846 2.031103620292399 -0.41300658520999833
P 4.924188596098059 0.8070921867840732 8.342195116220452 -0.3311462600990813 0.42193319827566683 -0.25521695576061854
P 8.778976676831979 1.861570284116379 12.335840693183126 1.3806392030774157 -0.8914554591842065 -1.1371996995676996
P 6.418906242702557 7.95108922578322 1.40368397881252 1.6893186495325487 0.40691152805585407 -1.085266758143834
P 2.211456112300862 3.38511512231952 5.819417167729415 -0.38672965379134044 0.4262552226897885 0.0031771121764009804
P 7.03086737890982 4.087335315013094 6.098757842668617 1.0443731052532659 0.7315706377686949 -0.8352184910683487
P 2.508202330585477 8.263537024588095 10.384333576319808 -0.6054528855012992 0.7322236979716615 -0.08251749907894176
