# total energy = -340873.54045569286 ev
CRYSTAL
PRIMVEC
9.24367784732168 0.00000000000000 0.00000000000000
0.00000000000000 9.24367784732168 0.00000000000000
0.00000000000000 0.00000000000000 13.52905689482873
PRIMCOORD
 96 1
Ni 0.9274736817342281 2.93471988490382 10.548930695026128 -0.02662120213195415 -0.439780767980049 -0.3681714311731788
Ni 2.540218192699094 0.6095540135132341 6.715039421869322 0.9335295055361212 -0.9208904766158721 -1.949917695540687
Ni 6.457846096657348 2.7247312504360672 2.089170148703657 0.40877326385494117 -1.6618194156710155 1.6035340496665609
Ni 3.062338104187255 1.361029913738499 10.6881044362512 1.105463030586051 1.0455298445655286 2.047186384786874
Ni 0.08401671424663702 6.1153493372129155 1.8086319145535168 0.998041826286894 0.07820884440125886 -0.19900209913194758
Ni 3.968246285009687 7.926500154037527 7.3113056481726515 1.5316784011768396 0.44031092945190625 -0.3798676365641845
Ni 8.306618683182348 1.6171537453990392 9.157656391046178 -0.49408940872494267 -0.010323236302878994 -0.4599675273405691
Ni 8.57083073314457 3.800186974217848 1.5072177578747874 1.5899226295307134 -0.6623043472727045 -0.5303867004940801
Ni 7.219654580217034 1.1035380177252168 4.652426360229356 -0.4431532839967077 0.7460793729078313 0.37996893802873916
Ni 9.168831997819586 1.5168043763898422 2.996077571124274 -0.1210727336443205 0.044418635324691244 0.1685926336021548
Ni 0.32907586327047816 1.2256007864951548 5.461355417062926 -0.07851146324334221 0.11868520724875042 -0.6807694959564276
Ni 7.459509538493622 5.875827151346453 -0.2327447211135563 0.5352738533830523 0.06875155564310095 1.4274229962001739
Ni 3.9880647307683206 9.033412114254302 1.1612204175493868 1.49622468835492 -0.7765217485580884 -0.10344627881180893
Ni 0.9010201238647992 3.8040970500368316 5.986932464145177 1.067514833477052 -0.7690735198101594 -1.6701387341699883
Ni 5.484126293593624 2.179400463341597 7.532518880907526 1.558352568033916 -1.0459057398477085 0.578315662964875
Ni 3.2783166420372813 4.5322030833931715 5.314605557300646 0.23268997830269603 0.03537400862391972 0.49456660547167725
Ni 5.976749628395312 2.9980760543206437 10.028021705363706 -0.35570492327505193 1.3022994895252473 -0.6052651949705253
Ni 5.187210110658434 6.6214314672686 12.9292461984527 0.8797302003274784 -0.028181090419906303 -0.5744554086785203
Ni 3.7884752341170143 4.632968417915026 12.295287950495732 0.6835352316270228 0.9645681200094807 -1.6154701389825146
Ni 4.363746294444793 3.531085018562382 2.9216132737838736 -0.6883902457264789 -0.14340405015166915 0.22035716776895597
Ni 0.09754206398265923 2.5729038383159435 12.885506962612823 -0.6898614309553667 -0.534503550875931 0.7255054054112214
Ni 4.956940846529095 5.339462731969275 9.745494231695254 -0.31031466806571073 -0.579717171298092 0.5559262395260813
Ni 5.3797281935945565 3.190760523461829 5.3759466049005935 -0.12590717891848638 -0.3313213522243649 -1.7095591449491399
Ni 7.780653401621618 7.376344166996225 6.675480177247752 0.3077775034661538 -0.3630945308709037 -0.0033905137387877093
P 0.4391079850465444 5.897836348805084 6.142096844044621 -0.09983207909798936 0.24542439515022893 -0.6391574768425959
P 1.142657263271175 4.73236568808414 0.3227125152946186 -0.32910249019617516 0.22845177185163235 -0.8115957094430861
P 1.4909960272489362 8.177539962765582 1.1820501216876813 -1.007461576938897 -1.2015610965629049 -1.3915095701330165
P 3.7506963218896203 6.05012594482816 3.8010558799554 1.2224608228300493 -0.23408711576053878 -0.6046159914223006
P 5.094070810535307 5.864485158367982 7.290538801045159 0.3465037163917581 0.41419289220861566 0.7983864098416636
P 7.307903974646916 3.0135407277134574 6.179139959498514 1.0791570457016706 -2.0218808161425503 0.15416694509512802
P 5.291164514110665 1.8791380689490262 11.775826520817358 -0.7680682184740966 -0.1910908147046709 1.1523190717076415
P 7.479688487696558 8.126662758728495 4.651912411729271 -1.2369273918773407 0.4632490263053183 -0.17360371366350102
Ni 2.4053067114270577 7.005071837753927 5.298871892876314 0.43757013348197543 0.43773674096682674 1.7216381876008608
Ni 5.822121381823292 7.414760893009694 10.31085976661494 0.23498674475667272 0.1680357326574203 -0.8213846705090498
Ni 1.820607099479034 5.381040795878944 10.589856155264828 0.21393403785143156 0.3378462978270762 0.12491833264265581
Ni 7.413762575779315 0.6040392351831966 7.054091062501142 -0.4557167224840152 0.4387487271711089 0.06055127922049571
Ni 1.5866311204480106 2.663343984445824 1.3202551254521624 -0.5883085125115287 1.1458905424734782 0.02549505894731093
Ni 6.91251488934852 8.363800075655718 12.10759968934547 -1.7202737031531663 -0.2786481902003653 2.040457807813789
Ni 4.971924848662838 0.3636971350728958 5.597079417636354 -0.010629711799704275 0.6586844911319301 0.30514469382899706
Ni 6.043932680528588 0.5887834689145177 10.277172106296488 -0.963970852745114 -1.7629023364569703 -1.7498455032730125
Ni 1.1456522149623116 0.4545227425778392 9.600544116051074 -0.32188103274707147 -0.02688628286788273 -1.5992385076150006
Ni 8.287419563853673 8.028217587399466 0.5898353994776391 1.1782216505060161 1.6048242292328943 -0.49046415326752946
Ni 7.192607578216213 7.020481049078386 2.3185289105441784 -1.9153049905628239 -1.5633381941739657 0.5398835842409218
Ni 0.2830580607890407 6.467607420687719 8.267296076719092 0.08236169022736785 0.05043733071494539 0.40862851074696077
Ni 7.488821241618914 1.7140182477799693 11.420919199210827 2.3693301842770293 0.6171346927146018 1.222006251791134
Ni 7.1850924679541945 5.669221703048317 8.840549242126576 -0.009716455956815525 0.315927643377114 0.38946170801052277
Ni 3.32730813575032 1.9818260885071664 8.506340364429901 -0.7775378485274287 -0.7971008582610207 0.6349493522985195
Ni 1.321097224523343 5.4160281173325 3.870378843559349 -0.8290241893321787 -2.3465103581690365 0.8983804684388139
Ni 0.5234861271052909 6.721522013292144 12.66737834524626 -0.3360272423404665 -0.839666242427057 0.2211552381902191
Ni 1.3668072125254136 3.951542958756959 8.449275442300076 1.5816493337783277 1.0704114382985563 0.23292934800701173
Ni 5.952503460846388 1.3421820541760676 0.335850554919966 -1.5032463710883917 -2.6393867761536414 -0.3467991361449898
Ni 2.7980613484786208 5.181340375090929 1.841263946837624 -1.6749855207393283 -1.8285354010757477 -0.4191931736366845
Ni 8.131691319592626 3.5571891654011782 4.062627011096146 0.24589567835969264 0.15246821723646645 0.49367571822629175
Ni 9.282409070131303 8.238252440257513 3.4384910954447396 -0.20769448469962296 0.9589831697225355 -0.5981748637826472
Ni 0.9624055411194303 1.8356927820714262 7.695923075428821 -1.3519220376483814 1.281931981612489 0.24892238100115843
Ni 5.065517089010859 4.316732947836393 0.7240267982288746 -1.0824722261178326 0.07018931653089203 -0.27057209806045013
P 8.151408084892608 1.2782527767195822 1.086414104120801 0.6013491477455708 1.4773702746525783 -1.6818174560594972
P 8.830189852125784 6.834341104003018 10.366558473127636 0.4169270033103271 -1.67239796251781 0.4857232961484344
P 6.184935745641547 4.938444246732908 11.887752672227727 -0.8683371279991884 -0.3817689673519554 -1.0531158844429023
P 3.367148388184885 3.6943653477976857 10.00008361279799 -1.0713866577276323 -0.10588445593965636 0.8249253366724567
P 6.004970577509634 8.308125402705977 0.7155531185521309 0.15271452891931764 -0.7504692744454108 0.08313276406543747
P 3.4689305272932365 1.9393051694354728 0.7907818680680159 2.471639264160601 0.7184528694398142 0.2723299612918213
P 3.5902445581403906 2.5701214912201653 6.429576156049313 -0.8541500378655289 -0.26730062639803 -0.09219693115023476
P 1.0786355490340989 0.9724719065257509 11.677997902814868 -0.40000348808211106 0.7499640526742181 0.27843555996892694
Ni 8.31569597503635 6.160689578092622 4.234270095871485 0.10378874975289222 -0.6178754275353681 0.9116018522250946
Ni 2.1923693436584633 0.6364309318377681 2.3884601081644137 -0.2837029790154533 -0.29123682549865326 1.4782416215139382
Ni 5.904223730343897 5.166892506284612 3.947887084084599 -0.36686788187040686 0.6092339498102862 -1.1575700356939354
Ni 8.549477836828133 4.196971854903163 7.505299022127001 -0.551770822596811 -0.6706079820423935 1.5786542557057457
Ni 6.986741624162803 5.137164837646663 6.065603559370257 -1.1068216014964745 0.6313217828482611 0.33308641454458765
Ni 2.2165877801732106 0.49835071772708445 13.405875197108791 -0.9153152965209398 -0.613394251835563 -1.2612579982029053
Ni 0.4232430603937732 8.83703941756755 7.1557622774727845 -0.4142913654596929 -0.7113008317760654 0.5464355264268267
Ni 8.678824623908612 4.582202138014647 11.66729649672589 0.03575530322273842 0.7261965179409752 -0.03328293042284591
Ni 3.6888006536061284 8.66038348618078 9.670597330221689 0.8734716210122763 -0.4111579620370338 -1.5112399308168294
Ni 5.558602607715501 7.231588168591285 5.552947325478965 -0.039139389203622914 -0.43494992225030893 -0.3127713571363194
Ni 1.9285917465650178 8.109321618689691 11.281934953385965 0.3829871560297727 -0.5017536101384197 0.4686416580757993
Ni 2.9338324918101497 6.705095997381187 13.324754527198058 -1.777780024899751 0.6063049490889494 0.16930791450162455
Ni 4.461045249694498 6.568446704634047 1.6573498794388783 1.8661336710444956 1.1638558687026472 1.111479154873144
Ni 7.936113579218953 8.405017636121084 9.057446601575673 -1.0700196021767765 -0.3703913216426331 -0.9942517631168426
Ni 8.77512526192794 8.781540374500931 11.199299244641352 1.335409641815655 0.7858733649763174 0.22276269188665507
Ni 2.55950974880836 6.173492072204427 7.667998848380195 -0.04878822514729662 -2.0917011793697977 -0.15421579605519248
Ni 7.120848905443701 0.10815195765885267 2.508178680178573 -0.9814656670957679 0.31222474060423006 0.10956961810072743
Ni 3.0984531543640177 2.0199377731446866 4.350904052517334 -1.1631318460524291 -0.4138745896372485 0.5674571229838162
Ni 4.406858808912266 8.685489315789198 11.901200375068054 -0.20775362007233253 1.397499212057548 1.4254548167302095
Ni 4.952855140826989 8.267970865217404 3.3882304447341913 -0.16516483886752845 0.583034408596783 0.19587486635687557
Ni 2.4807536117451363 2.8257276769093984 12.493502912219656 -0.27568705068951227 -0.050690327266015925 0.8337892148209898
Ni 2.1543223647673564 7.323063606663782 3.0027468848438885 1.450549297804992 1.7869452363387872 -1.0825115639962002
Ni 6.813931062848605 3.2147663553812174 13.114459002618746 1.1349111606438391 1.670350335960162 -0.6276199085166417
Ni 4.02212768441597 4.092897283636163 7.948361452647213 -0.10460841744071017 1.2367949800645346 -1.2311568079421507
P 5.536935426345055 9.168379057594693 8.291702159898438 0.4989315673085923 0.12326639886152962 -0.9435282686200459
P 6.777520214973952 4.761122770525887 1.8318076641832017 -0.09274868988864672 2.9566143692891016 1.2157939523328352
P 1.8357574878178398 9.00845418349483 4.620619788395922 -0.03935613320011932 0.9562855682857143 -0.27092845295860435
P 2.0305310282003735 8.10695523710657 8.388732124116625 -0.06738578564382587 -0.0019162431861063775 -0.16285727378027437
P 1.2174016440567652 3.2408612585419547 3.3401485289421653 -0.041738774499682954 0.691555273718022 1.6126684078676612
P 8.16283327097361 3.6410847874652412 9.835313202659565 -0.038988208337739305 0.3939935344426053 -1.1321605944818953
P 5.122411927464396 1.467202799924906 3.6324437972156285 0.6920887776239887 -0.3910807316711845 -0.4202583816764053
P 3.774138289447406 6.757396727839371 11.095260723718782 -0.8671014558198743 -0.33374564539514134 0.28889146519492825
