# total energy = -340862.7307033836 ev
CRYSTAL
PRIMVEC
9.34088504755578 0.00000000000000 0.00000000000000
0.00000000000000 9.34088504755578 0.00000000000000
0.00000000000000 0.00000000000000 13.67132945822672
PRIMCOORD
 96 1
Ni 0.3025540760427319 8.868815606761416 11.529469629675107 -0.4601482758928075 -1.9298348087478832 -0.31405382339316884
Ni 0.9026004024023594 1.5787497232925392 3.7492389236773387 1.2978162569429132 -0.22388574974750475 0.5176126886578634
Ni 6.39721736528459 3.133203804007296 11.428110749561393 -0.3967132473666135 1.4151454643844017 1.6273617482137779
Ni 2.5495759516803362 3.861400537601591 2.024190387166136 0.33274985714077526 -0.5816899787537466 -1.5329212724450052
Ni 2.226885729268928 -0.2802751305939549 2.2426036369066193 -0.5700197415046699 0.349202860490476 0.23848833015202797
Ni 4.116920454062659 3.246835673272472 6.758189337783089 -2.523919561621556 0.2962219374180705 1.7910656862650638
Ni 5.577975022999159 3.6710332958733303 5.337943228398229 1.9519645507673868 2.7709406118349436 -0.42875510629350677
Ni 3.890516076976811 1.4582429624713278 2.3171672535452768 0.29672818763052766 0.8379168638361182 -0.011485374931780219
Ni 1.3717276831343725 8.559034487788107 4.877370330393142 0.323575646840675 0.32003138113284235 1.7387931021135923
Ni 1.1713003079742506 6.2645114083055224 10.638946991922142 -0.6560095154029282 0.24126949244159093 -0.7335694133662786
Ni 0.0033459051024074048 8.324167268650944 9.029626419329885 -0.18956486497844774 -0.37757704075779486 0.551834585955211
Ni 7.017470828740918 4.630659802826771 3.5879451873406 0.12515204592001675 -0.14157445314209813 -0.651520112173007
Ni 6.4061752742550215 5.300345231112635 10.265240590540026 0.47594744770859315 -1.0424072397761468 1.8376934134259317
Ni 8.277939227467767 6.129311434960338 8.919749585941782 0.26863297205620834 -0.46077048285783867 0.030965852253895053
Ni 2.2900954998663345 1.4053548700932408 6.803824232751854 -1.0750144842882066 -0.47181388515619394 -0.12800648464967634
Ni 2.223037284539191 2.2358996835509584 9.533442011587024 2.771684946200136 1.215231909181778 -0.4255247722816672
Ni 7.728611105838853 4.261358562936265 6.069482130740825 0.8488224550050284 0.22883820865677362 0.25608110353312674
Ni 5.087345024384002 0.5634814309844912 9.949050690185473 0.9323149164027299 0.9231286219177713 -0.8484231626840808
Ni 4.047639108042124 3.184373173496374 0.21397446106191273 -0.42650127726232356 -0.6338406926153729 0.27911407409319033
Ni 4.535167932748851 0.4866545178457966 0.3289813086382959 0.4484608122525502 -0.07870738130423219 -0.7918624926802169
Ni 6.149011361987076 5.103205847566269 8.058154735770184 -1.0930708275692853 0.10755413033259541 -1.821400332692863
Ni 9.168303070171204 2.627609707195443 7.611047657965069 -0.9941802864489587 0.8568777212093371 0.4762454385649863
Ni 7.299612268211089 8.67167622321505 10.127352310415185 0.5091964395697102 -0.22551120116606968 0.7347230673547476
Ni 1.6332351070511724 4.106000959186293 7.215358417197118 0.9094459822243564 0.12144734337491989 -0.3523498907598899
P 7.395244251568005 1.2980467801533853 12.051714788562759 0.9287426256704392 -0.5516420103284306 1.4577774401223154
P 3.9681481744254654 1.7075231675744722 8.162221538522614 0.013654100448324871 -0.20520565683949823 1.776454364109792
P 3.192434357481236 6.809589427138246 9.64264910350153 0.2564526279399325 1.2250828338339288 0.2532773155357445
P 7.122023357527199 6.504189183354857 6.683981608873079 0.6960696166486077 -0.05036791092959066 -0.24713546430406472
P 1.1003376026057718 7.321273781143761 13.480764682311156 1.4790733733866142 0.7765574868920303 -2.0568185085599993
P 3.909039052459988 9.179493450720296 11.431145603184431 -1.0565321092133029 -1.2799072378729763 2.3966756661695174
P 7.931317657003965 6.771282456660935 11.041690469243242 0.4642008486956264 -0.7297168723894077 -0.7674341844345235
P 7.470522445929538 3.7026428516146668 8.944522547756675 1.7228512340723556 0.9914816565708731 1.8964827156499982
Ni 6.17079430642821 2.6940327423244743 7.7781663703539055 -0.25511128342068967 -1.5983998137637891 -1.480373066034644
Ni 6.616279806551085 5.318942933677942 13.227735979950625 0.39845594108933313 -0.6995868857732468 -2.417610102329339
Ni 8.521110493606717 0.5856707039347112 4.757157807457821 -1.5846117588407613 0.5011925954286272 -0.505271136373375
Ni 9.214503088698583 6.819714946766972 1.3946119179484089 -0.3988246372826615 -1.2108643762417017 -1.942803453093409
Ni 9.10641970528162 2.7905801324374924 13.342493425890396 -2.9594698364600256 0.6813065994068201 1.4353036844998315
Ni 5.015438889603622 1.553211742974332 4.60797639704596 -2.043357497959087 -0.7827733858947551 -1.0281903248458164
Ni 9.71041068748923 1.3153647814372025 9.41596449985769 -2.48280196564564 -1.6648507462981716 0.1064012476750748
Ni 1.7930483130731942 5.8790224142484275 3.032368947557022 -1.1648483145229036 1.9984076727212745 -0.01954681178367601
Ni 2.3458232213653925 0.5390391365080272 13.361113546580341 -1.0289984225694084 0.4659885367236684 -0.48883561652517105
Ni 4.481579273975788 3.714281594656542 3.396026424569598 0.17179519969985252 1.1147282579380606 -1.13017056063506
Ni 0.7193490470700061 3.944739915947986 3.2554853330291142 -3.149394655881053 -0.8014527074718132 -0.015038382390361196
Ni 5.634945082238642 4.951042826577389 1.400573270925395 -0.791586613311011 -0.9142950827865416 2.6209902759243247
Ni 2.523879176312601 3.274858329071529 4.709964852826629 -1.7371668793640793 -3.429374163298333 -0.7750091685683039
Ni 7.895990428926621 7.721437305954295 4.829889676495746 -1.292111236138336 -1.6334552627060255 0.014549358569084622
Ni 0.7066052773011217 1.7301934961159096 11.718899980611152 1.0321243697929 0.18518473363288107 -1.0064231083720538
Ni 0.9546104515654091 1.8543245204204657 1.4452376479149853 0.7377546550922197 0.06809335323381176 -0.35195085554925837
Ni 0.8645727243945124 4.937283702580053 13.547194256059875 -0.7098445589455129 2.3288332526042472 0.46728925781296293
Ni 8.846640345139097 0.384360615116919 6.892304834348849 0.7862307483157364 -0.7995683459649069 1.4947244496603094
Ni 7.228322631858289 1.7494076971087962 9.935966912192892 1.2578281465857497 -0.5923307462970443 -1.8312949660987559
Ni 9.232549679033177 -0.12595156284296818 0.18653467650347613 0.24067993848670804 0.22495250044912227 0.24787825600736021
Ni 8.948866993494056 4.291081259853798 11.476985997629052 -1.0729609441932875 0.7140184878175445 -1.2093098872703882
Ni 0.03226902224114076 7.104966901030839 6.8208451938842005 -0.6111741042557925 0.4320749146953591 -0.1459389007583809
Ni 0.6284201994446993 5.272798960462162 5.330930091740252 -0.43933673846409493 0.0620350628548738 -0.6813366813138072
Ni 6.049166639375035 8.7851492974307 12.085701599604382 -0.25743916022291796 0.488439666638333 1.3100971311927954
P 3.751589090410353 5.7418141505709785 2.305751757661268 1.0213740732549312 -0.09474540860370134 -1.3025013211234084
P 7.093599043661689 9.617375470236361 8.189809843156787 0.39925555417249303 0.18273447232017562 -0.055787539283265214
P 0.8653349406322467 4.162401224424528 9.240752844474088 0.11951901600395545 0.24128491906055866 0.41681747431565636
P 5.961212863707062 7.444582807544877 0.3885696180179373 -1.9572060016719843 -0.0358036399621706 -0.32568266588134875
P 8.634181909755913 0.46958498411006433 2.213634749430081 0.2402104550494573 0.3277758009649516 0.2585393352656321
P 1.4773357319557519 8.727329217631977 7.6250197541464795 1.2714994734252554 -0.2607617968382477 -1.4308651891125035
P 0.519221514326934 2.8642610354184797 5.581402193803383 -0.5770211125231675 0.7636274090939236 -0.40311889378264126
P 4.46595197292518 4.105888868563096 11.877965915811867 0.35240619791912214 0.8926651632215916 -0.2665678619970635
Ni 0.23706606352886234 8.093466084342575 3.116270647196452 -1.1146133296267513 0.5269316520659441 0.1786998972394858
Ni 6.804255781651159 0.16873281736286186 0.8349144795853171 0.7303845878803937 -0.3490375385572053 -0.7837897429744114
Ni 6.026729832965257 7.663990861566228 8.360947938475734 1.0121646388415213 0.2628868136010505 -0.7481622235787889
Ni 6.284799811104039 2.570527557332764 13.948994303969073 0.9710827811995469 -0.10160845427212178 -0.186962137248278
Ni 4.433370965116143 8.185669962806738 2.29815014523151 0.8550226702784695 -0.19897124589401216 -0.7233814170896832
Ni 2.2248027118545317 -0.27439410923025953 9.977623524126717 -0.38839341464700855 -0.7800248766153405 0.6881722161784019
Ni 3.110561498121658 4.775947932259616 9.166298516193045 -0.8207174692386962 0.3903482243805342 -0.8820657904391906
Ni 3.880866942496669 8.864313300063035 8.238275026361254 -1.7500614759385602 -1.925216336139265 -0.3594631047659035
Ni 3.6828121521942006 6.76002668991498 4.275407254376859 0.361951418405396 0.20750062352126197 0.764322121168103
Ni 2.370128204828441 6.464509102743391 6.716901690817285 0.42381447445877973 0.5038020080270161 -0.3115500831347086
Ni 3.1798895485685246 7.754690857502509 0.43980157143829995 -0.596170945978741 -0.09387611862487058 -0.19594839990728832
Ni 1.9477053504281898 3.9416107193837586 11.204147145795643 1.1457383331663298 0.2887863070756317 0.752883026093226
Ni 3.5063348068570064 8.777844725152411 5.759744913928268 0.837394929894377 -0.3300041760748381 0.03790114592114763
Ni 3.193517900172133 6.772534135286626 11.946007726357559 -1.3558653385668455 2.0300407262455233 -2.6778993304065426
Ni 5.327648638746183 0.5926296634581437 6.847750679805403 1.3954083909667905 -0.18153325292322284 -0.6902527528565144
Ni 6.512614661865106 0.3425022400613409 3.1907109641495937 0.6749089234105925 0.24133994066821016 -0.0698321903017894
Ni 7.993938951829591 2.38631595899503 3.188414040462598 -0.08283940119473475 0.6305190844413077 -0.5914308601905943
Ni 6.813493917179581 7.030557408999077 2.323934724920749 0.20978556290069675 0.48016431400341825 0.4524897309062853
Ni 3.9126352932875337 5.5963111807770085 -0.15189773984731506 0.9650761699941508 -1.8150628205106099 1.7498125931525477
Ni 5.300130390751509 7.243753774318303 10.43421907318539 -1.7233135184207546 0.5250984555119473 0.6873355792097195
Ni 3.7865426830770432 2.0287468709990626 11.665759684330876 -0.7543539542117976 -0.1895576658895961 0.010846198685884547
Ni 4.778666129872123 6.6861309465728676 6.773241240301289 -0.40765920485515594 -0.19864754400600626 -1.3458521773052177
Ni 7.807756426700656 7.258643145432868 13.09676462536552 2.082609244370859 1.1968217821057066 -0.005019307591462323
Ni 4.6925618494868875 3.210116653290441 9.640597845097037 0.5505323222040196 -0.3235818174882621 0.4947848921300704
P 5.932966026661612 2.431880797324297 2.4281098819422704 -0.48600945993028566 0.1317322702406957 -0.3253358240648913
P 2.9276202601801473 0.8727301194976179 4.168265432194744 -0.6874888169581321 -0.8470671628768187 0.31405202362095597
P 3.494322428404477 4.8057827198003435 5.337382775282248 1.5585497716463868 4.35927378539135 1.8105623615370947
P 6.760624506572028 1.9782687270196946 5.626791423489642 2.651996237387536 -1.0275763454109013 0.5115328010123706
P 8.659383618204531 5.983490875067312 3.194019505710936 0.6047309197336102 -0.5686879100671238 2.568129166259235
P 5.612629707337327 7.933279242909899 3.9689103906631997 0.5090154339071556 -0.7145949291463048 2.4649736792149675
P 1.8739777430208708 3.2061841405933067 -0.38934397740651794 1.4505906925658887 -2.7137664766167973 0.5053955777663812
P 8.33124765968284 4.034309664767039 1.4792786360911532 0.04899879849620593 -0.2639880170850292 -0.4032973283420345
