# total energy = -340890.9611995622 ev
CRYSTAL
PRIMVEC
9.07396296744568 0.00000000000000 0.00000000000000

0.00000000000000 9.07396296744568 0.00000000000000

0.00000000000000 0.00000000000000 13.28066201309481

PRIMCOORD
 96 1
Ni 6.545267280294107 1.9050513080057048 11.54453452374619 -0.5950080360188914 0.08206472781223931 0.2928771893155537
Ni 4.584592579155493 0.4824952784815794 6.188908253949766 -0.19270032528363587 0.28530683316746347 -0.032901635824027206
Ni 2.517679919321919 1.6759791123058185 4.935280378630656 0.7126822855046242 -0.11734900493583017 -0.3706258062509423
Ni 3.063097686766116 4.176790534428051 4.616305172411644 0.32236388592076093 -0.8484005369762614 1.2432294228359686
Ni 5.119765842383205 4.465043116753196 2.80212688156877 -0.20025011260643577 0.6545362732915114 0.22229680799383003
Ni 7.558828946353814 6.157827208517766 2.7671322358988872 -0.62516939009362 0.6914812259469769 -0.9777828189275418
Ni 5.014680276988063 4.68774539043362 11.593964937137956 0.41760088944890017 -0.23679834404411473 -0.09705117391874253
Ni 5.710979901041398 7.999387997477636 12.334680702634405 -1.050193825700101 0.5321826160522383 0.29203618147149707
Ni 1.8730202186485807 6.485497086074454 0.5785150474527272 -0.0043510778798441195 -0.07712229620529944 -1.4435818653482235
Ni 2.6312314921873723 1.4245033019819267 0.0629079706218329 0.04237717941463025 -0.6794754597353523 2.0438609199580675
Ni 0.5651636183082308 0.0998371852013297 4.4982002849174645 0.510793865963817 0.5853039213572501 0.3026023870231176
Ni 8.429675322496001 2.6054795852198036 1.4072192172772668 0.3709682771920256 -1.0314857077676365 -0.3434132503918924
Ni 6.801316367965306 0.9042721336109786 4.955479927644224 0.985519268339851 -0.23344691107337862 -0.06678594727629789
Ni 0.9532107382086493 7.404626019290085 2.714261883137352 -0.10051882075236883 0.7595946337854466 -0.18614221245014392
Ni 7.504593869558479 3.997198658916379 3.7269125233127935 0.2392460342536589 -0.8182067870017006 -0.07933730157874724
Ni 7.742295404062509 3.9080106766809193 12.65034844934331 -0.37035326931584606 0.1136029076298366 -0.0427949836783392
Ni 8.026755069857547 -0.07836183699127144 7.246951393986117 -0.31164212862788265 -0.2775688410932574 -1.823495524658995
Ni 6.696385059941004 0.6839118497784507 0.38260909388009995 1.3516019353048014 0.34765788460085933 0.00820618995987619
Ni 1.8406443186978105 6.055518275797773 9.321430831557624 0.4750192794673691 1.4290685022233969 -0.11585082312374888
Ni 0.2655395455631571 4.81896396924194 1.4024508497256607 0.195421837979857 -0.3760163811388944 -0.2785458602945461
Ni 6.431688485539682 2.0265425984880094 7.065285210534775 -0.09447364299955342 -0.10259987165111363 0.9804207707710212
Ni 3.365369541911872 4.440679526123202 0.31440102147540694 0.913924072600368 -0.49221301763783615 -0.10471871776632932
Ni 6.198215417789313 5.91910031619579 4.849606742261489 -0.49581590449774615 -0.21279812447477547 0.12263570725606622
Ni 5.2782426060155485 2.894530676288129 9.648029074085114 -0.21129917133174575 -0.30556121254112534 -0.7244697650578555
P 0.2988418971352764 5.49099981625818 12.40243870647476 0.3111104244941287 -1.118275094749055 1.4540190015211476
P 3.9561389763835217 6.36361561518355 12.570598296014463 0.3962550767832724 -0.019889282724759295 0.5825968068387322
P 2.4057798077207697 8.394413902314191 1.4473134301479151 0.7840463390699077 0.7889432621508928 -0.6258641021677995
P 6.712400604619567 8.002591106413348 5.887954845626556 -1.3342073939774377 -0.6245741797117824 -1.3596330331393938
P 4.589374557651585 0.9391733174620569 12.755610957016772 1.2512486935960192 -0.5578388831677619 -1.425563317283616
P 4.058248281917719 6.2434944931128395 8.201791815947894 0.641542946355637 -0.5995704585785933 0.8124004647325688
P 4.657710572934447 1.1306248626025561 4.121959298264228 -0.5558881871992942 -0.6885038884862078 -2.2683963874744286
P 0.5921341585054489 5.532839859608237 3.4415772200891546 -1.3076188448556318 -2.0674070827091233 1.1412599856800023
Ni 1.3765746294651195 1.0413642886631709 2.31196410436006 0.0008988576651855487 0.1554560962201968 -0.1869575092625877
Ni 1.8068801024094652 6.394839121834503 5.010435477101019 0.9922038794488782 0.5194895939656021 -0.38401122641891283
Ni 6.0767059793810265 5.65365967682923 9.423413101609952 -0.4346007664410063 -0.012432826446714073 -0.9583676476257237
Ni 8.523427508115775 2.1591041238189517 10.252790559488403 1.3544694866605835 1.2381147273172226 0.41406767948466117
Ni 2.4378562668928474 5.357812187480881 7.050570872149077 -0.47193035612940015 -0.8458626010457563 -0.400095276464969
Ni 0.32172552440148927 9.04184116169969 9.056269670251181 1.7040600695077814 1.4450075420511566 1.7669739354231828
Ni 1.6011733614105972 1.1356427641364057 11.250699639389174 -0.664228817988927 -1.2262537142135785 -0.6464149297359577
Ni 4.063638215934187 6.765201995262372 1.6492726244316294 0.2259223205615593 1.2974375334472559 0.8884794072750183
Ni 5.916205722001759 8.065165155197123 8.000111192327994 -1.6631340207173808 -0.834049410460912 -0.21257083895531775
Ni 5.472171343052506 2.8539065439788245 5.012188566750821 -1.804650366928034 1.5584114462963097 -0.9689127701314216
Ni 0.7911143707393208 7.509276034461674 7.220549791268415 0.8740676027250625 -0.7704678290545247 -0.6745463978648512
Ni 5.246220590621415 4.4672480897599325 7.356477756868903 -0.6174455390868011 1.2248655756168 0.7961004420209643
Ni 8.254529688849765 7.095975168161876 9.148928443330577 -0.47599527022739313 -0.1143500702085063 0.48087573824814595
Ni 4.62868296532724 0.46411415165134534 10.40850611618268 -0.31589164793285596 0.37605083392125555 -0.05874945012506657
Ni 8.529997057321033 7.214853157302863 4.733971787493374 -0.735321877281011 -0.6474184312998076 0.652553695643844
Ni 7.509412143906535 6.312066431433459 6.95238696300465 -0.16835274967720681 -1.2001351627496557 0.31330897480734426
Ni 2.689032636438047 5.024915707241557 2.4811726440214885 -1.4769352439976886 -0.04440423714698804 0.6710198727688315
Ni 2.4716386311071745 5.089368066364405 11.509460027201989 -1.1329167559216293 -0.027077315832766267 -0.7958633863094938
Ni 0.9327580256276413 3.1394006415548006 3.393939821784348 0.033100896319026865 1.291721714009401 0.5533060282944148
Ni 3.653358979310287 2.5123262811574136 2.6110709612146645 0.021914540684904196 -0.0900721714977481 0.41561856891154875
Ni 0.9592358496344653 3.5069142906035946 8.231128845693084 -0.0943214336924053 -0.5510084905094897 0.19183797728334057
Ni 3.6254565431139256 2.8753936883407705 7.080664670407689 -0.5933679293123071 -0.7827165645148908 -1.2131331176712206
Ni 4.351564135591667 7.201968129856087 6.137870841712349 0.05590066782236179 -1.4664878234121195 -0.7443793594975889
Ni 0.6931473293103716 7.126127947179927 11.228613613469841 0.30670586766852986 1.3489094760743028 -0.19675521207929986
P 0.16807157209869572 5.486644314022651 8.055292683463257 -0.2555715108865598 0.4658514969251719 -0.6737259588460849
P 8.408179104171063 1.8134224297257504 8.074974109190055 0.6279927184750281 0.1573168035780194 0.09116900410635266
P 1.7307132570656407 3.110200628650771 10.373763726683938 0.02760979129746858 0.9032429387374379 0.24253036143188555
P 3.992226127197483 6.057260476691985 4.113220164507898 0.9027359171940323 0.5445786757237461 -0.6535492267878938
P 6.894034121804142 4.00143619963303 10.57463404540877 -0.663804843077631 -1.1140631135502361 0.9840606815164538
P 6.429465364606964 7.662934523745964 10.205033384872118 0.6567690192767721 1.3314390872036812 0.5591300911753596
P 2.4472024487732553 8.369006805940268 5.89430299013484 -1.0515763078699243 1.289004315078238 -0.0029318289348143054
P 6.707355481196745 4.058139394361831 1.413433974529588 0.6956734096514535 0.4687648139172249 0.3735517216484857
Ni 5.200233746184615 2.8077019244302472 0.3188381893778528 0.04925668014328291 0.6053870652603702 0.45823331825828173
Ni 1.2011930727811266 1.062152737874834 6.875265536754206 0.7622315571876616 -0.322967838053347 0.8151392038199704
Ni 6.94131854294861 0.573940862709122 9.355960890322384 -0.49013350940098815 0.5971315101197975 0.5532702899604729
Ni 2.6045721889207347 1.7543055608414264 8.918748316749529 0.2538277887225757 -1.5751925224093903 0.6203148902147962
Ni 6.332410256458578 2.119269426289837 2.5978039199259815 -0.24988551624537608 -0.17078295638525426 0.39347005783896755
Ni 4.410045827066644 7.106510039194062 10.436223443534033 -2.1331759015748166 -0.8889820579430496 -0.9229296185330879
Ni 8.289047044066338 6.849190596704169 0.5058816032974762 0.15024601277416702 0.8872848727462848 -0.21228467517346666
Ni 7.4965724862747125 3.777635976430733 8.455850983535234 0.23681685598687605 0.815132518951751 -0.793564048752356
Ni 3.043352743298382 8.320370364310188 12.219497631223225 -0.10890730192638019 -0.0044971165394051575 -0.16737650180686656
Ni -0.34022733493949947 4.98055310218009 10.287506634494472 1.7902002529409748 -0.9576608513666863 -0.31420551847968464
Ni 8.683610176790367 2.219255424484214 5.639579608456582 -0.049765244348585265 0.6369203599819612 -0.16245541035616537
Ni 3.6079437945419 2.715165649851224 11.555676442902454 0.18895037132290038 -0.09984210640031838 -0.4202725227437923
Ni 1.0698837543428992 3.1520951157787716 12.631436495678122 -0.21555100462956425 1.2782213655301211 -0.34549070174621144
Ni 3.2472719135880843 8.362065224252394 8.03720464563762 -0.37579140961228186 0.1991280831868506 1.0139551550830408
Ni 5.808978701340815 8.272786502387026 3.7603927245595306 -0.7454687359070259 -1.3396720166364346 -0.4971127689322986
Ni 2.9647450019100625 8.579032753322704 3.6421952826428456 0.9042721513329007 -0.23021631995122288 0.3897571277637546
Ni 3.3038027030200627 4.151800840351699 9.114186053831837 0.5123216154622531 0.5430293289587551 0.6038901689998696
Ni 7.253753236643936 6.238449369690017 11.657432771276314 -0.03268077806247274 -0.2578376812129173 -0.3092245203253255
Ni 0.7325800502789989 8.787452609255787 -0.025524150496502675 -0.11583642494604568 0.05870779825385373 0.3451757416089539
Ni 4.858381264473484 0.4427549501675678 1.7431001239442272 -1.8678709654505765 -0.8342705253327825 0.47451200081364725
Ni 5.925288758955437 6.012153806665282 0.4092956190357096 0.41425665556701563 -1.3371016848060973 0.49022401223226536
Ni 7.962756408884233 8.731175890787549 11.606209342797587 0.24244294392440183 0.5658021038788965 -0.48798278160657255
Ni -0.18243565551295277 4.612204648536153 5.603615863539294 0.7746204177703175 1.5823581869198942 0.4564253185152655
Ni 8.25141731954396 8.842912671054863 2.176501633060995 -0.6299305589276892 0.4006444641002197 0.6412557541325214
P 8.345868200314017 1.6679849509110236 3.4713924476839533 0.1584087510906175 -0.4851800220504547 0.013620933217544285
P 1.9803107570504603 3.0840857631635745 1.3626887439004716 -0.8600687173428091 0.11677333493801823 0.8519484022285199
P 4.705466840154432 1.1861756640315402 8.274423445310546 0.14337576801689503 0.10652157530302299 0.36664805255011695
P 8.667050194332365 1.543453882826839 12.641504057616288 -1.0708315565551105 -0.6186781259423216 -0.20785980663289363
P 6.3474730350231185 7.851173885987759 1.5689907368715286 0.144511424283235 -0.40159371538736643 -0.08303223393183119
P 1.59579250135712 3.339336342091592 6.097364670921923 0.7399418925515256 -0.6686246330637775 -0.7531866733765737
P 6.788340600888623 4.05666941235734 6.0979218122495515 2.4531085523462655 0.6701608672026458 -0.7979732335636451
P 2.1439415316615142 8.315588385814095 10.040047867586555 0.6948948796142161 0.45639343683606565 0.23200400797926496
