# total energy = -381173.5572462046 ev
CRYSTAL
PRIMVEC
9.21230874234966 0.00000000000000 0.00000000000000
0.00000000000000 9.21230874234966 0.00000000000000
0.00000000000000 0.00000000000000 13.48314503886853
PRIMCOORD
 96 1
Ni 6.607436101311633 3.0076620945074533 5.5485429692722965 -0.2634545131790624 -0.5177219605422181 0.8905427175619501
Ni 2.4924084714768626 6.258215913189775 7.366852747081005 -2.672713415330229 0.6668667698324063 1.241314979422075
Ni 4.280139833900088 5.561489026314811 12.286259536459717 0.4339608188641623 0.13995980035681058 -1.368624952225359
Ni 0.48046886761407387 5.32684231818851 5.519715813720146 -0.13527550750726383 0.07843792969292943 -0.04371543861007955
Ni 2.5911275686572424 7.183279076913645 9.732780829911169 -0.5653999833444714 0.49400096277619443 1.1695107529955795
Ni 8.764433635009432 5.784353191953831 8.06803102139135 1.217375180777026 -2.520985418693897 1.211009129349682
Ni 0.9140618249918054 4.610060235852396 0.43607843819326597 0.316913404329151 -1.0673019461352973 0.2832527788519122
Ni 2.323316550167991 1.6031996121787138 6.568003736290086 -0.5296901886476877 0.056752731410011935 -0.6961547201632463
Ni 7.691761653245134 0.7148217031013261 2.1804262765075366 -0.6411235994300314 -0.019048789101334933 0.7168117342919654
Ni 5.318873671392968 7.144919024593834 5.252413314656461 0.6992246173378216 -0.6238370444354419 0.0031357174155042774
Ni 6.654575483569192 8.757505979066948 6.739805918740284 -1.5425032597064854 -0.6605053463907528 -0.16875487021163196
Ni 1.3173232568500897 3.1055612962371932 2.9668313010656022 -0.5576337091354912 -0.0924805238289246 -2.6518113750702392
Ni 8.568930025419846 0.598130313396758 7.206133892907935 0.8052522837235615 0.853312372455582 0.1965772917405389
Ni 5.429458221836535 4.399558988132008 0.9514260267698851 3.8623463929969803 -0.13859788701227743 -0.3316581667384933
Ni 3.3765229242109243 4.593643902222736 0.652712319638269 -3.5160702192349964 0.1660179308964431 1.070016259742667
Ni 4.216952610350234 7.771162539639095 8.118093469115067 1.2080544175967325 0.18489625585818478 -0.717294587465655
Ni 7.122367293547028 5.4017752349919075 5.798183630606025 0.11221656880527126 -0.298624376211976 -0.1114490945116274
Ni 0.916953568609286 2.0528431745412696 8.41011167047674 -0.059546234994749064 0.47103201268484685 0.3749264905088252
Ni 8.588027140803844 6.401743678593872 13.036245542085046 0.22649207702210025 0.11794164421450655 1.4698963348730363
Ni 5.124309717263665 5.732930086274392 2.7936270052717247 -0.6839856889008801 1.33761153456298 1.5798359347186728
Ni 5.994734679664575 0.49168945928687174 4.736156471237391 -0.07280849932129398 0.9549043716674716 0.40572085018186255
Ni 3.1652846918158044 2.1823498065085873 9.712313844263013 -0.0016028257107456268 0.8585754206267343 0.5747099478914877
Ni 6.304553824613563 2.8565157500283114 2.570345522060637 0.8849279424783341 0.2731316312575102 2.451229333045682
Ni 1.0491990198740773 8.638630351032644 5.733086695517772 1.8774575806977472 0.7886943793648804 0.9904185054136813
P 0.9019402695541475 7.952221249603931 7.8425524026187174 1.2126816319560987 0.22109198905245148 0.6834113044546488
Ni 8.127752574508275 3.8552313196832317 9.5042013481196 0.7182862619549629 0.3081289732683016 1.553195706423325
P 2.544789657233454 6.354088407064001 2.685262621160787 1.747599644661629 -1.6044308504492175 -1.1500433882995873
Ni 2.110134520693265 0.7694295038064526 11.549661778681738 0.5314287686053493 1.1459807881944395 0.5242595045504197
P 3.452469194942079 7.659297478323181 12.025872717337549 -0.560040518804771 0.2138931573111671 -0.5513861855638826
P 7.810397761260151 4.304165534296358 0.1692651127074336 -0.4970502911254795 0.46882394928993454 -0.28385236010912407
P 2.2687888965462415 1.4918688647519796 4.098673939902462 2.4432077482927856 0.49988930323617137 1.5245939835262323
Ni 0.6235986612938165 0.6638831648455225 3.3161390061175844 -0.6292391892876196 -0.48736648817881223 -1.3070102647373556
Ni 0.37109573572959675 2.2557442678034816 5.487316124957231 -1.1770016620559858 -0.6775155077955042 -0.6096728371199178
Ni 8.666451522503785 7.644410387893589 1.8803730997295944 -2.1358930433956633 0.7923736279886806 0.6525372405836116
Ni 2.4497278465014336 3.655259740503081 12.090780800102902 -0.1635931235050344 -0.5586061003510896 -1.2689186000719566
Ni 5.310066704529918 8.973479337997224 1.227420338841194 0.8189958585618992 0.6922746683825497 -0.3166367536289966
Ni 2.7378796420132936 6.220998187115798 5.220498193317182 0.8482596405230229 -0.3503827397311901 -2.494605900259104
Ni 5.5055242525773345 7.211081823767918 10.199580474270647 -0.5203480853111555 -0.28344664003027314 -1.1784463649223125
Ni 4.274778270391411 0.12206216552167894 10.571243688199788 -0.25576048696891435 -0.5677862241884608 -0.308757607991236
Ni 8.181930160409527 8.032976345337712 8.77036728287187 -0.3327416296106592 -0.6521168652167415 0.17657050960130882
Ni 2.180820563308518 2.0322997267331093 0.4890353932269924 -0.15707897653560043 1.28307817940179 0.003896249730612645
Ni 8.510984605369025 7.18561900325592 6.522997003435034 -0.8978698473509827 2.2758271327208615 -2.5854532593599795
Ni 1.9936909420855757 4.522239299549619 9.17043941355025 -3.2721540331991776 -1.5675604597854293 0.32702272484901096
Ni 3.9067649730638814 7.849080244375159 3.3432130593747154 -1.0475954688453055 -1.0388208079764691 -0.05974086750405841
Ni 6.403088675625258 0.2078278358127965 9.043536179946424 -1.0097071784399643 -0.5383393796822534 -0.3171962256768924
Ni 6.508256388709546 2.0006278103364927 0.4659272387507639 0.32742844492786194 -0.425336567530261 -1.0889264663836087
Ni 0.08790016215531074 4.429047587429731 11.770569250009347 -1.1764673868190705 -2.505986888402536 -0.7952722896927142
Ni 3.683513890470627 7.315171696765408 0.8532495345562771 1.4457156238617745 -1.6709450321213677 -0.8039446206557316
Ni 3.491299074992032 8.451924495997673 5.561231081678655 -0.41704398850416563 1.445052536356479 0.8857512097105777
Ni 8.987887388388238 1.6879804866982207 12.337616313518431 0.2655756732871233 -0.2255708507594115 0.9328913577314902
Ni 8.274394100163118 8.86882751418525 4.708125259133951 -1.6964568032392269 -0.17964606320283902 -0.5596803072518748
Ni 2.148466936087774 3.670257378633881 4.859797626424683 0.861855891150219 1.5344919593662347 2.528051324401743
Ni 5.639544915677387 7.771042779629451 12.429814017558272 -1.4966232093449192 1.6218271915487938 0.6214495180398717
Ni 4.6177525133949135 2.8407811272227783 12.84216891907191 -0.3553105160501106 1.314882982617213 -1.8460829230412077
Ni 0.6528108913385144 8.934741581031611 10.145405652061926 0.2997543760513611 -0.21250656137628562 -1.3858148337410843
Ni 1.079912856193542 7.320385863339139 3.758642108212828 -0.3807166148280411 2.06537642543234 1.5943454411887574
P 6.159681062178079 2.0026913674257427 7.469473256883248 0.677951052671026 0.08913037640976908 1.319576017217508
Ni 6.190652843133699 6.694566114481848 0.9164551827229983 0.5534029588835953 0.7404100904371957 -0.7005857593514063
P 4.6788024813880424 3.74550351392404 10.633279373195371 -1.2828066709079584 1.631004744283004 0.6280832213063053
Ni 5.7868220906141845 2.170005313206823 9.918646522416944 0.2759966115101311 0.3060813467106535 -0.8874034006020199
P 1.1814969812969431 3.91439276444736 7.099873600043358 1.1802163123385416 0.10554455610173435 -0.009466287619222408
P 7.423969059372751 6.119368000470226 9.906389546045306 0.06883177406173306 -0.6721701843231909 -2.183189514488782
P 0.2712195726098876 0.22368682478219026 0.770843593151095 0.08842717969515738 0.9840948771884988 0.017584802961298746
Ni 2.3470474566943684 9.101484363689774 1.308239920734015 0.04928470516774093 0.7495297933502768 1.0776177262390085
Ni 0.48203772374041004 5.602760168099815 2.4100983380793957 0.01221428267800477 -2.688082441587132 1.5347354428356084
Ni 3.823375157117932 3.418595536829699 7.5693973240068155 -0.4797552514904576 -1.447571960344223 -0.09459345640686935
Ni 1.667234368104509 5.9720263393743895 12.085374096282896 2.76135091126398 1.6143805054627616 1.0960828749227316
Ni 2.5643566003475944 0.18691128951305297 8.562996377557408 -0.6322797758861562 -0.5418695043226991 -0.3271289114095721
Ni 4.358812947927751 0.7984943369162042 3.1426242555294763 -1.0871531765332696 1.943947336889865 -0.361043561879146
Ni 4.373073601383819 0.9353072507026482 7.07580552302829 1.4623020674655463 -0.8665059883277205 0.6956371570968793
Ni 6.233923055848915 0.9108338321164784 11.783917884930434 0.749933970767231 -0.40050228209540056 0.03017832335559319
Ni 0.31947456541882246 6.20494113351507 10.368443930330352 -0.4773733815218424 1.2755870132310676 -1.1076718653119118
Ni 4.512953292647993 5.437767724044142 6.843046416900147 1.6173038497571437 0.254304214138362 -2.2943077080235517
Ni 8.80223173651476 2.6605791619423185 1.1806043086096738 0.463868147946556 -0.19365189056362778 0.6191486378208368
Ni 4.1279617108763205 2.4271024169871547 5.086354085284111 0.9279916064370276 -0.4490423957876331 0.47059826758153794
Ni 3.8762722321468366 5.369274210836217 8.997464504236383 3.1978658640085635 0.9771318156071042 2.0855066205233115
Ni 7.740024937131659 8.022455889105911 11.158785374282331 0.17679239580412778 0.8670292078210423 -0.3808235727195506
Ni 8.348193903029113 3.360852787564431 7.26763065786012 -1.2207955193124846 -0.09241110404356988 -0.4329434333432415
Ni 7.374766120025941 5.367680481477108 2.360642060250647 0.20372521563922982 0.0009991306884756985 -0.14667037960776677
Ni 6.140924802206143 8.04916237125652 3.0461925745332965 2.2660003764384262 -0.9516118169591289 0.7602865176461486
Ni 4.128855304794433 0.7185517667863145 13.05351769916824 -1.045905225627076 -1.6208388594935959 -0.3460802557010943
Ni 6.985785608702281 3.3741737855602154 11.792897121961202 -0.5528992797742994 -0.18327697508720694 0.19353541959042153
Ni 7.51889268547826 8.897892347295 13.370506783771527 0.28936069152186294 -0.12493298793067516 0.8015802341886131
Ni 8.201441829673062 1.388866044149719 10.180704454289067 -0.7982347147551478 -0.06586497812392528 -0.7643344624632772
Ni 0.6693718582105906 8.269308905907465 12.363881526095044 0.2790513391760549 0.15645162736424667 0.7486396774358397
Ni 5.950534023797511 4.2530187978699425 8.688255214105737 0.053668950278365636 -0.6574292785685903 -0.5258466465318815
Ni 6.406976269784471 6.4624435788665044 7.890794498195844 -0.1951169051449285 0.8583923580816508 0.2960841262886255
Ni 8.430330845028019 3.957662977162575 3.9052311237095956 0.4148770627598338 1.2029181248114316 0.07089842678277467
P 4.449572610621023 2.381335668686284 1.5360805753891649 -1.0374020732520715 -0.9164139289017572 -0.9081632588571907
Ni 6.791921790013973 5.916098414870648 11.830663901617854 -0.83595691189627 -2.367461763609723 0.8879271343159741
P 0.862628585773088 2.531441022312367 10.524363171809227 0.713093919120746 0.5120254243780731 0.9552892658107162
Ni 3.9458159485162545 3.8407127215910073 3.1207818722321004 -0.8430886378450448 -0.42532782577951267 -0.13639162338957803
P 7.804372911544216 2.048412054184442 4.141887036305386 0.1857920281995768 -3.674494139834265 -1.4036562327978794
P 5.377850869988412 4.543031479685501 4.803033224315121 -1.9456738326626686 1.1840868510375413 -0.71869223914413
P 8.214062692227852 6.699669733354369 4.214561095080729 -0.43373096224154334 -0.6321522491693564 -0.44628411631620557
Ni 1.3774151447660672 7.027204147422231 0.9324790720133634 0.4543586657942239 -0.3210981318344599 -1.749691237083335
