# total energy = -340858.09876325435 ev
CRYSTAL
PRIMVEC
9.34403996042169 0.00000000000000 0.00000000000000
0.00000000000000 9.34403996042169 0.00000000000000
0.00000000000000 0.00000000000000 13.67594699211159
PRIMCOORD
 96 1
Ni 7.905917230822496 8.418325679435466 8.027042148537953 -2.2381072495725842 0.11940177369980082 0.5789538107695062
Ni 5.346500662911017 2.8200405229921333 4.387954498390462 0.21938966164936408 0.7870596719749349 1.3843832435008803
Ni 3.173450792211283 8.059598651631743 5.647373134559663 1.7974985863746014 -1.5853622638535405 -1.350537755706345
Ni 8.20238492216048 3.554809084148281 12.681555001617264 -0.9873612066445964 -1.1636473522362671 -1.2142386920305732
Ni 8.342695022170915 6.286632528411157 6.801581621416297 0.49189754327994634 1.4436055194973074 1.0518570723351368
Ni 1.5601743073217007 4.2965109227556635 3.127579966960801 1.0329725767258082 -1.6319316269726474 -0.31610402105397817
Ni 3.5326917421980473 1.6958964838435169 3.3382572266774577 0.5257574292521848 -1.007600930730239 0.04072678829540083
Ni 6.751601287509409 4.759564153717118 0.6415000945695613 -2.141210598953835 1.3825114803994643 -0.2474375689255158
Ni 1.968695722642445 7.020186364407384 11.89517463722406 -0.660425899303069 1.378565865488155 0.8872303653592655
Ni 7.9728392430943895 2.78842029267545 9.740173713592794 0.959465765785909 0.5546196048995158 0.004538254189985732
Ni 5.058704240406924 0.4332326626893916 12.12290570378202 -0.036278265605743966 -0.3765876802613321 -0.14197965900031675
Ni 6.930091133700096 1.2885524175239254 4.458180563097337 2.5073943102730234 -0.27951079531097667 -0.06265109917231791
Ni 4.765581715278568 6.449601924673945 7.839723119242587 0.602539054288614 -0.8023081134935731 1.136872398135268
Ni 2.709322996685283 2.366321987682678 7.217904375475634 1.6673817402501412 -2.197195598959887 1.02747812927014
Ni 5.465132590836731 5.606844296800921 5.726419972735495 -1.3564402372337092 0.43505456614897337 -3.099634810849107
Ni 8.276576597312507 0.38749639161047006 2.2011847742114172 -2.1097883758888116 1.526466517958597 0.4940004485555622
Ni 1.4950276625912287 3.8154984475067772 8.39121862028987 0.7222717289652723 1.2005015449501388 0.8093012569819547
Ni 1.2029516699083411 6.573915028732206 2.646501149030104 0.49789644117585863 0.30568231150002195 -0.607703886319005
Ni 4.312657423342905 0.25144343608356773 6.851458236482607 -0.22919430644461175 2.1428717887063415 0.06830444080335334
Ni 7.244845110714719 6.313253697492786 9.353800475553266 -0.06235413675718938 -0.45495773283080354 0.07222974399968851
Ni 9.033649381212722 2.7615374904824543 5.07759134783574 0.3450690408277606 -0.5428115565209942 -0.8216302108609527
Ni 5.651714375400423 8.156627159790267 10.176983274676166 -0.03349556065428425 -0.5435124392427607 -1.7381055891282646
Ni 7.14098610954157 0.858408894356607 13.341405855737337 -0.2833628220672152 0.1386300258017935 -0.4407302763775119
Ni 1.2542878239744932 7.592153722015194 6.710336139422962 -1.1515189444038492 -0.548639476056681 0.6601929573566566
P 8.453421892517458 8.544900041099115 10.484335837851 -2.0847023794544617 -2.408861152492116 -2.155559411476339
P 6.448985218054293 1.6624915419457205 11.005184757517474 0.5046247610386277 0.38215797526025796 1.3575337274082038
P 2.1980825530337755 3.4702829010972414 0.4528187042871458 0.4133984213317784 0.8737667836551919 0.464058152470175
P 6.467570513001068 5.057536235445464 7.343463974428767 2.470869218763796 0.31724713351948586 2.0695734942328228
P 8.367419351195132 8.243517384883305 0.09665474657085507 -0.11611024743272262 0.11974527308214863 1.1681020455735107
P 3.333616976566564 4.1231229222366395 9.962175015011812 -1.4246508327716754 0.19873367596190936 -1.9711704342718763
P 8.301814848519767 7.490668106923734 4.894717278221711 1.9199792561100417 -0.03350815905977455 -0.9698944173184005
P 8.107365382535669 1.4107350805324812 7.637633032002594 -0.7994176793196555 0.6527665829855983 1.3007817673291404
Ni 0.3734616439935497 0.30572483146054097 8.55522053293859 -0.3322420642664214 0.8306144166374341 0.9446785801744053
Ni 0.29500908674210935 7.091303850500847 8.904531571944993 -0.13918024187830869 -0.16606318231208175 0.9931425892130638
Ni 6.617953487799149 8.094180942530693 5.94812039607644 -1.3264161800677932 0.5803337218361683 -0.7642241621376581
Ni 9.035966703056262 0.26664058223813447 6.172268957816609 -2.9397466469994855 -1.1184157340919771 -1.3489112758465154
Ni 3.288634769490762 8.099123939527598 3.0889582477031334 -0.5978118240162736 0.5274363596165045 -0.8373239674471257
Ni 4.300921309490142 0.5776578777800494 9.469116203792398 -1.8177637643815403 -0.6104053444105682 -0.48273798826786546
Ni 1.0763399320859237 2.9362616886773902 10.46192135543857 -0.12741435959163216 -0.567366620152539 1.4997255024193268
Ni 8.671184737532325 6.990967552291465 12.021512594683509 3.2440649882724455 -2.15019917560569 -0.7813104281959834
Ni 3.0076968721203707 4.631326552988347 11.96756104390765 0.33686825018452304 -1.1761861081332259 -0.09797137174016676
Ni 3.6228710692625605 4.749154893500575 7.029299606318691 -1.0418310555577024 -2.2318574120081305 1.0960211684468606
Ni 8.367400663115749 7.4958727370320055 2.322230267589494 -0.2702447966280185 -1.6328857633558007 0.25498221404199317
Ni 5.056835432468586 9.509148873043511 4.365512918262927 -1.4560784551533374 -1.2733722649679362 1.4031674660869191
Ni 4.119674971590405 0.1824096708413522 0.9826332300377973 -0.5442392901064562 -0.43792211750475546 0.16979385299910757
Ni 2.25037179914848 5.6843063858450416 0.17225363410045288 -1.192799805430507 0.39581798924585376 2.2662425743562196
Ni 1.7556329295924997 0.4986521533788609 6.000690897785865 2.822217407732049 2.1707296914588747 -0.4270604921999032
Ni 7.748769171287631 4.842931675846388 5.296475477613609 -1.6487253014912187 -0.9376365857259594 -2.043489909771894
Ni 8.768026364897015 5.747612254756252 0.44269069966532154 0.7274345041131343 2.1460357882566203 -0.0037774647645612363
Ni 3.618199049416715 2.0011008522932308 13.370412558152253 -0.5958133055290061 0.531620058680549 -1.5457109680105057
Ni 8.612793833498944 1.1001765773394283 11.125875177387265 0.26462565066902816 1.7839077350640438 1.799043562264218
Ni 4.446548168085151 5.953209160092536 10.491406472685702 0.5515458510701986 0.8871421765208335 -0.1951305319916833
Ni 5.274000258943185 4.181252193158651 8.925716378733997 -0.6242054835184541 0.2616971641683235 -1.1903811686866852
Ni 3.106491403780623 7.735098841218687 8.802851600827946 -0.7863456766270458 -0.3604866609344114 0.8712656144998931
Ni 1.1745177571265246 8.351487763520797 4.403736581429729 -1.6439193954621427 -0.7966064351231056 -0.2545052744055746
Ni 2.180515758413396 1.487935536465235 1.6970757016526086 -1.2211248776274453 1.956217926727102 -1.6985797631195003
P 8.87523987631948 5.003396869471804 10.379523744629298 -0.46441399314769694 -0.6145417351764447 -0.490895070157361
P 3.58043978502259 8.322567960675013 11.053706486828487 0.28644326076475185 -1.2215056580056318 -0.19893319356722514
P 3.8655077479367095 4.034700274634164 3.326755648220955 0.1489805157981821 -0.05110144666150554 -0.7435393800947969
P 5.035811343162281 2.507398298947834 7.0456012179648155 -1.2182814946413794 0.09619036858034402 -1.1319374227274959
P 1.326498562711884 2.0059877850519854 12.61642984817808 -0.3671393903642387 -0.2147678466066366 -1.1598382629028219
P 5.686866652720565 0.5125831821552035 2.4252511084022985 1.2689347980218728 0.09745252312221926 -0.2524777024525845
P 7.347816428117157 2.794232285363682 0.7986369412567959 -0.6670284922212513 -1.570742971278469 1.2582006994338202
P 2.6623972293536093 7.804842753477471 0.8948020601478063 0.4621233973413073 -1.4816681306969837 0.7124987087389084
Ni 5.958712799470941 1.9891031053290993 8.950154780143645 1.3738373496642338 -0.7383434377161542 -1.7469679246149012
Ni 4.28273780825011 4.351640756936642 0.19992974526327342 0.18080048852225636 1.9967701371178512 -1.0981556982913603
Ni 0.139951288886276 3.7782531052956956 1.1871705212730437 0.9536267905066287 -1.3148279610095612 -0.6414241613895856
Ni 0.6528512339870279 4.744034359749528 12.2364712933869 0.5738979935131535 1.0363021553196732 -0.356808697862192
Ni 1.0406176683445878 8.982546828138863 2.186332423121474 0.13555755752405688 -0.8733317530003025 2.2410835585920887
Ni 3.151314762181666 2.9881397970456605 5.0777016075041015 -1.4301331960424852 0.6389597590094932 1.1072484046212479
Ni 2.795297505888535 0.8911466718204167 11.396125362158301 -0.16018461204411766 1.6827816197449792 0.3971703895086902
Ni 7.235818768372545 3.086719415793004 6.674176574624054 -2.308605612703463 -1.99011303681265 -1.1863180543609053
Ni 2.777945624181064 5.384979418361402 5.065529126997736 1.1935209998672478 1.2499693126629632 -1.4093707666841533
Ni 8.605524170618809 4.176131659407604 8.012859765093904 0.3685064459150944 1.7474070690348484 0.725036693304919
Ni 1.084170237347561 8.993479354578142 10.730475597005562 1.4200647560628898 -1.3167583452630547 0.019371462548076316
Ni -0.1211921948012365 1.6360011894197755 0.47985101111520884 0.09314746798896216 -0.5855512614813658 -0.6419517517582815
Ni 6.817215134224465 7.986715142036552 12.042546028029506 -1.9570442792831388 0.9640860381667397 1.2961018453549678
Ni 1.8865989899112452 5.755713537168948 10.145200458068848 -0.7949136208017149 -1.130542342152182 -1.6892641421455294
Ni 6.091192594219741 8.250254437501013 0.7531697785209951 1.503346644111682 0.48324321003905807 -0.2937071414160168
Ni 4.814236129953205 2.762798935840833 1.454423138110984 2.161250805434162 -1.7924209147413777 2.9128711627648802
Ni 6.867757044916823 3.784924749635563 2.9485070526933517 1.1592916463707326 0.14993953727734177 -0.8272717254174463
Ni 0.5079588169117855 5.507993700902519 4.819048310394426 -0.6063244894729751 0.927750436960499 0.5422209741248468
Ni 4.647874847282332 6.519738286599781 1.2475675906282289 -0.5223977687513325 -0.710364436004725 1.8056564395950452
Ni 4.07914987144754 6.754208274583391 12.800371007124903 0.27183836636738345 1.683384800546617 -1.0833086059761987
Ni 4.409246761635919 2.6471757886958445 10.812928337649016 0.7790491429656325 -1.1784036846098351 1.3948751441711398
Ni 6.3685891005469815 4.252388367331497 10.881786434945028 0.8683111598572594 0.47003185355510657 1.7609629533424127
Ni 5.967907334527565 7.515953078329451 2.971673730300962 1.1831273153377495 0.7872201088121991 0.26878466714272414
Ni 1.1654073184271254 9.068315768468898 13.741454095865656 0.04887204311035454 0.16727648589389257 -3.9149863877902003
P 4.510676312489228 6.834090469907659 4.203562022326532 -0.8997657788221151 -0.4506976720028689 1.4760975785877417
P 2.3603044261212287 0.2826002020315433 8.17043484724268 1.423999829451238 1.0762411576064561 -0.7868470417434964
P 1.0558017328435862 1.532226284603852 3.6945977867439215 0.16699392165646723 -1.1855431238680938 0.14498296460301482
P 1.2865808251489785 3.669740772356084 6.206609238087543 -0.13832509296686502 0.7803622053501013 -0.5486181359004422
P 1.8063243449199253 5.860525630390649 7.876948838970315 0.8657948211933089 1.194529129416788 -0.27345353337330325
P 5.955068623991182 5.910432146383972 12.435073250609983 1.0523831200419358 -0.9820673052355087 -0.26661491318491504
P 8.774791449633797 4.977541911644893 2.6644435740460897 -0.8195455604177821 2.0500333673173663 1.9544099269840856
P 5.552508705993737 8.300721595875839 7.840625753476804 1.8055607945574454 1.128260745206857 1.6594282897310195
