# total energy = -340887.88984808023 ev
CRYSTAL
PRIMVEC
9.09900892554043 0.00000000000000 0.00000000000000
0.00000000000000 9.09900892554043 0.00000000000000
0.00000000000000 0.00000000000000 13.31731930444926
PRIMCOORD
 96 1
Ni 6.479877420306254 2.4109553019315086 11.287254177176697 1.6800364528996745 0.417106723421301 0.49328671031798915
Ni 4.48216270875521 0.5559094110808687 5.7548929546571115 0.9210198031048848 0.17582334702263913 -0.5360313003743672
Ni 2.7036249247425808 1.9866958117150666 4.418021064978369 1.1261406135400607 -1.4607303521030521 0.19993360980728148
Ni 3.8482165573330733 4.543672009243407 5.156585801482338 -0.02540558455729818 -0.7361459158442032 -1.4804363151724116
Ni 3.8915824339790417 2.9262685746901678 2.165822541468149 1.2527432758636747 -0.4955562230784563 1.920125551879919
Ni 5.404702126979733 4.846032076584054 2.4233126659837305 -0.3077826456724764 -1.219728768610867 0.29294712332154066
Ni 5.9118444897031255 3.1575016890846266 0.10672773535596927 -0.9363530910278455 1.4384800253452839 0.5526110591099193
Ni 6.28498574764994 8.254811996775492 12.440320626701318 -1.1414062814498793 -0.6347125536973649 -0.24590390588980876
Ni 2.0262583026207883 6.5893748939859815 0.3888789038232019 0.9190369683469011 2.188474159926489 -2.47468370741388
Ni 0.5848597278505868 0.42857606006135346 -0.017845886249630214 0.24125895091862967 -0.45475127324695225 0.7300660281987105
Ni 8.15281210646888 -0.36065559786842544 7.110582504741128 0.6018032045638539 1.00707154058933 -1.0912589711715268
Ni 8.716595799893312 2.4459227933185117 1.2283471000555521 0.7896870822954529 1.638204861575869 0.32215408390280004
Ni 7.0125607011465645 0.5405166176436079 4.524066374663241 -0.22297943588315144 1.5677828602088806 0.16619893655899767
Ni 0.6518675594460347 7.612449262076494 2.3571119164819665 1.4998820826018493 -0.2773767796871094 -0.2917551598959685
Ni 7.789015530711621 4.053954248655354 3.83838416826391 0.2758508299608862 -0.4173265527415909 -0.6799896803676095
Ni 8.040439345961598 4.324786249991327 12.592790899840463 -0.1414297000341177 -0.988530287252033 -0.2931319856388371
Ni 8.382498389342187 7.310034600682158 9.027038516882431 0.969839395710749 0.2788222538843843 0.015258725931283398
Ni 7.223048075139679 1.0139389631067626 0.1426815593129309 -0.17826692346712525 -0.2604221541106418 0.25508942904381876
Ni 2.08409160349401 6.778561488031927 9.184821701346289 0.19152713091114112 0.4196909392087094 -0.18791704496237957
Ni 0.58010003626991 5.199610465292757 1.1458118096904137 -3.316547214602572 -1.9683795017903007 0.2898893103318233
Ni 6.656152520655046 1.8627491118259814 6.825285808880586 -1.0801494915219267 0.05352059762595944 0.7242609914811591
Ni 3.6605858938172298 4.476648709332747 0.33772882502225543 0.7467524877154558 0.41552189543268436 -0.38565544689055514
Ni 6.315167160330316 5.848651872559556 4.567947255215665 -0.9518905245418122 -0.24536963065289358 0.6638866041581599
Ni 5.8496527635438325 3.294814833118262 9.122710046465738 0.28088582128163236 -0.9092238389112213 -1.432084149121269
P 0.3524619403107892 5.902235936254082 12.094376306499951 2.031446348343798 0.6491657530082175 1.1852965550749264
P 4.269345988471418 6.457129897936358 12.721382643797481 -0.40472686169970945 0.6380465031666044 -1.3923649761547763
P 2.3709924546320766 8.795092950087348 0.97580501660587 0.34081695041962595 -0.49214591184532663 1.1063220361522366
P 6.556745847898604 7.956100632022975 5.593194466642949 -1.1420853097947752 -0.8759733043882075 1.1598169227465833
P 5.141085639739491 1.2104684573737094 12.81512336368203 -0.13045237508700758 0.3801203760049389 -0.8232991139229434
P 4.084062869264147 6.591667844240867 8.189831424373649 0.43922849502100486 -0.2140592505753862 -0.06243126985202797
P 4.659702571347768 1.217966040746827 3.427199044004789 0.21572918207864136 -0.032782850857975804 1.0637473960148196
P 0.4879034182038298 5.965383058352911 3.7279440372571737 -0.8723434209451041 -2.3036359274030134 -1.6121930108931397
Ni 0.6312546645753304 0.19581977156900615 4.435386523555547 0.8045603998628595 0.6399810011851559 0.14149192073062083
Ni 2.202387818826413 6.353319304849104 4.773432903990086 1.1096235897216438 1.2371531347349018 0.9624145640015876
Ni 6.376021332174259 6.0151546372982425 9.045150094193342 -1.4657877120213014 0.1429772470268957 -0.08835955968201556
Ni 8.672784071808895 2.7018415189887808 10.075005043751872 -0.021166606775286124 0.08517216309296945 -0.04490817336660008
Ni 2.5244563395483377 5.352546607690037 6.951400802601969 -0.5591617157442434 0.6289440266447038 1.1822955634650736
Ni 0.9803363230619532 0.069395411543392 8.979069451609691 -1.274561914400663 0.15890831643485534 0.4052503383033473
Ni 1.6829981900590691 1.4396815917817218 11.353068218798173 0.44128460621908516 0.13715575524911217 -0.8972160158170677
Ni 4.106846787669834 6.84387417426037 1.4532527636276014 0.4189059814135689 1.3647664977112173 1.453498096020671
Ni 5.9397693481644085 8.257123145048274 7.820569073941349 -0.8277311815523679 -0.288453092105929 -0.009204292207087373
Ni 5.43431030209639 2.6907407280722717 4.823226320556891 0.4942053654775166 0.7242869596230881 -0.17606014562379355
Ni 1.299556853983167 7.8347926447287985 7.052213272240872 -0.4595317253547312 -1.4958696190083463 -0.5849303400679152
Ni 5.194842584604028 5.073862161631977 6.9092514634523425 1.0944196282876957 -1.379711549056824 1.258962260190193
Ni 1.086949410905178 7.985890787318589 11.391368677162815 0.28703332894026695 -0.8105549268833977 -0.10975936551403032
Ni 5.156635846031552 0.8360342302553909 10.339180210141519 -1.7485062156362985 -1.74155935200482 0.27362194063036743
Ni 8.520066305626367 7.3575314273905 4.863019016388997 0.007522019408658012 0.4015983433730567 0.4490483093249041
Ni 7.297523463378716 6.170265442834084 6.656901369091463 0.8748024240085579 0.7964678526627121 1.7817878605075637
Ni 2.442528862980923 5.437003608744985 2.4615467015830506 1.273624233077742 0.6234709193452747 1.1001650154119054
Ni 2.992927914242909 5.5064472450358 11.320054284632297 -3.39632674592506 -1.7983460219765612 0.7657673382550618
Ni 1.2900301916146548 3.6781833771225805 3.565978948280835 -1.3369206791435426 0.02877630080174399 0.64203685527292
Ni 1.5887051603313795 1.3764616776113088 2.2907519343236133 -0.12812115585066966 -0.03938750065868701 0.036571114255814434
Ni 1.183198727556679 3.364240271391182 7.8308500441516475 0.05772100886055221 1.38189544408202 1.1830234427700335
Ni 3.7331140941414036 3.238164403408275 7.558617705338584 0.5807967775155158 -0.015514293585515215 -3.009540270753855
Ni 4.447886742048252 7.0697115763486895 6.082406322333496 -0.44248351162319277 1.1576147728889419 -1.3751018181989545
Ni 8.58011976468289 7.410806124780795 0.11754190749061748 -0.8920501553454121 -0.05041624766902284 0.30367016616599957
P 0.44794421050797706 5.727571360489079 7.931635216763706 1.0754191759257932 1.1701591852128557 -0.17715697823239812
P 8.925490847320534 1.7471644011600695 7.954488287637396 -1.4768755944043468 -1.1776297825582878 0.004826217744049753
P 2.2602848127622703 3.3840124178350957 10.185685388594836 0.24382542609422525 0.2602941131732098 0.31571989824168206
P 4.317079389412406 6.1423405843728 3.7090999897259525 -1.5925775506550572 0.5107355019220559 0.28685720837371886
P 6.9848360208821365 4.458004839998381 10.39539297752111 2.8059376967354193 -0.43486713272851557 0.06784781288190896
P 6.53358887012605 8.068537085592894 10.16574945998986 -0.011531397678367238 0.07082000813635544 -0.5690617484667747
P 2.533364269308389 8.734020402028653 5.568396937557079 0.14860282074378925 -0.6667040190022969 -0.7786272249368654
P 7.3352297564590545 4.315796429150744 1.491433115074128 0.36983236381536955 -0.1578870742591926 0.034134479789863795
Ni 3.061652728826836 1.8664706064856962 13.568217397674099 -0.32996458108615434 -1.147583613905185 -0.12143911584480375
Ni 1.6575209650047864 1.2279658515806327 6.746154457762878 -0.5107249603990945 0.14400106030571974 -1.23457508959508
Ni 7.127162718846097 0.9002968908512399 9.0316599035271 0.1762036131801933 0.5355003675715616 -0.7810733724845128
Ni 2.699630459814427 1.7069922766548347 8.737333351186605 -0.2303649297139452 -0.3578471664290353 3.3090007697138817
Ni 6.469750223347176 2.2963259872051327 2.240252434662446 0.049623576564398406 -0.4397033777748944 1.6728180807743642
Ni 4.228909992706693 7.034125352353225 10.430496954042331 1.967678619068534 2.6254683663003364 -0.7329862871692989
Ni 7.542077526872986 6.421689258084061 11.253174749063016 -0.3590890092559364 -0.13790471759999476 0.21023859127771535
Ni 8.064697303816855 4.238727823361539 8.082600513822857 -1.3795277151807919 -0.7621693364911584 0.5283159340079804
Ni 3.576902308522859 8.856210993190782 12.326804120769278 -0.231468190080453 -1.0067000161825244 -0.23962784307310991
Ni 0.6635570562414764 4.984600883852508 10.150634186325512 -0.1601910398020209 -0.29989347273238676 -0.14663721237698618
Ni 8.591620911993108 2.45756042576295 5.669608853688796 1.6294859936456323 -0.49707728770867293 -0.2518112725131792
Ni 4.039277547222298 2.8471253948608277 11.631093896608402 -0.7221480589032144 0.038347232319630734 -0.9068368267362833
Ni 1.6105154847796348 3.6281388279088107 12.490074007628753 -1.102186159606992 0.6376107011807663 -0.4114307560824463
Ni 3.55060617266326 8.840214935460272 7.860348121260032 -0.09391957026829631 -1.2553660581985027 0.3657006010351831
Ni 5.518785501169232 7.9616419284722815 3.394718311763263 0.209298081741317 0.3754854483360888 0.7803256956852109
Ni 2.9502626612859326 8.34465561112763 3.361810836002078 0.16339386301003475 0.5104498523608371 -0.22163911980517315
Ni 3.9924631461850533 4.6009684685886985 9.236599611764644 -1.041856252368683 1.9372439567277606 1.3197151138985335
Ni 5.284504218777207 4.863092718361476 11.486427843443922 0.026146576488380778 0.16223378126366256 0.4700241402456228
Ni 8.1841399942767 9.20009893736991 2.4767147494992967 -0.973036048271176 -0.15896076693934558 -1.5857314742675015
Ni 4.814467614543588 0.21755366434209888 1.551787751326829 -0.412603950454941 0.4577568928424955 -1.6532000494331205
Ni 6.039257912001382 5.88139010675431 0.41646709895341083 1.898135677872389 0.4054136033540889 -0.8738261761382177
Ni 8.190609389638698 0.3228091800502885 10.9683976066134 0.566191111787199 -0.3982903620457463 1.38371449956863
Ni 0.14335943547955377 4.918605771952968 5.820148317129183 1.0383166146465408 0.05899601891823388 -0.29135201092027885
Ni 7.57062111794273 6.308652269923578 2.636509724841547 0.5079749084577831 -0.11897754167818862 -1.1026332744467398
P 8.521367463905923 1.9036946520917926 3.514147353709687 0.7011588582460571 0.842843097493142 -0.05368154868385593
P 2.0156215611606254 3.5083503751089427 1.4241541330120313 -1.3430643301474354 -0.4404747087232801 -0.18194334387744793
P 4.85206471951655 1.5623635294270406 8.261679018828517 1.1729424043849477 -1.3637290575856384 -1.0306241310982895
P 8.825365352857203 2.1055288685753992 12.284228038099991 -0.39696830080021306 0.3572876943811395 -0.4793022231134391
P 6.580840023592796 7.899295519160872 1.3873586507273834 0.806498754536153 0.018534825579393885 -0.2687985510997951
P 2.0770034755235507 3.361346786545732 5.8962697160869055 -0.11442206109702228 0.6592578471368968 -0.7276859580023081
P 7.131712223320076 4.01306330244323 6.026619388572669 -1.61091851505609 0.4210266273009975 -0.48110148110570694
P 2.792403955047808 8.915190769191446 10.110282811344002 -0.027244951758882113 -0.5480373236963078 0.7572636716594249
