# total energy = -340865.086266488 ev
CRYSTAL
PRIMVEC
9.30812965616713 0.00000000000000 0.00000000000000
0.00000000000000 9.30812965616713 0.00000000000000
0.00000000000000 0.00000000000000 13.62338863196370
PRIMCOORD
 96 1
Ni 3.5628914316077265 7.94253401418222 6.825889816440584 -0.31700673537390567 -0.04243965722144949 2.738853244382096
Ni 2.580874437349926 3.469679820528233 8.366409487285893 -0.891840096217135 -0.2658803490117357 0.19524597452362505
Ni 2.163758528053516 6.587596110568637 4.981065045330123 0.49478283524754146 0.860500405563589 0.10049645215486565
Ni 2.655069539398522 6.100492373859933 0.671108706764789 2.6706030538554457 -0.32947144349981966 1.3271810832582756
Ni 9.562800155644911 -0.023278701632584834 0.537738100794007 0.4448548400688468 1.1462702944104 3.1794523944983824
Ni 9.361279147069814 0.14177026223582434 6.595136626459938 -1.0083756041127343 2.5449702116442685 0.15401499289829604
Ni 7.995534504843957 9.539343668734553 3.4237209300044666 -0.5672048977636941 0.31760734507238203 0.5187640286534873
Ni 9.335681790322399 4.300998194516711 10.2781932203957 0.2273407981756407 3.163262415002081 -0.6342119599118625
Ni 3.0818007467022337 3.861272838115039 10.669157008413006 -0.1863910952361564 1.0776694054125506 -0.251233031412206
Ni 7.478328276600294 2.7036300521807988 4.086430911317186 2.277831821855716 -0.0419478051866955 -0.7997863755129839
Ni 4.209629593123032 3.4893013579913417 6.599864225547942 1.2138190879946515 1.2665693831134897 2.088682447148132
Ni 1.5901636499277312 0.23633620619049894 2.663495258426798 -0.20896178144782077 -0.7882809459765456 -0.07288666085739705
Ni 7.02465003373885 5.31758558257811 9.898454106015377 0.30698200414805193 0.9418902187959908 -0.9886400733570198
Ni 4.985266735088588 4.404951387300392 9.052796558183484 -1.2430029086474592 -0.6057110242586923 1.4126743771360897
Ni 8.834243533835142 4.06326856130618 2.4732715269005503 -0.2691693041756526 -1.3012671916059912 0.2916967958542073
Ni 2.1767899096703816 2.4451060571616408 2.938824150853877 -0.9333893804138311 1.6613381051592226 -0.571033527481165
Ni 2.3889221861334984 8.175767820734933 9.32475963090152 -0.1575723712322512 0.8912531133654134 -1.153990031652161
Ni 2.9738636743956826 3.809603410004168 13.25529798556209 0.6706275224264192 1.0249350511333122 -1.1576307137285418
Ni 2.6877596909974018 -0.27582780818040964 5.034305685738798 -0.5529213912614864 0.9622685253420267 -1.5249421108942705
Ni 3.3076438982522376 1.1504569097855124 10.249951423993034 -0.11078780677854468 1.0227997499578643 0.9387701851097703
Ni 7.886312910635172 2.1396690883217677 6.471668008892029 0.3015500344992032 -0.03182228671691939 0.16586340759644982
Ni 8.894597446980683 7.984364749172358 8.473924901315842 -0.7271565678613993 -0.2955799329586974 0.7141871521849249
Ni 5.920556918120201 0.9577041594126199 10.490077900608094 -1.1295930908650353 0.5551214842365988 0.10241783754729457
Ni 4.80958509463379 5.924131239935112 7.264099809322808 -1.3655879651712484 -2.361073600695192 -0.8419095299352791
P 7.5680400309026865 7.648471579867926 10.586926197971668 -0.8284953134119023 -0.02287201950216706 -0.0908509586453016
P 9.234195251916196 1.7216595985716296 2.488352558683154 -0.753571053299186 0.6927963452139745 -0.1545585241065919
P 4.81189351080592 2.792206214656578 11.06705535307643 0.8633892970756099 0.23085472486617017 -0.04317345006368049
P 3.0677454708154714 5.513782340949746 8.478284829279655 1.088873758768802 0.7572289617667475 0.4390911981121922
P 7.068435475971519 2.036032371948782 9.031993819058103 0.9364664766772581 1.48753924476578 -1.0537653451014433
P 8.031277722993075 5.831617738585093 7.985117776867219 -0.1948042590005161 -0.2740592852781022 -0.2466978625460138
P 8.577292612739736 5.694834772256638 4.144575074465694 0.08370791984261713 -0.20119216480473093 -0.3129083969348159
P 8.577097142015482 1.7773687549837296 13.212834297750561 -1.0199201144172243 -0.36256616917125944 -0.5901797613923127
Ni 6.234734220773099 7.399897975526216 6.828123767574903 1.5536646756399435 2.186102060149887 -0.7132021625638362
Ni 3.761303524854229 6.714847552057328 2.9860563935242053 -0.989280020933864 1.184944056831514 0.25305697199482224
Ni 3.8674068956046925 1.5689131897625144 12.602179101119384 0.3102246794550657 -0.02733802569332066 0.08872697032376332
Ni 5.130278088095122 0.43300488673925946 5.0545499370805995 0.09830844336461134 -0.5972109572074812 0.8756357185431306
Ni 3.852569736820919 8.931885814664371 2.6256902895432987 0.7159576138217864 0.8384105156430852 0.90557852884915
Ni 8.161954556221055 2.6537291687179305 11.196368545299503 -0.41246382533265097 -1.1079981383030788 -0.5707903011221074
Ni 9.143776079754602 4.77605721135954 13.788232160604338 1.2727734550416725 -0.10765646023841459 -0.8350842794833295
Ni 5.035698181945858 0.14983947989558194 0.7211836522535396 0.05652158923581233 1.534282671568906 -0.7218580384666213
Ni 4.768322155556959 2.7598046150792146 0.861291482520241 1.402267579980469 0.15687765915807175 1.0446664681239684
Ni 6.593758092447469 8.980148467295404 12.268570146849793 -0.32246955826068985 -0.762576599231906 0.5034291980686297
Ni 4.523118094176182 9.246509907544134 8.583647272903903 -0.22884720751783816 0.3408922837422516 -0.32039364956826755
Ni 1.350097676155891 2.2354776675949077 0.13528063419062536 -0.2853852518138827 -0.8701713529944497 1.5615150249222978
Ni 7.367980398694623 4.704552158801855 12.060594881122457 -0.22222044622993986 0.7294327654900857 1.3629888369855043
Ni 7.155913279139591 5.482609414496258 5.689467704656435 -0.9610685914966545 -1.8746527642591004 0.9010220198267193
Ni 6.767261630546305 0.036963513956238814 8.151131993788248 0.7757375620938962 0.35925947339552966 0.05536433570291756
Ni 4.308165454405987 5.150914211698401 4.617034330675959 -0.2447037149341205 -0.27853737565411385 1.3783486072710263
Ni 8.052798118920355 7.604127649851678 1.7841739286266511 1.0901323137662515 0.9987499080975123 1.802997147595327
Ni 9.11218428746343 6.784742298172358 6.260124006227616 -0.21690211934082002 -1.2508738267551038 0.14199945649465867
Ni 1.0594699417106128 6.954569125029294 13.187685592855956 -2.5570963054838414 1.2617848172406527 -2.2789484519586622
Ni 0.16108370060499155 4.00266332865803 7.6987271030733675 -1.0596356878392912 1.6071806452802126 0.6287414237155946
Ni 7.089071599574798 1.6264653558604278 1.4558631617972888 2.1540195777930453 0.1087023850044257 -1.3594921366861554
Ni 2.9780057921239003 2.247326916736529 5.041403134655127 -0.3049498042093716 -0.296410913500425 0.6481943902338836
Ni 5.734924886987952 7.273037475486031 0.8974051642324656 -0.1645053509066586 -1.5762893550179948 -0.05372294344475263
Ni 2.3672342438711436 4.732597553667294 6.299973040399019 -0.5298405981826231 0.05290944640452178 0.7911670092750891
P 1.4742495104457132 5.120718638866179 11.935436838009219 -0.4227474666468461 -0.5242512770203036 -0.17437864415631257
P 4.948099373091343 4.857866363524276 0.06934463564820416 0.26052911200215134 0.6995002395967115 -0.2504717277661493
P 3.1324090480243028 1.45159352269182 1.3662081870862273 1.135996680398534 -1.5203578339576977 -1.2161431081421379
P 6.203635759357423 8.609666287927919 2.687050411512255 -0.9697224105169105 0.24549098672210629 -0.8144810014106811
P 1.4058068325679907 8.036220339877756 6.803315740228282 2.544250559869425 -1.6584720964653372 0.6532502074902362
P 7.310269994391361 0.06302162312510652 6.010965851339094 -1.197760234759576 -0.43659337139100296 -0.8305411401973373
P 4.480533400678211 7.398371442251099 5.1094381164508365 0.7148790360456269 -0.845794209701666 -1.738396380895806
P 3.9581425441769813 1.4663934489566888 6.8553435313336175 0.7872697311032119 -1.6414146267624181 -0.08339604502915315
Ni 3.6821378815317716 4.499010038184982 2.239044542906038 0.24764737094347672 -0.6625660855745233 0.14910367163960772
Ni 4.315909818338295 8.599380804580322 11.286922685342129 0.1692526357836569 -0.9047791728763064 -0.2239636541732917
Ni 5.533208407688601 1.6008214584643818 3.0367763924029907 -1.5392140474322524 -1.5650700892634077 -0.06358363828891629
Ni 1.0844064212474573 6.186518108790698 8.758204491287762 -0.13529324811907667 -1.0614897103288945 -1.2104172614019542
Ni 0.5386959073428466 1.4323722348069434 4.5912452264561825 0.21502290004023616 0.6070284575185352 0.8813098861097726
Ni 1.2614935892909322 2.8563299203412824 11.537702316428977 -0.05473595809029928 -1.0754813966222962 0.7642778981937289
Ni 6.476764209917197 2.423660126272171 12.68762587038117 -1.3617336244221645 -0.3633385285609097 0.4074974824663111
Ni 6.507620659959988 3.806261791432415 7.435549974004015 0.9147241999041602 0.20438933158578992 0.18781677193908944
Ni 0.36817748644724446 2.203243614352618 9.374553470872536 0.4068122834738284 -0.7810407194743646 -0.8962251126587081
Ni 8.881798768606975 8.786902386047016 12.290844501284907 -0.33776505096717957 -0.1324400949409977 -2.800592887483738
Ni 4.915250983287116 5.364275161285394 11.487214089980379 0.35010660325166804 -0.4460480890459996 0.24656622206415602
Ni 0.32255741184551645 3.9495232160503972 5.240222923983643 -0.6822563649145992 -0.08627028125315464 -0.9040623493149398
Ni 7.341861786682534 7.409801825555035 4.358762585972385 -0.8400202833323662 1.3405168811352333 -0.006088886506557255
Ni 8.223127584782512 0.49616520099728834 10.1499420857744 0.6347022692847198 -1.4032132317231898 -0.031690132014429294
Ni 2.19818929991122 9.287298132004922 12.396030090444354 -0.7211833809970999 -0.9081285489645133 0.8832266435165113
Ni 5.501877243029766 3.084621110009312 4.898616424653188 -0.26524245831742066 -0.48907421489853836 1.3236242191449528
Ni 0.44192486745600384 8.219534646708148 4.475419514206564 0.0800852354883653 -0.2606882632878349 -0.9165499402589892
Ni 1.0780489686443724 5.684837840930557 2.958550870182893 0.35399719655532585 2.5177373440702446 -0.9124677997698156
Ni 6.995571436473788 4.13278167410243 0.8873486608761361 -1.4935021472174341 0.37719214661455036 0.41004004638250674
Ni 2.350870551812251 1.2038576500254818 8.218922171772155 -1.2645631513167384 -1.7627267301110545 -1.217987360439728
Ni 5.899306457954983 5.820057041464988 3.014243271961485 1.3838301992108877 -0.05586184416462638 -0.600455689397024
Ni 5.168320414286643 6.958236528141469 9.500147134456967 0.07096270436180681 0.4755867219350648 0.16416030886241406
Ni 2.6101019646906103 6.764897365595817 11.038064252230793 2.057035252556496 -1.2467194382670979 1.066583322801718
Ni 9.70083971948642 7.106636040368387 10.773212590623675 -1.2913149654892857 0.2349080689999374 0.02631241264228372
P 0.9330376156378389 2.275195457137168 6.885314778239435 0.08317698703981158 -1.0523142144772135 -0.8875522674750586
P 7.689967222187915 6.423465859104216 13.84054571129227 -0.3393802179730994 -1.8658588201165545 -2.1776310465643984
P 5.78936813775727 3.6864103130761583 2.8933213586867 0.36640508330137544 0.6694964941457695 -1.00985090310668
P 2.2143109805972276 4.3653732197040265 4.093078777567732 1.852332503495345 -0.5881426763576258 1.6078159648713666
P 1.3548075897974152 7.70348262655055 1.5310505104747116 0.13560358027064387 -0.3506128534641252 1.7939864594562847
P 1.6749793279940726 4.213231839327122 1.3333812059803702 -1.2006799795095322 -0.5098273882854898 0.06460539468521131
P 3.9258061015077024 7.841522190392061 13.274153463948721 -0.08274298482618654 0.04795107395798193 -0.379730596765688
P 1.1803266980773133 0.24616093711664283 10.584542385948753 -0.6100808711916138 0.4882542901004043 -1.2524524840961333
