# total energy = -340897.4022622888 ev
CRYSTAL
PRIMVEC
9.01651470587752 0.00000000000000 0.00000000000000

0.00000000000000 9.01651470587752 0.00000000000000

0.00000000000000 0.00000000000000 13.19658067533317

PRIMCOORD
 96 1
Ni 6.253484748613375 2.1435861464350454 11.267609912779282 0.13106198364654847 -1.2586578415758969 0.20484441684533755
Ni 4.622307118632875 0.5756422339760547 6.218083207910304 -0.4115837367205428 -1.2740788041166573 -0.9707824763503088
Ni 2.6650111773441845 1.4912323091307553 4.772570036973011 0.7647406967627604 -0.31837327670412907 0.31076795355304543
Ni 3.586949780326364 4.4555917663674425 4.887274527258567 -0.6501162898469448 0.026482105450928585 0.3753928886222825
Ni 5.155309354101711 4.575105665463078 2.696522993711543 -0.05440531422375792 -0.12707086020928438 -0.5510892231487541
Ni 7.279023102678833 5.981131912997925 2.59803740962691 -0.47335346172917186 -0.15188072016411264 -0.5788921042936352
Ni 5.240136722090527 4.465491899238586 11.681810553794394 -0.758487773874513 -0.3258546726828388 -1.759678944423666
Ni 5.522786417213123 7.822962370181092 12.283311249574778 -0.2040250062678357 0.45256275023606574 0.716300598983502
Ni 1.9017542122483948 6.366696104105251 0.5724927654770653 -0.37488612418919304 0.7341877636765678 -1.0360113635521317
Ni 2.7944612753687825 1.518029390089807 0.4124433223479134 -0.17844715779873138 0.14921731439933655 0.5404960210139401
Ni 0.6479609914620125 8.871393654446763 4.654724193051474 -0.23219478383383235 0.1673749591449698 0.040447309381769055
Ni 8.517811040109882 2.3761491037623745 1.345299121031715 0.7971936750851432 -0.7672539501029173 0.3063564547489111
Ni 6.824662906282961 0.670812445695734 4.843435332328888 -0.6776358354234523 0.03846627439599827 -0.6263271578471472
Ni 0.5477559580708882 7.251639948280233 2.4669030267021936 0.637741827441992 0.4139625213653645 0.44702690801950107
Ni 7.573367217049037 3.6821641729668713 3.649158320154386 0.6535525692220036 -0.02416091351691968 0.7324517548220676
Ni 7.537409357404118 3.737453439602438 12.431891686317687 1.09491148032245 0.5496131528238599 0.5703593842322758
Ni 7.703006661877181 8.770381643011952 6.943076790615136 0.9168217058631372 0.2295432051435982 -0.014825495048606727
Ni 7.027750877858223 0.6544546851722105 0.36119345418800425 -1.4914699472787538 -0.27237906936220185 -1.0426527801280494
Ni 1.7939076828570024 6.439486425297184 9.335775706658916 -0.4595710632330988 0.17257887194341245 -0.9717502395802168
Ni 0.1574472770575562 4.758231074035871 1.4024800523998557 -0.719447886363232 0.011502601322960835 0.07305481100414515
Ni 6.423662442429372 1.988709477648494 7.064525633712728 0.48590095937687927 0.07840553379309723 -0.20477705394251186
Ni 3.2857891810284885 4.418308479097698 0.4695954008697994 1.4147651982268474 -1.015207282322587 -0.07253827637904281
Ni 5.90517679523243 5.603907997761099 4.778798645158244 0.2001081877119328 0.032220293486286446 0.18980346335181505
Ni 5.286391441242591 3.142372502113725 9.235837562095648 -0.05644317058939311 -1.1336402643512153 -0.6066345645142261
P 0.11831289937028426 5.5053304452290295 12.499127834605591 1.0744917790155173 -0.8010210192510334 -0.12696878741378131
P 3.960810535671627 6.121266580651217 12.559251756291708 -0.22078757043815522 0.6232107237053525 -0.6935098263412314
P 2.2896446640850048 8.41585229465734 1.4493145334313502 0.4209518081990041 0.31204887714799806 -0.17914778341018178
P 6.20501196690548 7.682818686013347 5.64345172520461 -0.4437693203141518 0.258077050917233 0.7968337206425632
P 4.787507696469936 1.0508927927117753 12.542861536316149 -0.11876516855706643 -0.5382205947162021 0.4035230711995954
P 4.125794717161777 6.207419376264857 8.200302598454382 -1.1524370853427444 -0.35298932411610173 -0.19574656830912737
P 4.665532288928196 0.9880927695355318 3.7960625868601863 -0.19873110485874806 -0.12235545701148606 0.6477467611735038
P 0.10473402860166654 5.433495874569283 3.623477483684813 0.5946907618887888 0.05694942080185031 0.2407809828409466
Ni 1.4189018301760066 1.1483613139659303 2.678048155594081 0.3068336514956458 -0.0713663675581287 -1.2532284430302094
Ni 1.7618088913986498 6.437782304065265 4.7529861675776335 0.6971523081898252 0.5895405851464169 -0.15909009342835828
Ni 6.0841726401850185 5.643066720037399 9.18720879468769 -0.916131621774648 1.0802083697843203 -0.2004393457991064
Ni 8.628858432132654 2.3115818437530304 10.213572159825743 -0.2475712662899027 -0.5285817860748575 -0.5135524025455608
Ni 2.260431157252122 5.34996688466193 7.0072518322457045 0.2767075215342267 -0.553404501545492 0.3086442223418233
Ni 0.5633833809235894 -0.1253647153252218 8.976076288916039 0.38096986848942777 0.67528764690625 0.09308524729245904
Ni 1.5714251886899093 1.2105662471881704 11.428304938343382 -0.26586697927529696 -0.7224509348556138 -0.7434103107161003
Ni 4.132268574540175 6.843164793943787 1.5242706213952764 -0.1643264021266331 0.24813253811001137 -0.12598225513079594
Ni 5.553298302127466 7.872408935450083 7.920059411039718 0.31390572785107873 0.22052403236412343 0.44002450855973896
Ni 5.2335997491109465 2.8766918871946747 4.845678641125191 0.5452409918980933 -0.5749616588909775 0.32235900082475455
Ni 0.7718028174958533 7.368953817848949 6.8772526284908215 -0.465097906588599 0.12759973612956088 0.24406582423980547
Ni 5.186921253779516 4.585772202062862 7.000139605643922 -0.3664374792012076 0.15080651326332736 0.31858847803872875
Ni 7.99267120524545 7.19904661946659 8.971048680456157 0.1428512629719927 -0.10450505909362647 0.09749083255932242
Ni 4.439154660516718 0.4142844945995414 10.455967626165805 0.3252710322652269 -0.5131682797332646 -0.3772965334028986
Ni 8.106793228697239 7.205547526388352 4.690487295984174 -0.17678519671527618 -0.501432222243259 -0.36139965966698406
Ni 7.36760134068076 6.2093579268725945 6.8312494700920405 -0.3193091582548372 -0.9777023433985936 0.2961748862302189
Ni 2.3212475472483547 5.09901023784723 2.7034116107548525 -0.4580754525241788 -0.038764522362707436 -0.4253080282851708
Ni 2.3103375647582967 5.116502275889142 11.379345264854939 0.07558194830137306 0.24641169876416272 0.3125540989191907
Ni 1.1624180600006415 3.2582076633118873 3.894852027481939 -0.47081064070266015 0.5737622392662377 -0.216304337855821
Ni 3.664419672520231 2.71878566955138 2.713374859227178 -0.7803004988742303 -0.11577163314638127 -0.14022436687210688
Ni 1.1467383413641035 3.3491482281009164 8.171336144117555 -0.5852283309243081 0.6756630279677976 -0.6477177077077813
Ni 3.756640582361813 2.649385557794374 7.11015911501887 0.0019779496619772388 0.5525436962070936 -0.06507384968119762
Ni 4.019805589748032 6.87756279658806 6.124282604736279 0.21515556896335852 0.5165680494434329 -1.2493602183240546
Ni 0.8712955462450648 7.27199022140425 11.49232128931955 0.14793047726711298 0.21333779902832933 0.34296536422119644
P 0.1253998797315947 5.550773678080181 8.100549292437433 0.8992672419191416 -0.18154687976997766 -0.45321581043903236
P 8.591394814573817 1.7211173616650697 8.009030769071865 -1.1197300820280265 -0.7970566352866466 0.02430463818363556
P 1.8291893039178266 3.22509902223462 10.265514496295765 -0.08305665941186342 0.22197207766455965 0.9840228862999828
P 3.839340052939344 6.205183280680117 3.705428583562613 0.8681746342793951 0.3973673360108447 0.2611968274931372
P 6.92869545006006 4.030724588752544 10.233657347424796 0.3718699630706886 -0.34444503409051647 1.9067290759683546
P 6.1807845925659874 7.6730718338879305 10.204757615294932 0.16551090935303753 0.6260895879150443 -0.45973227140131145
P 2.3748326926520034 8.481375305198869 5.808422381923079 1.1133635163800502 -0.1436238794719591 0.6714443619007598
P 6.90873288705759 3.7822655164417673 1.4671167395704996 -0.5157149574145182 1.4969021740379187 0.04473616656511005
Ni 5.181763807511489 2.8151451595276202 0.5233103840815945 -0.07232487481665609 0.23601878556561287 -0.2984665104778731
Ni 1.3797881904719802 1.1210412751685122 6.9795125255261485 0.9809450187056075 -0.13370507769635037 -0.25498632780705116
Ni 6.978033817155595 0.572641537965566 9.208678918906967 -1.4217128331892739 0.8226920764665638 -0.8883421103662056
Ni 2.7450237266142468 1.686286566326975 9.12839136594604 0.4186288164927822 -0.9990252732460859 0.0342298677171475
Ni 6.153807181317844 1.9801077228588118 2.648910387482617 1.343229909191022 -0.020835705798428632 -0.25793281202988483
Ni 3.9534801094200422 6.909887000907777 10.346488206006686 0.6371576728037479 -0.08991327732238064 0.29959008255935504
Ni 8.227587472845428 7.162962528619306 0.4300922477413346 -0.49394619827885905 -0.26860546125238255 -0.11167278048665928
Ni 7.509936037860972 3.8798873184416505 8.13319718962607 1.5020402665954324 0.13751956634643414 -0.3032011969493811
Ni 3.009009236815834 8.372618107847563 12.361514184393803 0.41278084235243745 -0.49137149557314724 0.6807126745765631
Ni 0.07738694026088462 4.616130806231478 10.257029054542546 -0.08933812154520097 1.363604616192632 -0.05881115660093742
Ni 8.664699077089663 2.320616391236533 5.771339261274227 -0.3755942059998112 0.4184835491641696 0.2240274175316916
Ni 3.561252714130773 2.699778857081097 11.535460802727552 0.5090951381051555 0.47931893528398745 -0.25517427544814114
Ni 1.1307881272939275 3.2675577888013008 12.549947615026015 -0.911258867063379 0.6755918084102299 0.16421661602164622
Ni 3.0976596069333966 8.35039239971699 8.053794156733138 -0.1641608230830463 -0.003803947127122481 0.20318605530630815
Ni 5.575911720379587 7.706108342849562 3.4520537075711917 0.07442160944468473 0.5702112886901857 0.3539432033889388
Ni 3.149892275168856 8.331836412969437 3.4954970775163137 -0.5773630692436186 -0.07355180524522172 0.6766924976735765
Ni 3.4202524610898406 4.4177494552015135 9.181494127826369 -0.5831007430583441 0.21873660144639748 0.02585424205894257
Ni 7.505779424697404 6.363540324046142 11.345271856731031 -0.6929529253964969 -1.3738928854925176 -0.061398200601823286
Ni 0.5552477799312099 0.06217247377020364 0.32618142690937246 0.16554973301077297 0.13694672456209964 0.06384691925263199
Ni 4.645227098376451 0.38082420945854506 1.6478176074064521 -0.18759719972911562 -0.7839463231569337 -0.8708344404997455
Ni 5.996423921512916 5.6172975217261705 0.2509286956198901 0.7549591918959643 0.3835355723340749 1.7792470963635811
Ni 8.112924458526361 8.687005933850326 10.956117289567887 0.2025509928254705 1.0202096206331848 1.7780325072301895
Ni 0.15708481317648154 4.813213779179982 5.750264962039506 -0.4592406764768736 -0.4398375893599135 0.47695146349307543
Ni 7.761262361768309 8.901662093470833 2.43838469313376 0.4793798704289099 -0.09464230736693377 0.829176912859959
P 8.552921347396067 1.4846592700933565 3.740385610103072 -0.44542125409527805 0.8918784056542381 -0.920368542674131
P 1.7937634186257292 3.282209624790015 1.4868322500769136 -0.2134918081076904 -1.7069523034539118 1.0566928031608833
P 4.862552146275518 1.1411751519456195 8.369086339135698 -0.1806696193713469 -0.47551421682591655 0.020128652429075012
P 8.532057132948138 1.542491193805119 12.252760593648278 -0.35718896401974615 0.06928351688717099 0.5330966432260755
P 6.267992320370816 7.602256129361554 1.3173686642057207 0.31169509335300516 0.3945501782770237 -0.15782973865869593
P 2.0669367570565464 3.2557191053224197 5.974342477613616 -1.4829678233450136 0.30798807681506307 0.1460348029062969
P 6.941327586810945 3.8854144418023164 5.928273498659317 0.23152526857063352 0.5385203853448081 -0.749198121042471
P 2.269105044157441 8.489066392028636 10.241285318653382 0.46067458070992273 0.02331322080464372 -0.3993481138862993
