# total energy = -340873.6735954157 ev
CRYSTAL
PRIMVEC
9.23123869869518 0.00000000000000 0.00000000000000
0.00000000000000 9.23123869869518 0.00000000000000
0.00000000000000 0.00000000000000 13.51085094344824
PRIMCOORD
 96 1
Ni 6.375001127222024 0.7324461720248518 7.4647857795817005 -3.997193297607258 -3.481469084221359 0.3069565502267552
Ni 0.681092791190006 2.9405741598807786 12.440305273866647 0.25403116298263345 -0.17076444444249297 1.1589664018208299
Ni 8.379186128061953 4.571623261614955 3.5921971446754655 -0.029153738745820758 0.49047546612143916 0.30028556596448286
Ni 5.071974861113483 5.001374347609096 8.441187742726207 -0.6132507842791632 0.20713089888666908 -0.6663155253146267
Ni 6.629090972176028 4.588045635245225 1.7959568728238346 1.0222058251276074 1.6191982385663792 0.2771132416130776
Ni 2.322330411066807 5.143267717519651 6.517188973646803 -0.21061345811863086 0.14380385669324913 -1.3297066778936066
Ni 8.72263436353929 3.295284506560438 1.3817004209715749 0.5859464400372554 -1.9799348107280677 0.8695193212327478
Ni 7.206108008998553 4.597969216837433 12.100696310560657 1.4550602983014682 0.16477917339333556 -0.036701726296407756
Ni 3.95481958603669 4.016327329431006 4.185107605151297 -0.8951799592236455 -1.4744399883796606 -0.009390182965648345
Ni 0.46438115481740944 5.200464472445537 11.686115842230365 -0.5850370408491086 0.7268945724492643 -2.24935582590321
Ni 6.54870534565979 8.833169215618465 0.7211609827258048 0.9064743011905422 -0.30665367427435575 -0.09824982221253402
Ni 0.6327220235760374 6.156488476180925 5.224537696702432 0.8578035754577161 -0.004460863984831026 -0.2838608447495563
Ni 2.7714855607882263 0.6659314047648487 7.988466565498674 0.13433422663991704 -2.0836741953002633 -0.18249715949838893
Ni 0.92623479648138 0.9572609897199054 10.631188347165741 -2.609409513065261 -1.6757918186907075 0.9094904623090465
Ni 1.5456601438477262 3.2799237253795677 3.1458796777274833 0.05323032007905026 -1.0171101557722546 1.0542893359257133
Ni 7.041671954205976 5.455791303384059 7.314287972087799 0.922150060054586 0.34909256016485685 -1.379777883518385
Ni 5.436110302496068 4.30413888932114 -0.04970006598539025 -1.7886935864884617 -0.2014521033343369 -0.389244192683078
Ni 1.4363807402304505 5.402462437469461 0.11083394421274347 -0.08659526869274119 0.35022101734234523 -0.28832839360260665
Ni 2.410073334819316 1.0363819365355555 4.630195471105715 0.41053781195453165 2.9163611781960097 -1.1621885083025534
Ni 8.709812172998289 6.412129169234921 9.323636004727284 -1.5254581312987405 0.5711232589814937 -0.21235846583419557
Ni 3.829099346311764 7.224450480276431 7.024548006435234 0.2744441794213467 -0.33064823741674026 -0.07004456342291163
Ni 8.126536356343653 7.695382122068568 7.1200294775819275 0.7608683582915476 0.8560853072150288 -0.12061482017129549
Ni 8.857668923102858 2.2633520270736684 4.421723638388193 0.3023267647642277 -1.0441725592066855 0.4446247263359117
Ni 7.365494576227467 6.939639072960685 2.336945308161491 0.1883731586631917 0.07956612976010168 0.6583001112093179
P 1.25242061560762 5.3272093796651 3.157283026881768 -1.2771551290491359 1.4435834080101204 0.6408698315480124
P 0.6782643396552592 0.10663834622794437 8.58440302601723 0.5553325718061404 -0.11043890807955818 -0.8861327614197126
P 7.34525046977936 1.516535585779429 1.3529229574780377 -0.2367140118604246 0.20284692679933453 0.09432297635430206
P 3.6038294285492722 8.582153373148373 1.1580053525296703 0.12485816882868173 0.18862692654521063 0.6050862461904999
P 4.4323054072990296 2.381733432039705 11.86308145729746 -0.12210914532863486 0.5050860169457624 -1.533729370168597
P 1.4900419307379031 2.727840264259887 5.857777592769002 0.5433448033166449 -0.6191496662621014 -1.0496387245275793
P 5.796987116620933 7.74319993848498 3.8979754644287783 0.31627628496578436 0.2650609384342339 0.2231912947836414
P 4.508749294894456 1.8309515755753745 4.318351304408922 -0.9192920217805005 -0.31887824136500564 -0.32476169672897615
Ni 5.705237835276779 5.578280609567336 4.19456500918964 1.6880428681439188 -0.5812963428597537 1.4275312396432642
Ni 8.984026118297423 3.7855278996929482 6.593524855749551 0.1114454949672016 0.30677734433641357 -0.6826001214072631
Ni 6.453725130773986 2.158780555188511 12.92472283226163 0.7295649201925758 1.280944420888239 0.6334087472842769
Ni 2.6274043873080406 2.026136886445764 9.983113850523655 1.7259843803846986 2.0261089952912847 0.9972463269687923
Ni 2.138314899011834 7.9649527543064185 13.147922183185859 0.6622711800419239 -0.0004671694444056471 0.2817018894250245
Ni 3.3932002553497984 8.407821430479657 3.5087135144547195 1.4460714645392967 1.2458668604588157 -2.033409128497124
Ni 1.5226282033151108 7.387455693071992 7.446194987983049 -0.49887911680410213 -0.19627415867782325 1.3976696761971412
Ni 3.036108249088008 6.233375463233491 4.005170454349756 0.0989584182437844 -1.5113260627727327 0.663621009201599
Ni 8.109080083980057 4.0213675857559785 8.920687820270796 0.0825151850860966 -1.252777728646036 0.6741031396798455
Ni 8.82247020997626 7.470444528898932 0.43601817394107234 -0.26415745278335795 -0.8947202459784075 -0.3484371859690451
Ni 2.831700930765882 5.657447712576438 1.6986513089119122 1.3018549457886612 -1.1877193055838062 2.2875822163742603
Ni 7.841900342563027 6.97258536384682 11.42089773903505 -0.554752016712322 1.0271153466140828 1.1804412838651541
Ni 4.613533085269494 1.8323362613789387 8.775757372831091 0.9039960148533785 0.17975456375624527 0.07563671279870846
Ni 3.1732106061182312 3.5790712463815466 13.052765651641067 -1.1342642710884596 0.6404929078245679 1.1007409425200334
Ni 4.7967547107970905 0.6204980173021739 13.0499556625837 -1.8292131438690626 -1.3348357715900558 0.5818671277615592
Ni 7.806987797835831 0.48581793730431916 11.969776114081414 1.288110085398743 -2.481340550608765 0.7890363360853315
Ni 4.9748529988515 6.478778712579805 2.2574061862331645 -0.584222001146981 1.0359797389832481 -1.7696728224115845
Ni 5.916863982254819 7.411013814209962 6.113998007612758 0.5720475705679761 -0.04752684193636976 -0.6992698687534602
Ni 1.4610835349660334 5.309660794914599 9.144090258446214 1.505617956644362 -1.6349470167602036 -0.28630005031866823
Ni 5.773465920437725 0.4518959044886069 2.8173500470977437 -0.6783734849204252 -1.3951042294628102 0.8171685755451732
Ni 8.064253188899343 8.739435217955869 9.48513098687309 -0.19727868868293766 1.1120239716330205 0.22488230933281916
Ni 1.2581162898796137 7.391185113502925 2.056702440873637 -0.11746470457808801 -0.2821502898163528 0.14971430864041313
Ni 0.162506725906278 0.6515066711871873 0.24190922550198635 0.2224996680332555 1.1860072079887058 0.8861541015759513
Ni 1.7026465890171287 0.5798122558979856 2.1245538914960145 -0.40625204009498417 -0.5310906685396402 -0.13527036530094125
P 8.624367827679695 5.0820092175699765 0.39579674384301256 -2.2202956753124603 1.8834649632340916 -1.4724155017504643
P 7.181322133114756 1.8459892634020802 9.177232251592585 -0.9128730056280343 0.7056742296179073 0.7534774651441153
P 0.41121568182763285 8.438044505952115 12.132311456827633 -1.6394513323884603 0.3407166773963358 -1.7223730088843563
P 4.591027325342233 5.150449621220803 6.102837440036032 0.702106823981623 0.5907032379959504 0.26079393562776376
P 8.245185467231712 0.25998214461010444 5.535314732206611 -0.1704939643899257 -1.7356856668328622 -1.3397468357384281
P 1.6982340569231045 2.611425113134911 1.159640204901745 -0.3845503867518345 -0.7980246556268707 -2.549664017575512
P 6.757229796437847 5.5580826593126815 9.922585541554394 0.3002228310473475 -0.8924350494886565 0.3961347491553242
P 2.4145135606294112 7.713918449358946 5.365104537613173 0.4950214336209087 0.22453983839173586 1.627547381862023
Ni 3.199104230644879 8.808475652121572 10.835472890013284 0.9146586367735472 0.47621689931989597 -0.22053483099740084
Ni 7.968063681745093 7.117765054731166 4.727000701880616 -1.582471829679623 1.5308060258742153 -0.8227527545011701
Ni 3.5906564509380328 4.393580360992688 10.288188749888755 -1.5635171429539911 -0.2367538639594245 0.010223220389904975
Ni 8.310459556011724 1.4246478358549177 7.382261275060889 4.723763396837567 1.4781133234661898 0.07821244394568466
Ni 0.9220068891611644 8.57087279946867 4.114607712148637 -1.792587265115913 -0.6635346201353798 -1.711511897800136
Ni 7.976999520797426 2.5467418236310886 11.147978936524183 0.2952755143444012 0.5957325728897417 -1.884173302155026
Ni 5.9687620061724 0.7135627501597143 10.717766288595518 -1.9705646823670773 0.310343207310801 -1.1652728036548317
Ni 1.3487855162969882 7.395957663905876 10.293997968396644 -0.37563482942975956 0.9429397431064277 0.8845962701705282
Ni 3.582403723548791 1.8905207588447004 2.1652895015891307 1.187773298750193 0.6929259288133035 0.42956371823773115
Ni 3.870935320056779 6.330451169302023 13.380552167556228 0.8078429272688732 0.08101134684706048 -0.5519073481746752
Ni 6.278867007499916 3.1367287508136634 7.321732966091628 0.09930166051581607 -0.009757593607396099 -0.18554417385482883
Ni 6.468439725246527 6.559136645379972 0.11222786125499795 0.02921313122884646 -0.5737874360772184 -0.6046453019983393
Ni 5.729026737382009 3.4542187430935214 10.197868464293881 1.1703874991735779 -0.6879395313423056 1.0168466176982232
Ni 1.1259249518326981 0.045954952448684 6.1774849285823015 -1.0789454439114967 1.7247075705548038 3.332221430804719
Ni 6.211469733821109 7.264707912205384 8.733170899380545 -0.6007660215485912 0.8331901477844103 -0.42534762327385456
Ni 2.4723749647410083 1.2874993226312432 12.517019636755704 0.32446396298289926 -0.2791804085547515 0.555675556967856
Ni 6.244563724526289 2.6484331490448336 2.8917953715166926 0.16214045021890786 1.2363607207405933 0.9913471878755379
Ni 6.33881467155555 1.5383120778501465 5.258693279857013 1.457798780278554 -0.2754355968003386 -0.3640340119660376
Ni 8.41804964294865 0.12616980104914993 2.621172378068133 -0.10223580344347555 -0.6052520823444028 -0.12011782593021894
Ni 3.698588093706506 6.8553855574331575 9.380583516208526 0.09696041397714913 0.14874140320418255 -0.23813814590146085
Ni 3.8581131295157762 2.4007036275485327 6.542494568268871 -0.5634310325435586 0.75749378539236 -0.529590686955346
Ni 4.23991716175184 0.098546242391916 5.809652376104199 0.4586020144516102 -0.5393014864852067 0.11425442517090648
Ni 1.3611923010969222 2.54266161612992 8.061465354814834 -0.5325510551352506 0.5434913561968382 0.23405034898533236
Ni 5.167121238295715 5.755797329584248 11.409089138502257 0.6706591469953029 1.0349808654050885 0.11047001842780975
P 3.038822233262994 6.458451524983484 11.378001095964505 -0.3861807232664059 -0.17201065814476826 0.30853057958209446
P 4.402128488020024 4.022992283765494 1.960032909307485 0.8489975471303121 0.7097532847832874 -0.40102910113314805
P 3.1591237358766393 4.045405731305851 7.992600314184248 0.9308797266181 -1.7508340924385266 2.98061664574097
P 7.2792101881880455 3.53396741414012 5.306048611215035 -0.9358944062238721 0.7496668331487734 -0.4803332354811147
P 0.1001284767034552 5.729479068077841 7.427738972469278 -0.42944441905104747 0.07370915675869241 -1.116456553483077
P 5.951610364685586 8.220658066031248 12.143985281275548 0.7193370718169806 -0.8290445010471529 -0.0035108413667358893
P 4.681871945294725 8.831858379724425 8.751248434108009 -0.6296757626044059 0.1428890581884636 0.1822441629473184
P 0.6319262908009224 3.472284277210687 10.269300712404275 0.6302923131424822 -0.7295875459003951 0.15862858041090744
