# total energy = -340890.86430866795 ev
CRYSTAL
PRIMVEC
9.08195000949310 0.00000000000000 0.00000000000000
0.00000000000000 9.08195000949310 0.00000000000000
0.00000000000000 0.00000000000000 13.29235185646826
PRIMCOORD
 96 1
Ni 6.452689049359302 1.986622040677289 11.592113617511341 -0.585819684651404 0.7481442258566599 -0.4686956512421863
Ni 4.697039157579833 0.6059958291464191 5.971070523576977 -0.6134258764044467 -1.0495970726563666 0.23414265158882258
Ni 2.865990918043613 1.7831681998622144 4.8182114408375245 -0.02714107919116616 -0.8528894259855504 0.1592528442584677
Ni 3.4159483919547293 4.615256199069891 5.473431438237568 1.3547325105139831 -1.2158538590364933 -1.48359234430289
Ni 5.060271742322217 4.381777432010077 2.5021126066660195 0.6329804014976066 0.15470919075184322 -0.002982222556775509
Ni 7.3499312040546165 6.077195832302823 2.7134604783013985 0.35854444960637605 -1.147035968931831 -0.5627571464049858
Ni 4.798511783391226 4.6730628099433815 11.15524730787045 -0.3932656551376453 -0.4807798361002301 0.6929549822790259
Ni 5.535829882961435 7.951519562932866 12.62153991967238 -0.40558740992779174 -1.0802806177831525 -0.11449790864028023
Ni 2.0041592858613755 6.230154031883551 0.44242900393154677 -0.5265572994456609 0.8057605908185478 -0.5020814257914837
Ni 2.5655963443984295 1.5675899559809798 0.32427101983315015 0.9718389426392812 -1.6947004826697523 -0.5591303482856758
Ni 0.6532528470598714 9.048464713150128 4.613695920083548 0.30288263726769776 -0.8426790611114519 0.5532479213629697
Ni 8.82249671862643 2.099401694067236 1.3771278444439148 -0.29594374405601936 1.039520662256971 0.11174425715454303
Ni 7.0268953294027385 0.6290939522311874 4.878585518937086 -0.2687291313144404 0.7897657580521883 -1.0957468317395516
Ni 0.5385269318144351 7.273334038916043 2.524895586090566 1.2918168448263687 -0.46247743824661647 0.16530959197550885
Ni 7.77143357911347 3.916745271261257 4.152929551185046 -0.034120338722476724 -0.26609837855981266 -1.8196339848210599
Ni 7.817851424859646 3.838967452640585 12.611118382205397 0.37987226454987477 -0.38923262271885223 0.27802881144881153
Ni 8.065162001559731 9.128540265085961 7.097650984389886 -0.07089868389309079 -0.8377196602236475 -0.5459272193318404
Ni 6.643555307665239 0.6507852812822865 0.4143203691077518 1.1785306971060026 0.0004234606906637868 0.19299600214718377
Ni 1.915782831751408 6.757215910191828 9.143928720932628 0.3130750044196673 1.0797386292367535 1.0611783497360627
Ni 0.1971091906412769 4.9371386660892576 1.3652177753945043 -0.43765780809977534 -0.9253675385506192 0.3593062674730651
Ni 6.354558581097232 1.9179080080191846 7.056218220923122 1.475410065602414 0.7004281507276194 1.1346460799079103
Ni 3.254898175046698 4.082781478643686 0.4000026751498478 1.7265253404898333 0.35098232098840193 -0.037852294961083194
Ni 6.076941537706678 5.470539745401415 4.665163329953159 -1.4003611069863753 0.5455076152959185 0.9310789871130998
Ni 5.0447870178070096 2.828355317814273 9.388016113626586 0.41885095980591736 0.28789824804372355 0.827488983634575
P 0.2760967249836064 5.776937487905574 12.249114585279381 0.7551995900415445 -0.7503160366969982 1.628173445481796
P 4.004113628936509 5.910941658123698 12.71883938952205 -0.5307412556200214 1.4836039142671158 -0.20203651508289724
P 2.347911088149143 8.393883176825405 1.3537200268688423 -0.5901681914280869 -0.3385469234385266 0.25228281283295906
P 6.549493552941477 8.006710572246018 5.956582088961661 0.1080603805450526 -1.5058699247541678 -0.26886719955420146
P 4.755090981099606 1.11020479701621 12.751472651767237 -0.7130221853425462 -0.13046908725755596 0.4129852450537597
P 3.9578774221875794 6.494139068530805 8.265954831065153 0.422749266419059 0.47226485665068346 -0.13553030383054723
P 4.792172582387346 0.9810322241248252 3.813283698430022 0.7084109118227799 -0.19136103764692206 -1.021349390664583
P 0.49225803004600027 5.289845270941245 3.6695927204887764 -0.5725185966671237 1.0222379639171233 0.3744297533780648
Ni 1.6355047770512023 1.1628801062175058 2.5591363534613807 -0.4400142241470938 -1.992418545017375 0.32955114769781957
Ni 2.1414692858293742 6.473741009140095 4.8486913727703636 -1.0076639227576905 0.5790612828816479 -0.8341597107865311
Ni 5.9793469044864835 5.747412068903261 9.243261639356465 -0.030946568980185413 0.9817731710338576 0.09102965031501097
Ni 8.635090683218028 2.33601373382954 10.47608819882839 -0.3027898204435753 1.5292343105117212 -0.8429724239821548
Ni 2.2005746155331734 5.612917473392573 7.136943132274109 0.25555814115012115 -0.5363334049958183 -0.6133749685618533
Ni 0.550839331242745 0.14964328788099188 8.93102511128584 0.5654892006241681 -0.10388439479049205 0.9349112163749963
Ni 1.2321299739174856 1.022527653045639 11.370118067857412 0.41176577082436183 0.11772849976243596 1.0147234007076331
Ni 4.168832953588907 6.622803052229901 1.6147815838554236 0.1833322538051746 0.40081801356360647 0.10369721848035045
Ni 5.6928931238799185 8.10576739939404 8.046112611723572 -0.11856102296606032 -0.27537723275857734 0.8876659102347874
Ni 5.358277763153618 2.6895013863696846 5.124188689063058 -0.29199067294554226 1.6013072172185714 -1.8172911956204962
Ni 0.7917380513400508 7.572965728772794 6.774899374768697 -1.1498456704664841 -0.4694291869741012 0.7686220340950376
Ni 5.103846937761496 4.9814222536177954 7.066932197175668 0.717884398530854 0.6606709254343396 -0.23883465774785317
Ni 8.10497726975602 7.362809408959348 9.100036565443155 -0.5993969091152064 -0.19476312134993554 0.22245235973508787
Ni 4.608499228372344 0.43827946103946536 10.624297446826125 0.15384478586901892 -0.6696767284773758 0.017286297884273456
Ni 8.227747067994489 6.841550896613075 4.840489463849728 0.48769533227314066 0.7268994575452706 0.09005134556214167
Ni 7.221294466205108 6.263557443477063 7.119250585747377 0.7272288158602314 -0.5004315488928865 -0.6416522182399917
Ni 2.5299406092390693 4.785306628291453 2.8062017175151834 -0.32910351863743964 0.6655614207574215 -0.17250173884857387
Ni 2.4986442100136097 5.328116607660945 11.110026463116123 -1.5204218544264139 -0.5816308433810371 0.8295625783341518
Ni 1.0816148188497134 3.1052094774163947 3.8449451920399453 -0.8013737746047618 0.47950919691792254 0.41841310093755035
Ni 3.698524179970095 2.3612252266472638 2.524098190892657 0.8857866909342036 0.46695475729167973 -0.2538635270565176
Ni 1.161118207944221 3.4594236859455227 8.264001303649774 -0.3979034110199728 -0.22276963386519053 0.41181667866695526
Ni 4.067769015521318 2.9862086883707777 7.266702399126597 -1.7661385840060808 -1.867232303425313 -1.4027409200724614
Ni 4.466148746230774 7.333420219204969 6.068849520379376 -0.9076981462953142 -1.8129480881604518 -0.733810325732491
Ni 0.4289196035113868 7.523977691215589 11.032784479537327 1.256804847527558 -0.2868440957475963 0.40632351676286793
P 9.407991862348698 5.62515085985708 8.188872689803933 -1.586960461578596 0.4128222371133342 -0.35678504371310815
P 8.369688862392257 1.8282600809284966 8.19336553040081 1.43730811652437 0.8355843590481998 -0.12024329576448967
P 1.7770469656550296 3.1694461087923886 10.607283321954107 -0.2632200285707531 0.39756453962331534 -1.7944649417545997
P 4.067124197081094 6.01387647786292 3.7800791815384946 0.7603546518799227 0.4485597997242597 0.6201899346011576
P 6.5321470287044985 3.954498936838806 10.333833077160373 3.5399184866075037 -0.1460602568275936 1.1131691409810571
P 6.225331516506674 7.884149658854381 10.406329741936121 0.7096586681869521 -0.5874117117288722 -0.23627872409521888
P 2.432582106715295 8.476456264973367 5.859215412683012 0.5968988252837011 1.0281882679632872 -1.6734829680518726
P 7.104491509026165 3.925809057223825 1.6399567488736981 0.003315437526478161 0.3351895769305195 -0.4271337686399999
Ni 5.4955060255728565 3.255751878333754 0.1709141226534669 -0.23188496590289742 -2.134175803594241 0.2983618665792087
Ni 1.5535946712431872 1.2719089143143263 7.048296036058245 -0.5006452075655894 0.45137952856124197 -0.952700164927301
Ni 6.869586875837972 0.8470552997562877 9.372384261523608 -0.9867670247040231 -0.4472079136820556 -0.24236529660893102
Ni 2.9220719584432686 1.5739927306338959 9.318310332043518 -1.710211433821158 0.683131825541017 -0.08490708235704086
Ni 6.58116231211129 1.9285429713079292 2.405158250911117 -0.8632404302025715 0.39008340075492176 1.6365914943421622
Ni 4.190148289915707 7.0450410652276 10.603681420638722 -0.1027443676487779 0.01498130390018065 -0.8096283013040702
Ni 7.986258021156134 6.809164663404141 0.3735124437915133 0.48741019693255416 1.0841480711583587 0.609159387818609
Ni 7.670278821547257 3.956378900460301 8.395702291382822 -0.10621818512999125 -0.10361879983393123 -0.5231256480562926
Ni 2.8528493365928758 8.229944899861163 12.340658823501316 0.2302677420144486 0.16310461390439007 0.6319164790094666
Ni 9.062332850589849 4.9325522814088 10.300217147940083 0.5982818216741567 -0.6710324711743217 -0.6387386441376226
Ni 8.532301174676602 2.3688994742809006 5.84039307159341 0.7900642631292135 -0.5469011532093355 0.5641170028669898
Ni 3.5954258851333516 2.524191734976238 11.53929027252729 0.2390863687473431 0.5680726450806282 0.45846574598406203
Ni 1.2370433087929855 3.3668604529490387 12.745092581988976 -1.866440403651637 0.47403249007406756 -1.215435540552152
Ni 3.1853576849511254 8.81037231556027 7.807675100038948 -0.11453338986390599 -1.6761929107838682 1.2567431410516872
Ni 5.731763869290531 7.846141698680687 3.6548118470878954 -0.48367489825983795 0.044414521559633185 0.5136056243809993
Ni 3.254807355548075 8.321581773971694 3.5106831191632875 -0.47836094224609227 0.2979026675546031 0.4113513089947625
Ni 3.4355563217074185 4.475712039435767 8.84495638063588 -0.5083546603947051 0.3561787775876769 1.9360532788537688
Ni 7.271653878191519 5.977703071561409 11.57099172671661 -1.029175057356589 0.9327358059902324 -1.928469810079556
Ni 0.4117020429624529 8.74158562730327 0.34725834312959847 0.40019837770173655 0.4607848810355419 -0.3170278184198282
Ni 4.4180689036597975 0.08992038558655706 1.4273728238620613 0.3120025972910949 0.12531068298506806 0.3734740743330149
Ni 6.030015102768213 5.417364928957692 0.16526242525416235 -0.5837273208987495 1.469201622798857 1.1257554622864998
Ni 7.855441615339674 9.03970971348288 11.38759718856238 -0.23210428100255512 -0.9517845950915672 0.0604152678632637
Ni 9.124635026645175 4.759114284888602 6.04053654168368 0.4054675965204759 0.4871132345174256 0.31840567260396135
Ni 7.903476048161339 8.838644425481588 2.408427752861542 -0.17411664874417754 -0.28993661862999104 0.21007018402065109
P 8.614946918423463 1.4715574181371 3.6025197961707884 -0.24394472528090888 1.0307994803338891 -0.19628829974521034
P 1.7848937703360503 3.135243485610996 1.5671285929279752 -0.7915045951201659 -0.09329376375883933 1.1242086866246703
P 4.791200813752081 1.0806430502144482 8.255374359475583 0.2391005098147302 -0.4230703972039036 0.013338111869802835
P 8.437240405467987 1.5332783494012392 12.652218746307202 0.18345540964660018 0.8304773768389374 -0.3227009575452055
P 6.237428673723247 7.51914609388885 1.5591128639795162 -0.09302328370627205 1.013873394002512 -1.5548445548806575
P 1.8210399307879739 3.2636985844632593 6.043513604848539 -0.17691786563839854 -0.039861354971312 0.5185681105925972
P 6.8397799163899275 3.9687031064234315 6.161243829108422 0.4732845561644495 0.6109524751632897 0.251714856144631
P 2.3159789524333227 8.685359275705816 10.225247468216832 0.8066316805695914 -0.8515298266338625 -0.17452519703650587
