# total energy = -381175.59045794944 ev
CRYSTAL
PRIMVEC
9.11223775413314 0.00000000000000 0.00000000000000
0.00000000000000 9.11223775413314 0.00000000000000
0.00000000000000 0.00000000000000 13.33668103227774
PRIMCOORD
 96 1
Ni 5.138482045423795 3.676268574509961 11.291594462080683 -0.1283713241882628 1.5328670221683018 -0.11939380328000083
Ni 5.421043428883117 1.27752663419051 7.3089414694790005 -0.22526900324827653 -0.7346284507584122 -0.01710529222171893
Ni 6.1309961041736045 6.6675611176735154 1.440321319481636 -1.7810664089605066 0.6417632898965592 -1.5594871958589915
Ni 2.909218616857704 5.7713451885118285 8.600318705199975 2.3130016848886292 -0.3433214620090345 3.2610908334064805
Ni 6.166315138076288 1.4750799507566075 11.718355187052698 1.4563679613692981 -0.3095721334727313 -0.7067605207035506
Ni 6.101581800397065 3.581346392837035 6.172002996941628 0.940861006200528 -0.7607084356749158 -0.032781822416711286
Ni 7.055305062623726 1.1735013269064436 3.416684610010651 -0.341430929854541 0.34158236783074075 0.3726700903744808
Ni 6.856439583807374 8.455755785397107 5.5834818256743475 0.1594204801845835 -1.6221372665900449 -0.6013535186209449
Ni 4.407607672032027 4.756952646686595 0.4588467368858775 2.183990927344155 0.28483040775167723 1.0123831826102307
Ni 8.54990342685287 4.357289894629906 6.970616835279 0.6542506237302926 -0.006432385888905051 0.07539322932933468
Ni 5.560159964123644 8.288464210727506 3.3835689152198527 0.5118472469289959 -0.5598194039329004 0.7587022038781643
Ni 0.8954805715672729 7.607160411234242 1.414662168922666 -0.07059272261689778 1.2579127358797562 -0.19731005614150535
Ni 4.273967591738744 8.98734551703147 11.93858339628222 0.11434569933313211 0.4898311476692209 0.01520396143394801
Ni 9.057646432036426 0.5043268272139702 5.092411482083088 0.07341450833640904 0.8101054980508049 1.821063518178735
Ni 1.7908189922241013 8.799997906856241 3.6057316525447165 1.2578034639954014 -0.3962337366270337 -0.8143614451136814
Ni 1.705993170087856 2.574070508771862 1.2377817863645717 0.20457830766814444 -0.3335780094690255 0.2410103252429333
Ni 7.502014298694749 5.27337050230239 13.202593848071324 -0.22100071489022585 -1.143949102476391 -4.6465678241921715
Ni 7.926480562176389 2.089964648568585 7.489666305185583 -0.9091654748694601 -0.03464844331180485 -0.8025947914960564
Ni 5.377040432310346 7.992097786926964 8.110155940498474 0.346221666374965 -0.5291533423076114 -0.6080052196095077
Ni 1.3960495118923197 6.0770698805832835 5.465158505981432 0.28793398637766543 0.6410402956876057 0.9991571708382597
Ni 2.1291108223678448 3.785068694426898 10.260095516141542 -0.22395311265033044 1.0012755027328433 -0.7728913508943528
Ni 1.707678934089919 4.353335183403445 7.560924916388468 -1.1589255212805654 -1.6264585196732184 -0.6406901114370386
Ni 1.309811292889481 6.125574322653455 2.9448729811132313 0.14951787635889088 0.12861506476795267 1.403779645749621
Ni 7.528248431461991 6.513026675992498 8.71111987254855 0.4891413206910479 0.5047497166522662 -0.28833096470576797
P 0.6360624497968146 3.1458634337959674 3.1825055646343245 -0.05889574589494373 -0.25830459354700674 0.1576685304904833
Ni 5.687375916733389 5.611644107970435 9.838456780064442 -0.7755943516478127 0.5352404290419557 0.06812549202332784
P 4.610528096691179 0.2858427003087435 9.74171215082172 0.3170437592594282 0.8639947918700928 -0.8983344456922272
Ni 7.623024817329333 8.772488060790142 7.848143564612409 -1.3755090809397021 -0.6544614541895181 -0.5909631765255564
P 4.205689593536263 4.108033740508641 9.243426737301629 -0.38257217997954107 -0.7426322948994952 -0.3541085253222095
P 0.35134328841485146 7.812513803399074 6.513354716555062 -1.3280691422901838 -0.2136159923903805 -0.15513445121471992
P 2.1144218949552736 1.8061548885239511 12.497230095761587 0.8123336160503751 -0.9894862234073991 1.4940721607882914
Ni 8.819088045149876 7.821972306286326 3.979999508940056 -0.2109366457860045 -2.048498932950711 -0.9415444054207979
Ni 7.08097423664433 4.181505714285045 8.681926084927957 -0.12539912893381627 -0.8623130332922956 -1.3054660601786872
Ni 0.957568626598934 6.767595264779725 8.44634648859424 -1.714398989539944 -0.0012523843498623592 -0.7695049509206232
Ni 1.0875364750390744 1.8014347493181744 6.751681652600249 -0.17981112802579358 0.8976572171195444 0.6603209982940885
Ni 6.390776893010452 8.526785679429983 13.05651738556174 0.36096797144620413 -0.6837905421709384 -1.8385986988490206
Ni 6.810049180918168 3.729730073969984 3.9093814880579556 -0.9369372456660895 -0.07147872476627688 -0.3508833335166925
Ni 2.4273179182138827 5.867078359353315 0.8578670761742131 0.39746195260718004 -0.42670696551522647 -0.3729806796363641
Ni 0.05327560980790332 8.229890745834199 10.450130325258435 -1.1113945655791375 0.10556306804449561 0.713367741607423
Ni 3.944268601886598 3.3000242737251755 7.127935976846669 0.3337055361858253 1.873175665492942 1.25193003593376
Ni 2.214911653953932 8.628068203121503 5.8732345872440925 -1.3403482167678529 -0.4607452860468581 -0.48471336682668137
Ni 4.102803315983321 4.038744283904923 4.639151458222426 0.3632374842066712 0.9408746330472828 0.7211656403852871
Ni 0.3523829947534212 0.46007688899549115 0.37048263279286947 -0.17861607927642784 0.9319547048498336 -0.6545126191424275
Ni 7.508602446659569 2.059055937784812 0.9329929211202087 0.3388402863092293 -0.2939963905216614 -0.30075582073268203
Ni 0.09129186611388845 0.9341410630891814 2.736460610702493 0.6657411408683953 1.1969130562679322 -0.906144171544633
Ni 5.568060274338717 0.5764146520611128 1.342390276870974 -1.2978751352053066 1.0081339204155735 1.761106420898812
Ni 3.1825857523273955 1.540050206619904 6.209625604572537 0.7234150985410961 -0.6118037674199915 -0.7566851734481355
Ni 3.5066624914267153 6.622109275282755 6.765484870493899 0.8051918627992715 -0.08774455180583599 -3.288197459815285
Ni 1.8296371254607975 3.5948051681399926 5.264921635368807 -0.3025463369742016 0.774691380217569 0.18973172957361517
Ni 3.070459665595577 8.359038492867931 8.03573720520956 -0.40372053192238216 1.6785452130661285 0.6272833511128294
Ni 5.367509031520303 5.331515692016794 7.444215374018607 0.13016569708452422 1.1654481528904317 0.23396961634606803
Ni 8.71504451339011 2.81319385440505 5.178806431576929 -1.2386641720627893 -0.37432330970718763 -0.7821570924669949
Ni 2.537894924511373 4.252845424404786 2.8719076477612306 0.2680521598520738 -0.02272623795292215 -0.6403327280976199
Ni 0.44978461634505723 3.435040301933656 12.521796689002464 -0.277368037936361 -0.7336131221200205 -1.3143062841781366
Ni 0.10712073448136848 4.473926539096975 1.12225683491508 1.9889262155934002 -0.7648314567043537 2.415392011632098
Ni 7.922954126128829 6.259105056092551 6.029420166423347 -0.7614463422822048 1.2699884360973674 0.17131903139438234
P 7.516101818409288 6.085362017025864 11.084209040875525 0.9331970618973672 0.6233858158306361 -0.7090526591718369
Ni 4.048193674554326 7.327360035843164 10.069901242862288 0.6979956300267268 1.0415988849422384 -0.39212999887130534
P 8.328302914603288 0.9924593853227157 11.939063611216861 -0.951714146864948 -0.19920393073010853 -0.6492552273982302
Ni 2.708858731034118 1.8094626308631343 8.840539164270181 -0.5908389922428663 -0.08662792170288951 -2.683241311444747
P 0.5436516008750701 2.739648982725854 8.78277759976922 0.11129251432910511 0.38351191818499114 -0.5233881576890599
P 4.19066351332328 7.509012497362773 0.1365341270341224 0.33738529903025766 -0.9480960904963867 -0.4977974537041491
P 6.676245080343603 1.3495133131975292 5.604126511745019 1.792254307256526 1.8914924615242585 0.21215252047097657
Ni 7.142472729887162 6.317250245806954 3.587740450135671 -1.8176508929527597 -0.044120644468298206 0.32194351055389075
Ni 8.815333803156092 4.999001020669309 4.2557349150267 1.1722458925385553 -1.4447972258125634 -0.3754821059019791
Ni 3.646744923879234 2.0389178921385445 10.807672669081954 0.6433846275500661 -1.1570043929984526 1.6941950037882436
Ni 0.9782078453268958 1.7641565842779574 10.725945919038152 -1.628593306628034 -1.0262866800652002 -0.46793280493423284
Ni 3.405616885919268 5.589492257759541 11.21917586299962 -0.37230113707083623 -0.7463089724201339 0.760179045534007
Ni 4.587410349268293 2.1382868458817774 13.263756099737527 -1.7706367289867506 -0.32552839969167163 0.025587875771433354
Ni 4.4816719412686155 8.674021218593959 5.813366273352445 0.7747518011418594 -0.25567589767490806 -0.07522585051353496
Ni 0.6041094765555471 0.060640120437456806 8.242682505326611 2.0434739689322936 0.6818714707713547 0.6682111996754427
Ni 2.7811461138901534 2.0479936810361385 3.860448770808881 -1.3306358745760956 -0.9278031445753053 -0.8139994337885723
Ni 4.38711424910965 2.8039813819397215 2.2060336006176615 0.6578493968251445 0.11985634473871615 0.18075523710661773
Ni 3.4595248850338916 7.575212905335684 2.1217991627178154 0.3354574858799255 -1.964517704842049 -0.07155662919206386
Ni 1.1000202408921904 5.852890605022438 12.332362376359818 -0.38082665804334415 -0.7251593349257124 -1.0065552630745438
Ni 7.5297701751827715 3.4363342397082124 10.782399877407782 -0.2819381738055467 -0.7676774107935811 2.108124615033143
Ni 8.405829834222493 7.232620098927217 13.016547465460933 0.591684113851981 2.677101774205912 -1.1879226798438638
Ni 6.840593402187982 4.3546746823672455 1.6288626328150826 -1.6200605865666746 -1.8407869647495911 2.9321824614989827
Ni 3.038931322638073 0.3383547045849015 1.0030705862978642 -0.8715445791928926 1.9456002991122558 -1.4232881480961939
Ni 8.992202339804981 4.829012223596406 9.814650147460172 1.736874030714009 1.0839621803997979 -0.13508987385901897
Ni 7.491034052086716 8.515222249599615 1.799118418456961 1.919927834046816 0.09162306092463575 0.5411542234232294
Ni 3.5030449330006665 7.0321782029629905 4.26575108687031 0.08737431295061081 -1.2134830448114715 1.8898047894091903
Ni 5.774935410224331 2.3583747266484263 9.289131899904591 -1.5532931512331378 -0.10762406433858239 0.42084999251381716
Ni 2.020748089867659 8.267378492344942 12.43813541086332 -0.6891788030660453 -0.8798908942750588 0.5864290361006287
Ni 2.949266902204014 3.786909366472394 12.525504458583217 -1.9446968134613798 -0.46611606344046824 0.1334579946825508
Ni 4.828620397368899 5.334185577706547 2.768894710102187 -0.5756080342257247 0.0156796155187859 1.145824208011917
Ni 7.771426722937979 1.2201195357418748 9.608398288643428 1.1983017090853427 0.28305891767355124 1.473796955479023
Ni 2.3347102449545996 8.984939886239337 10.23516898950563 0.18753986412861898 0.320782400366254 -0.16796039933479462
P 6.190161864527095 3.4641174529097825 13.07884327951555 1.3496450686887467 -0.2716067099725516 0.6154048545076886
Ni 5.001397539223593 1.9637783788357754 4.515053713404605 0.09855475504746251 -1.1166090199005414 -0.21036020445724415
P 1.7508800537319795 6.842552533325514 10.48513863185047 0.5837147224932592 -0.1364399601290102 0.08165386552706583
Ni 6.582689734348024 8.38547309486785 10.199346960073681 -0.37525199216904404 -0.8700991049956176 0.882738648136499
P 8.235376313019291 6.233991728580736 1.635316830883522 0.8786014860396739 1.6557014756987358 1.7406784920617637
P 5.5002652247422334 5.764538346838634 5.213375528304641 -0.21137630442658434 0.0074767679930193825 -0.3535685936583395
P 3.8999831259405076 0.379010776195739 3.0180242041173506 -0.17488283748624076 1.6208727980553248 0.5634220336824942
Ni 5.581491712928129 6.226947968723466 12.112560619861627 -0.5783786549923265 0.9040980876488816 0.8523111848845772
