# total energy = -381165.62093466957 ev
CRYSTAL
PRIMVEC
9.27656999044679 0.00000000000000 0.00000000000000

0.00000000000000 9.27656999044679 0.00000000000000

0.00000000000000 0.00000000000000 13.57719787109382

PRIMCOORD
 96 1
Ni 6.255822043272193 5.681268395898494 8.540043854387719 0.00596058845880909 -0.7864603478280391 2.1882512452824057
Ni 1.9650001905400154 6.34669532423436 11.835691961742649 -1.934982157276777 0.07626174797721705 0.985996979307218
Ni 2.4303407778108572 8.145468654672184 9.19154572330624 -0.2645104652474025 0.0522890392117035 0.10557592356030204
Ni 2.0416895957782994 3.6765923149261406 1.8831984675048496 -0.9662683905300391 -0.73744715115413 -1.4255214083020868
Ni 8.17122041334419 5.488028163587052 4.31761722554345 2.2959989796830453 -0.25970481632864306 2.127771442729794
Ni 4.864345800821801 7.60607320807907 2.5378905488899783 -1.7031180173094864 -0.5988127544769623 0.0972414355526777
Ni 8.566847576112105 4.130680422633169 0.4367798831644393 0.48461412224465567 -0.1306290098741879 -0.30583503502780235
Ni 0.6659417779779031 6.627051826606613 9.489795801796085 1.279904409659499 -2.0376815306202327 0.6854753860725291
Ni 8.805376023782602 4.434404605154842 8.263000942864759 -0.424868626754907 -0.0646069373471081 1.318397937749007
Ni 0.018987283735541316 0.33531461443148847 13.121574861753661 0.2519465125394629 -0.25099494725947097 0.8397045518641602
Ni 3.155453158342576 0.8563276096613285 5.328398800159043 -2.6466609412175517 0.11731866591852701 2.0226590890694713
Ni 6.436381204220296 2.958864084215357 0.31982738060479005 0.7269524222703931 2.059270312534602 0.8609248946955173
Ni 2.8092237314998907 0.7853071164275339 7.797642730110676 0.44748379305126157 0.9820333666737797 0.4175736357553905
Ni 1.8778653673389505 5.894045084896985 2.0251745179815512 2.523530296602938 1.8787634439933643 1.1412407024062927
Ni 5.084970468147568 3.3315224593493054 6.61365645934351 0.4781907352168152 -1.2790734291177714 -0.06671112817430445
Ni 2.7128958273031634 4.016504397512473 12.571534550940042 -3.094472292811561 0.0045719356413985775 -0.5801822838599685
Ni 7.734665023176819 8.921732042883097 6.177977705053122 1.2874899353162406 -1.2231647908756096 -0.26972080580374835
Ni 5.793255150469265 6.346417027130556 11.066366520329574 0.9252065874927227 -2.558612999238684 0.6603528799732886
Ni 9.176550147696261 7.503826852141442 3.2181080406360194 -0.16036587481698833 0.5157681792499569 0.7685168759757409
Ni 5.599578919361863 1.7425294857590148 10.55165509918687 1.6192044092139661 0.029216473662956134 1.9914173574463703
Ni 1.542684335517288 3.1062224006796297 7.946272864339334 1.010952106590659 0.8435820325416955 0.6207460642149438
Ni 3.2101663689504627 7.270372688330307 0.6666801929599967 0.6005199669760561 0.8493528735872018 -0.14510380645159526
Ni 5.70850440579079 1.72321566675501 2.3187000393058153 1.8730057155739808 0.3078484659134053 0.42232066352207276
Ni 1.4736017177829825 6.1760899230323165 4.977156314819832 -0.8759357662820527 0.06234513789612489 0.32295935341291476
P 0.7001593345476304 8.654538993520777 10.680054889282994 0.35797777846962864 -1.3029155258426917 -0.04224605315340466
Ni 6.989134911796007 8.469044697265216 3.0284893813020806 -0.4102938142645256 1.595966264621632 0.3281743219549509
P 3.7162589287883523 6.513228311150735 8.408820276344995 0.4359698788743911 -0.6676941508297082 -3.2523069165662637
Ni 3.910157797578798 0.33229045257015055 10.345730084884037 -0.7111115985833947 -0.09795954466562484 0.42085513472013975
P 5.62384642681358 5.0290884097037045 1.2349100024782536 -0.42572660387982814 -0.22261999566120366 -0.07402797355069186
P 0.2723044395021887 0.8372345730263416 8.165421629357926 0.6490240852240307 2.7420614669067485 -0.3973256841396318
P 3.5701993321418315 0.29522498897149463 12.778723034094147 -0.23678343164577928 -1.080869400407087 -1.8200726150203752
Ni 9.332322313265546 0.4844429004759555 2.0784378006786186 -1.390491156170831 -0.6647918895812486 0.16714458830171858
Ni 7.517704601051141 3.454706034063129 4.906215600089129 -0.7915295348208303 -3.591992067374291 -0.46158500833933414
Ni 4.409599056635769 2.597337593233573 13.092831409215762 -0.8691323702069741 -1.675281197602876 -0.44074544588616354
Ni 4.903335225064756 7.683940737723458 9.546861550588128 0.9234368971868097 1.1868839541667042 -0.691141583219371
Ni 4.235681919898458 3.6357104703773175 2.514021933953713 1.1204715881797414 1.855290814792721 -0.6992269313306667
Ni 5.52297300325472 5.084284001958184 4.500623545691003 0.6607606569346685 -0.35774200830973873 0.29145382660546576
Ni 3.335325853101295 7.788626831604435 4.764931581743887 0.2193297549457061 -0.4774469150722552 -4.687271472559121
Ni 8.18546922505896 1.0739856298605432 4.277387523874541 0.6682474522300168 -0.19670584689860315 0.3407711847833551
Ni 1.7216015435529461 1.8010089838383838 3.2476390739776857 1.0156880786137477 -1.0647735232864888 1.1713969142746987
Ni 8.832565650824263 6.3674748413183995 6.812223298221763 -0.21168123726151286 1.146579855231019 0.04778472358344674
Ni 3.0732905767294776 2.728814421640758 10.459765106138807 -0.198405088977897 -0.46266127212264835 0.2017614070446396
Ni 6.824930343981458 3.835351536076255 2.726559287442932 -0.9371524470006892 -0.4695834531637784 -0.9853431477733029
Ni 6.110328317403408 8.533758050469796 11.489785359540377 -1.1163665648724324 1.7077832839956395 -0.2321158509667809
Ni 3.435364385348744 5.662715255644887 3.8402421438471057 -0.048383790620026346 -0.5517461400064627 -0.16855175306189035
Ni 0.759635136258618 7.509402070787652 0.6631170623742915 -0.8011999680310589 0.9578248877483763 0.022253412081561674
Ni 1.9496938498307896 8.460603018449824 2.8071532010475884 1.5024675839408383 0.08651659293600585 -0.1953295353763668
Ni 6.875738118565961 0.8450556493002496 13.407483391346808 0.47195041073405813 -1.5964892270046376 -0.17664764269614738
Ni 5.7933664693107865 7.364149535742163 0.1400279707500728 -0.3146791156819935 0.04272762077551351 0.4417985697410262
Ni 7.041334171899529 4.837517960015085 6.438361751942368 -0.7534604958632508 1.1872925024590326 1.819858185016724
Ni 7.915233460695049 7.565321235512022 12.477200181663566 0.9106101777357866 -0.0015904844155714543 1.875824158859382
Ni 1.4220054347377018 4.532856843910607 10.294272022733645 -1.344574596144375 -1.0851752268712924 -0.2858241391235142
Ni 3.4036385155150755 7.976477376672205 6.717902843800476 1.6845559380365827 -0.28670165663246105 4.8728249023853305
Ni 0.8487282434134511 1.7267407634031953 6.345018120355434 -0.11978769628430982 -1.0850338161974216 -2.0647058817278765
Ni 5.4732320342348 0.1838894496236249 6.236563883688949 -1.0728437018891328 1.0396816133148676 0.13034953096055618
Ni 8.238141590238952 0.46792875033621995 11.210135731811786 -0.7548794876979644 -0.5603763048776349 -0.07277661764209402
P 3.5609042088747747 1.8294880541276703 1.6046889302448422 -0.36065943906684983 0.8682239994600918 1.236529899328606
Ni 5.1300917052443396 3.919128240891417 10.882477070705947 0.6235557657495971 1.1164218435903999 0.2530340891766868
P 8.487059796451469 2.128703823567716 0.9833368418954453 -0.24297850471289764 -1.2119159574346676 -0.6495462762760879
Ni 6.074038375067353 7.2678401846856895 7.071316974206371 -0.06499620236572679 0.3416749275445471 -2.0297195954606786
P 1.2492849755467483 4.282241025364884 3.842795055946002 0.661277705780403 0.19662819958313232 0.7198752037086377
P 0.9062661696249495 9.136939193254811 4.653014401449067 0.12058011027861813 0.7554772691829633 -0.6655470225797183
P 6.1241318537520915 1.6011545570265302 4.669701095793161 1.9670006191649028 -0.7910196850639475 0.2546076043113938
Ni 4.518997648141163 5.086436166227602 12.918500537450795 1.0809509043772996 1.2967405073802312 0.9091523622433375
Ni 7.781734340000221 1.6856733874518366 9.49111307475409 -0.39734522452365767 0.905744107892737 -1.8237616338361882
Ni 1.7045604842300082 1.401327959925057 0.6833566830769513 0.9870503602723968 0.39407272441997293 -0.4880342036697982
Ni 3.8692110170390874 3.9522827025246126 8.717592768329673 0.056518503912018785 0.04554066474427641 -1.7398901918325131
Ni 8.928578151636678 2.986480433482851 3.0671160916530775 0.6386404279968614 0.25533342673382475 -0.924471251988595
Ni 8.83182352521412 8.31010922128269 8.671811039439874 0.11288891228194751 0.6148667226160314 -1.6874029205670746
Ni 7.864360750119659 7.125454109809383 10.233283212434975 -1.7255701756654152 -0.8557178965732811 0.4877272139523407
Ni 3.308460906014072 5.616119043897953 10.15021802054854 1.285739014063405 0.11388212943315225 1.9376743593969599
Ni 0.23043556789187394 4.193111739586557 6.044079691842841 0.7739956397021251 -0.5072056343919266 -0.6671097390811479
Ni 0.6262464067482985 2.3566940875741644 9.950511091201701 0.37571581917934005 -0.8763425148021681 0.3475339574284853
Ni 9.079693479002307 5.4926478955102 11.924052219857465 -0.9591016975782709 -0.5425675588309882 -0.8252693502754368
Ni 4.345470127349177 5.4611539399297016 6.501740206705702 -0.26864274224822116 1.3650068958567976 0.7844392036329524
Ni 6.759771715410791 6.098528520202113 2.7830675143703556 -0.7188195087506136 1.9547220589078658 -2.297868685901933
Ni 1.974935397145822 5.636221371362737 7.484064047143301 -0.732312658141042 -0.04836913533200702 0.06668747402522063
Ni 6.24315024847898 3.301559137839731 8.613632102232613 0.6864459775159145 0.13055187677934935 0.4260276800600146
Ni 1.9518367375300814 0.9577223764613156 11.577059331293343 -0.8320640045997669 -0.09367402991639351 0.3101010093930079
Ni 4.404394900794633 2.6194622129859995 4.525633178752865 -1.296760047764257 1.3863113137615286 -0.47111557353758865
Ni 4.434423158295095 0.4298029747720704 3.669550470542884 0.5095651357630385 -1.707551113380175 -1.38196717786022
Ni 0.4990349452854173 2.6855206688589663 12.445877842630413 0.08100903285421532 0.1791974057011946 0.03924120488880984
Ni 6.887630681468523 5.340901761375948 13.048203685649737 -0.17015740698611342 -0.2874794153387501 -0.7914883971702498
Ni 6.748806809520909 9.144935596704114 8.328117826869855 -1.065709661947513 -0.026099525300529246 0.7327019231596608
Ni 7.49196211894926 2.979884792122694 11.720462118255547 -0.13273011537759077 0.6912397993601322 -0.8799741980174844
Ni 7.673727234013847 2.0587584848116176 6.8912429778759 -0.017261358183608983 0.08760494090417816 0.17248888333276746
Ni 4.729538683739094 0.2549989979306368 0.8694687989029583 0.32289790404736 -1.6517545752358458 0.22986613570065573
Ni 9.092866208582366 5.410559526458116 2.263441366374473 -1.5098019128187223 -0.8665574103909464 -0.5056143786454067
P 7.017094494158192 7.097958355953537 4.900350024797951 -0.7063316606962481 0.9501159491398927 1.1065338950527266
Ni 3.8908903614254275 7.21972261543796 11.934954045070485 1.615118669180367 2.77926635809182 -0.0016241658669842998
P 7.827217363331938 7.635312957118755 1.2005532973566244 0.22771257969276265 0.21689363470038778 -0.11039674198771308
Ni 2.7771453520014044 3.8380510179831546 5.833985786925022 -1.0389740457248815 -0.23159751656946567 -0.5980416806388926
P 1.0087806184392418 5.443352201856366 0.11671131173635232 1.4333221352934284 -1.0543718683371908 -0.40761472477046573
P 5.203181801273425 1.3440451393920454 8.574163079314102 -1.2777061164565995 -0.08530714600893695 -1.668625125738939
P 7.805788486339021 4.828723771534876 10.189306704091852 -0.9053347882694602 -0.2644158486510672 -0.027383019998643163
Ni 1.1734304616198763 8.265182792158583 6.596427085646997 -0.9885138321918008 0.5565379049681511 0.4591861690898543
