# total energy = -381170.80571338255 ev
CRYSTAL
PRIMVEC
9.19769862422079 0.00000000000000 0.00000000000000
0.00000000000000 9.19769862422079 0.00000000000000
0.00000000000000 0.00000000000000 13.46176165416969
PRIMCOORD
 96 1
Ni 3.2741690764334077 4.556640952434992 4.44736217820516 -1.6773085124455502 -0.7850495835234416 -0.9839028157823506
Ni 1.2307808111025713 6.568876613350712 0.08723097144167864 -0.6596648527673284 1.6849079220593626 -1.0524224579203036
Ni 2.997272366685228 0.2652349479714078 9.289369081057195 0.7937607381441943 -0.1536262421003096 -0.4931954361557636
Ni 5.714713957838863 7.811973142584916 5.773587505403292 0.13819165271279424 -0.2721942070449054 0.14283892167681853
Ni 0.20916026002419796 8.081502495930229 11.659029140582986 -0.8230155212442535 -1.7036823744533882 -1.507068058827327
Ni 3.6772766033602795 6.735511314912172 4.893444111275742 0.027869472716758454 0.6524575363856118 0.5499142290040465
Ni 7.56617385106157 8.6818178738357 10.037654271200358 -0.5581489582090129 -0.6377595680538048 0.28512428484301217
Ni 6.490576607036603 4.920934192195701 12.993238069975485 -0.7703040497831507 0.029395165332665504 -0.04319813265402883
Ni 6.296707520570164 8.086791172499078 1.9447263943417392 0.6559647782079219 -0.1923876791392235 0.7126642877824952
Ni 4.52722671301381 4.936717442616823 11.744404016491458 -1.270770822789347 0.4179379610733448 -0.8581930975866511
Ni 7.065828256854919 0.8878289908943849 6.296981611981906 -0.22640131708050684 0.4946524803172643 -0.9646581086201257
Ni 2.0139280374177515 1.1917641745720355 6.79528163806871 -0.40469112336576757 0.6224753882012247 0.30525885080935816
Ni 0.42525558462737373 3.4532482639038298 11.721020707898441 1.4535379481196709 0.01428684893631733 0.16113154933841928
Ni 7.51770198059577 3.1110846864468615 5.479838772682164 -0.5907150650704924 0.9457576721711969 0.25850745358643223
Ni 2.9515138172417075 4.060038821469248 6.6757814616285085 1.4247853014670107 0.45322043842472265 0.803065560484888
Ni 6.63853078318705 6.192810319662826 9.308888436560519 -0.44364745002430683 0.22209343373377233 0.23468129770111193
Ni 5.42792052463315 4.049231525872035 9.506399811585677 -0.45078817483414624 -0.16849133213760015 -0.5759898430451758
Ni 7.185352347310909 0.23806954580428444 12.2553582360103 0.5092913132763617 -0.8289871654466563 1.165967001508379
Ni 1.1689998710800327 8.956479542877393 4.796183049750012 0.20309889490914051 -0.194865965476387 1.3521025290903035
Ni 4.945179325126981 7.512174163869025 11.919649603276843 1.121352705233114 -0.7725146842812244 0.5401985443781793
Ni 5.787624112901937 1.6569837586631477 8.214959259893163 0.3980849309031596 -0.2979471476392933 2.283862601430828
Ni 3.9932267404325175 4.07567490871628 0.6414870351665825 2.2422148439830543 -0.0483069146355039 -0.6271391122254812
Ni 0.504104693534805 4.4449624986976595 4.99893067446325 0.6275188641624031 -0.7516478681345441 -1.991214240296629
Ni 6.441746026333959 6.763361945608651 3.8480447505739845 -1.7843628203235913 0.0669911213085685 -0.14341459167463044
P 7.706926229380001 6.186675454842961 11.226206609497888 0.4305147692970908 1.3106951697881104 0.9208591091573044
Ni 2.556509462588151 0.4876895612349354 2.6052949745687295 -1.2650753150664664 0.5816722381419337 -0.1309174876488842
P 1.4875069683020796 8.013071619978511 1.6734182061296168 -0.5164929732311234 -0.0809727802996412 1.456257661043679
Ni 4.601571709024258 5.767582328130593 7.482302798838327 -1.0000807110937937 0.5651780971416523 1.5141979850038891
P 6.5566896629964075 2.8393938739821056 1.72606675143005 0.29190042722458115 0.8755992088782403 -1.372209584252824
P 6.696430294492973 6.094155806832433 7.071139927669719 -0.6623657966382592 1.7220297666123248 -0.32141077797887224
P 2.1691208021937367 5.007144219117132 11.796447353238447 0.6217071425766325 0.3162174067033909 -1.2102820213756704
Ni 4.371840796571832 0.4411308120323017 6.790354431046219 0.2080089306162482 0.6796901468493197 0.9365785767750903
Ni 0.056831658523933806 9.0523287577017 0.18537501201194773 1.2449656888007847 -0.3972891744747416 0.4000122298328595
Ni 5.504785689999885 1.1748220141549572 2.4359322356675808 0.5038909681963967 -2.1826652665541957 0.1496376897662068
Ni 0.5291518657648746 5.666849135466183 10.32070148185565 1.3229433910278443 2.606340901442266 2.014142309847712
Ni 3.08213033194471 2.320284975079016 5.0392487853146415 0.4036454557100726 -0.7447686245162076 0.6057873860225824
Ni 5.2425777045655355 8.976604106934161 0.1806289996475544 -0.33894801553168724 0.9585396544272136 0.039556679246699616
Ni 1.2551731072079417 1.8757694100426512 0.3227959839769238 0.5123056746226531 -0.48644680457802025 -0.24380742837209624
Ni 1.5451949325452479 4.361723328353164 0.24400022172009994 -0.9252376978409743 -1.8605584909495634 1.0385778387277274
Ni 1.8412136572267097 5.947406529169845 7.9207386852451105 -0.8534116170376077 -2.0797764029077537 0.049974532145913936
Ni 9.157090542256816 0.23533139099637768 3.005298278292146 0.8121189289364078 -1.2009206347654287 -1.0522121416817105
Ni 7.68176132661066 2.562745502090203 12.480775427922222 0.043363968807931766 -0.8473803232418631 2.3142265584346657
Ni 3.673119243692245 1.5754185694239229 0.7044636759785999 0.6233107396183265 0.14777981062186163 -0.06591974262126067
Ni 9.048962400094396 0.5565113393678287 7.79401003764759 -0.3729554828253835 1.316562427202165 1.2370970846859857
Ni 5.905759350902455 3.4740258645456215 3.7245730079730377 -0.5075272793974033 -1.814032322363566 0.3143692977510586
Ni 4.0441360009691785 8.027567192626348 2.5785462281382476 0.22505971545094786 -1.3958809597278345 0.056617748494044426
Ni 8.696653761323619 5.691177047682889 6.496242389239057 2.1113320662268475 2.5486409756276363 -0.24463866602413994
Ni 8.54609663653146 7.1782609218594615 1.8885100618394681 1.0751096151051742 0.16968278134254003 0.2522519595950236
Ni 7.416729647773463 4.089922143507841 10.89425339701323 -1.106480416106972 0.43334221144355695 -0.6075287941937214
Ni 2.5554609249727616 4.0858659585219925 9.357472518946564 0.671672932971798 0.6212199185275689 0.25939756950086934
Ni 7.637124896369573 4.223951004310049 7.518541730457919 -2.2241836975129567 -1.4382491402814006 2.1426812699620905
Ni 1.4367908594314112 2.039258498757944 9.173045789637655 -0.03534906892325525 -0.2539555725496917 -0.19102705134627102
Ni 6.582728347111907 8.417108114441824 7.860699789295858 0.37964729302326233 -0.4271669358707805 1.1946738825247682
Ni 4.0577853853659995 6.695602501638717 9.852581863465133 0.18384107512079306 -1.7699301898380293 -1.166892598646442
Ni 6.799122596912452 5.26765982804945 2.05722620254446 1.1038563482205634 -0.8073809000307901 -0.8253858212486431
Ni 8.68347345954421 2.9626798230757645 1.2281300344292805 0.4577931453970696 1.0128069004112104 -1.6987592261201583
P 3.6145299050077773 2.3657308027775965 8.061602355713948 -0.5194762242291634 0.37216538282392037 0.3453906858332374
Ni 1.20500886024011 2.2237827236696854 3.699440297148029 0.975767588269726 0.6269125980369719 -0.4815665936675836
P 7.387168245178192 4.860192592090171 4.216007871988556 1.8675346651570806 1.1243364704517864 0.0727989862395972
Ni 4.69840507757529 5.207874788575504 2.8080159259566644 -0.8590819279495076 0.971716558128804 0.5116148192032157
P 1.3231624936373902 6.882996408445209 5.831487016709214 -0.2370318002111595 0.18576477450606715 0.01094415771632954
P 0.9686831980487887 8.975757918683145 9.597751351901868 -1.3610633378280173 -0.5858024582602234 0.09137314969735877
P 2.560308112019342 3.8114250342414357 2.1559956866046104 -3.2824117063714433 0.44670474879339195 0.7704675719442087
Ni 2.7749456014291916 5.8143894151895035 1.6611815882040568 -0.5176245157324053 2.4979712171869104 0.6450784703127214
Ni 3.5665271171593886 9.012300374349298 4.8043680815389145 -0.7598147202160527 -0.07404134328713054 -1.3189155008153737
Ni 7.27519546509268 7.3660595273946985 0.024380339097475497 -0.3562147730319349 -0.6859834360571992 -2.147377389886179
Ni 8.830912564585343 7.2530382096937975 8.810399857656913 1.3300247233546578 0.1274567827937934 -0.8257216073215069
Ni 2.358547400342342 7.997877022253749 7.4652603835089 0.36780556319332786 1.5984432654072147 -0.8134862415975797
Ni 9.172349523870244 3.9392454486367336 9.395016603966361 -0.058073249993648365 -2.622618298446051 -2.353700705269888
Ni 0.9164329130882353 3.595693018724294 7.140912747815167 -1.7874617709638896 -1.0801644039202623 0.8318452037207416
Ni 6.455984063427139 1.6364361004808712 10.718859727283917 -0.07983558137140444 0.7903170025699678 -2.53204887559691
Ni 8.671166939110957 6.809506798384158 4.169794036475196 0.37285932356715135 -0.07438330000758157 1.1392936059822507
Ni 1.7915092951779086 0.5853139318467001 11.52274224482834 1.1785021578609123 0.8167217178157419 0.29046780854311266
Ni 4.140914183329927 2.180544343582451 10.321131934139864 -0.7532758906562704 -0.13466487050645842 -0.5610429919273563
Ni 0.2740904919722564 4.8585370063816615 2.507522521013037 0.6127715306498994 -0.32677307073205014 0.5847722172234961
Ni 1.7145613505257487 6.492738066156045 3.725811937944906 0.19900235624226373 0.47713709714132013 -0.6755645547167204
Ni 2.708188706582744 8.70743346382569 0.0701692409456523 0.12322808942442648 -0.22420070988476226 -0.21448811058268868
Ni 3.905167976136584 2.568494063578082 2.8504467481260813 -0.4760454067390382 0.09999971502410519 1.297453731397172
Ni 8.787821347672198 1.329297358457255 10.621249153219724 0.5699199827020119 0.9982480287604291 -0.2726235812728402
Ni 5.200038349555226 3.00396829110631 6.476210721935932 -0.1768034515477213 0.015692985255224588 -1.1468732181017218
Ni 4.916408924592441 6.514490622826181 0.8859278266391136 0.3563986069079668 -0.05585258819324575 -1.530305946309345
Ni 5.3099968336953856 2.747269727001944 12.323865452858579 0.22384101255249836 0.0607669947757276 1.1711865980361056
Ni 2.745834886054569 7.114907175413839 11.59011906454564 -1.9786801123853603 -0.1296764161529315 0.6566093537704563
Ni 7.67524935615719 0.8148415751649147 1.3854980548722793 -1.7313024501635024 0.33674380879151683 -0.601199509541584
Ni 5.290948400349148 5.203064392322446 5.4058800800037 1.783549580393677 -0.38613984272614144 -0.5031625746708044
Ni 8.179439588286934 2.347896465617599 3.250760014284925 -1.5546005571906516 -0.08945999183504592 1.9692323367088989
Ni 2.9700103886851084 2.9054333483548653 12.361087618435057 -1.0325601717787378 0.15224144593764102 -1.5077005502050034
Ni 5.167947579905288 8.825329561668314 10.038166583000159 0.916893696751653 0.940297163277258 0.503803550688913
P 4.072979983090763 0.5540114049479797 11.845649520955668 -0.1449297427675762 0.12314478568200081 0.37257367400593255
Ni 7.000175085814144 9.043756502810973 3.9212630285328087 0.0940085304376768 0.8377281448640798 1.0387724712370368
P 7.758920818325573 2.444490694010736 8.577255679335442 0.35858507303632436 -1.9304233342615011 1.2717547839691712
Ni 8.501156682243813 5.17843295605918 0.44426906671976496 0.7676427009009038 0.4390436327037084 -1.0467521470084038
P 5.018282631856048 1.3862770999251166 4.747896053021662 1.5865573126029062 0.34140084794755393 -0.18291007866609144
P 4.532542982677801 7.969336564178725 8.21367986004842 -1.3307456606810824 -0.5650186887456526 -0.7958890973411067
P -0.00976335683101454 1.9333286065084907 5.526551123447754 1.875525910892673 -1.2375143747290622 0.3927254663634591
Ni 8.449575989725368 8.104285194818994 6.44830490504917 0.0818829508187364 -1.0535753405778243 -1.7776563548376934
