# total energy = -340864.92866917327 ev
CRYSTAL
PRIMVEC
9.27455156846998 0.00000000000000 0.00000000000000

0.00000000000000 9.27455156846998 0.00000000000000

0.00000000000000 0.00000000000000 13.57424370649855

PRIMCOORD
 96 1
Ni 4.733833011625105 2.6140230137938336 10.380061138399048 1.5087045659894855 -0.1783186026406671 -0.9098969537188459
Ni 0.727667384407053 2.0741699308064487 12.272799514001331 0.8524050301499642 -0.19040021639554952 -0.5841502673687811
Ni 7.8377285513657275 7.393254954109552 11.972509946410124 -0.7623027767452291 -0.31779349294125914 -0.929618086296857
Ni 1.455149277787791 5.19110548969702 7.668293628288489 1.0444378970529302 -0.5266953676854219 0.3412794918783412
Ni 0.20871543026485034 8.590525332562816 5.2420608020809025 0.3195025052125659 1.5700441454392315 -0.6687045943720935
Ni 4.7219337622869935 0.16009730481253845 8.812724105530508 -3.129042574587263 -0.0770932427395769 2.550771134596762
Ni 2.8896163061414515 4.951386161838737 10.462619484391361 -0.19282039580126792 -1.3317347640672292 -0.5277117247650782
Ni 6.712753300418765 6.441741636421129 0.6531983020723411 -0.46324054166488604 -0.9209285289426591 -1.2717830661039453
Ni 4.7776645411433565 6.1719356640945415 1.8827747251237679 -0.5271589375854018 0.43356229787416295 0.29134455472111115
Ni 4.737969461511931 1.5931175031609415 4.769581769671678 0.6215217660387038 1.777953060142506 -2.015278223224368
Ni 9.189985956856548 1.7138907103946843 5.055441990325834 -1.057150459523592 1.7719230518983418 -0.4092453183953533
Ni 3.9836609284503766 4.461430164930107 3.26814877099775 -0.053802133422120244 -1.37135777777549 0.9791961543353008
Ni 3.5600086988980677 7.075008000260784 7.9355843422982435 0.552034617781159 0.7590806702635057 -1.7650944590122826
Ni 0.35076445821693236 3.014136432106759 8.021033565935676 1.358877643030608 -1.0575950032601786 -2.025573434502789
Ni 8.156355761818443 2.9451615939714992 0.45241354063759165 -0.26102713468449235 -0.484754504477262 0.57115539777101
Ni 3.607577872596568 -0.11189653416943549 11.176516015004783 0.5969561608841977 1.7756727487487614 0.05591198067627145
Ni 8.523720739435442 0.3192003777240281 12.487190969671422 0.00211627501205442 0.3575322062917778 0.12519729733565535
Ni 3.9353683397492474 3.7756420169893388 12.387596200367202 0.9325033782644521 -0.5226798187681257 -0.44712023906425574
Ni 2.2192981097953606 2.504889368461361 4.589099001067113 0.7709049165919433 0.009222032818900246 0.7442410341475117
Ni 7.1082201685224975 0.32356405411809025 9.491260481797488 0.6195106491459459 0.46707894157436974 1.2089347633191565
Ni 8.108666018952837 0.3547386034557327 3.262963369357112 0.19297311932904831 0.13084266854689078 -0.5772255152244898
Ni 7.196690113523471 7.2661286792245185 2.8522880920058062 -0.37004216583333044 -0.5916267782514844 0.07941134934979226
Ni 6.332116439868922 7.6698498979992715 8.796449122881622 -1.2897900442043269 -3.1426293121327618 0.0918932838668869
Ni 1.3281806702751242 8.89150307186165 10.870430780296362 -1.207621700934688 -0.05513730729377601 1.2673067755001466
P 8.598965174260151 7.796095090509309 9.675965026160984 -0.7454659076935485 0.335084675921539 0.915699676443552
P 0.29899298531726426 0.8260342031170671 6.966492040045941 0.017330006638015316 -1.373855090276047 -2.189413383911307
P -0.3227924114486195 2.932464733220233 2.979668489596892 0.9584193267992653 0.036984804754465334 -0.8649239885525813
P 7.981855078812538 4.043138626038304 8.79239057922585 -1.8147432323876616 0.6632445996987868 1.5985283689218535
P 7.27175833187318 1.9707401345331645 11.693260625933837 0.002687317024176017 0.16871578944358043 0.9092863167180405
P 2.6536160733607854 6.402148576854176 2.9967716896782735 1.284755052883581 0.5268858864296733 0.8349408119269298
P 2.330963707637034 3.3488920872975694 8.863248151278206 0.4190103682019171 2.397478107466155 -3.887416448591731
P 6.520083771385299 5.128122011711738 3.2122631071344134 -1.1010448469136973 0.16319794494914475 -0.12314529990263308
Ni 6.619683177965177 8.673133761132233 13.507757031726157 -1.014897207281336 -0.23677031901965678 -1.0204284215122101
Ni 5.848096155802374 0.218612303973891 7.019363474731658 2.5512236487531483 0.8054422882471806 -1.9096732461983434
Ni 0.524212479648498 4.574255081686249 9.811775063442957 0.4220285862029506 -0.18458232416219178 1.5787655844726294
Ni 2.084770742960355 5.0745707524145764 1.3449119608487436 -1.3333131642979426 1.6610791950708812 0.8380150799768793
Ni 8.523182815459128 6.107208570461897 8.33982493594668 -0.6649854936492935 0.25011974374336926 -0.7043004891988321
Ni 7.0871576624844215 5.6091280666006655 10.48831555626679 0.3814120982331689 -0.6036667401351539 -0.802575765332663
Ni 1.2772541090003213 0.8207903718031401 3.0114189885712435 -0.8837424068106651 1.2250486381618837 -1.4982013524653164
Ni 5.748663691146179 9.1290243310581 3.5117921615177283 0.8474834244786309 0.49896550587032135 0.6967309043816904
Ni 4.193803712162721 2.275668832692511 6.876359167994052 2.1811645136389535 1.2776989173677478 1.142091480442362
Ni 4.76269541531973 6.617216147315187 4.170306636404259 0.20116413978027292 0.1426795132808188 1.5913678466176724
Ni 5.9181653909928915 4.090577956018383 0.9778465512392428 -0.10321873618203514 -0.5478578606956499 0.7386478563304505
Ni 1.381147632839393 8.010717482507165 7.124753911153091 -0.06128738605557187 1.045819093671173 2.0730583674576297
Ni 1.6408628933344407 4.614970361962407 12.55485809607116 0.20204140017890362 -2.9290436587596846 -1.4051197047172832
Ni 3.7607470875762385 8.257216507377262 13.566397237330273 1.5806152360868584 0.2286471756918901 0.0781903324584976
Ni 8.724162342471509 7.564676486078626 0.6945924795048125 1.0309259786094247 1.5233989347768666 0.023807386832242868
Ni 3.210144799613895 0.9254759423245772 1.406373484963111 0.2193775774645061 0.5160252895660855 -0.5532008701751182
Ni 1.554173662186092 9.026837324661127 13.367304154055518 0.6130301836279248 -0.38231069878803836 -0.6960511047058464
Ni 1.5163242182665015 4.750907460597408 3.833678449302799 0.5931149327612365 -0.2684900187204408 0.2738299428761155
Ni 7.473971374210556 3.899364531541492 6.7275443548571285 2.1780951306850103 -1.272394474435699 -2.4024434218912303
Ni 3.914593344801959 4.686968703826602 7.718993890511187 -0.6968445471414192 -0.9741339093210449 2.2600991804626434
Ni 2.4540091799431365 7.340927935586071 5.277557292331686 0.6041423942199918 -0.42751583456976694 -1.3963758970863822
Ni 8.563675506503708 3.8796932082007785 11.814220251649028 -1.2661616061521097 0.4880745699894304 -0.20878874620506624
Ni 8.503734081349993 2.1506849791614155 9.966820520153805 0.25347811869264086 1.2135835749450778 0.7496794315542636
Ni 3.6173810733373197 8.530194376253837 3.20945291808574 -1.6935368013789545 -0.9099499184439683 -1.1198403823536456
P 5.37435207459368 7.589170576103531 6.228392640318928 -1.4986602943796061 -0.3363350033888724 0.4263027880982723
P 8.819133747944825 6.978292979140106 4.170238004724522 -0.9594156292742638 -1.9749661538688825 -0.4302180639922784
P 4.459324841781431 2.310717362114744 2.5532876870474897 1.0863913586665805 -0.0974466095849483 0.7830294677696192
P 2.940218258120203 1.7963414715917339 12.615100944142638 -0.14383522415181682 -0.5500695236349882 1.2644417952475255
P 6.551042223677285 4.825697442407645 12.61173428201502 0.5715256366262351 0.620492296332925 -0.33302985027503934
P 2.326892179609418 0.17424748775498372 4.650915740496874 -0.41750061642561 0.9240822440802925 0.7852897245587056
P 0.9204917984474911 3.977706666505662 5.828861663828631 0.2860761072333202 0.042958505839396983 0.31664678093132564
P 5.359995069156893 8.283111054650847 1.6730251823872109 -0.3556797264640713 -0.16397776053796276 -1.4264521476464722
Ni 2.5356530551757155 2.3027134243292484 10.443113248064067 -1.3374906927143997 -2.3946195549714373 3.1372922161905645
Ni 3.8290912562220267 9.308588919082405 6.094672159448392 -1.1583017716536372 -2.2312061515773767 0.612226713890023
Ni 5.196531102216737 6.568357810983796 11.767186219561445 1.464421170691078 0.6515969881575294 -0.6442654874931227
Ni 6.1598045509735355 1.1831081385941067 1.2409182718554619 -0.5513327066181279 1.4605665728316783 1.4628211731938097
Ni 1.2576291584161867 2.645843999358184 0.9502454865235602 -0.5740095793903534 -0.2531783280640349 0.7700392261575383
Ni 6.714376346899021 6.188240325307636 5.586438804261807 1.5993526645953617 -0.9972681813456631 -0.6948532277430033
Ni 8.467247996473818 4.6315903579202375 4.5767731223684756 -0.6187048654151991 -0.44472731335204696 -0.5605035744841185
Ni 7.740410684409525 1.607919687060884 7.417659080986694 -0.6066687601862714 0.07473065604467129 -0.23864413900360193
Ni 2.961030351272754 5.104555376818407 5.759334062434953 0.5251871585710116 -0.5991032891341876 -1.4135837763242363
Ni 0.5889534851081161 0.5331123390910952 8.923639392170736 -0.4492591397841295 -0.19860692057605794 0.8948925098902136
Ni 0.8613841554570619 7.806677353560585 2.725205407511956 0.5651343883879106 -0.476784598897908 -0.4910855889016123
Ni 8.869494561589367 5.448891643518391 0.07457388476457988 -0.5466504706511102 -1.6470533131054343 -1.721000554016862
Ni 2.9228099253005335 7.031751492924109 11.52320245300818 -0.6529223918371723 -0.2520809812347981 0.08580748268412318
Ni 7.858995097532751 8.15017891064215 7.10880446525539 1.0225310696775098 0.07772162035219517 -0.37550653138201134
Ni 3.4620045151445 3.52809496782056 1.1014995066565276 1.7652734077923082 -2.013884942421267 -0.8376708092635832
Ni 5.241670343470509 1.2979549075370833 12.484000524018803 -0.18149674325833257 0.9826152073191786 0.34185361921425644
Ni 0.25343917161967733 6.24410094788242 6.030873448402455 -0.6244790488948149 -0.08083831160430593 -0.27521371059751953
Ni 1.3629509631578844 6.9516286441073145 9.323482921040373 1.1304410406876273 0.18044310518283763 -1.9590476828664134
Ni 6.119321134480271 5.190873625914127 7.734386863329942 -0.5660273325158252 2.695602404113261 2.5132723663203556
Ni 6.910134301520632 2.9241732843439494 3.7298767435217526 -0.8471031583210766 -0.6798899215649516 -0.15951303989838977
Ni 3.7801772725827423 5.91427935399159 13.452047584337821 -0.6806797644560987 -1.0482228180166593 -0.023999962459023184
Ni 0.6147831105224898 6.519944653115563 11.244143260833864 -1.5597131958268686 -1.0103939200943437 2.6071577409166067
Ni 2.274565161085936 1.4745330900377158 7.1871410354887715 -1.5079216650768739 -0.48516999474812567 1.3367191046556977
Ni 9.265128371616784 5.241475577892878 2.259310379081785 -2.2232074496426164 0.5616214901386457 0.44172272219776826
P 2.4978870822179666 8.76541554672398 9.034717910914122 1.8074353858723387 0.802815906367927 -0.06944652482759653
P 4.332476803435869 6.244740891923207 9.673739133845203 1.8865502870276347 -0.18103240202740437 0.39542949555818346
P 1.5415695469479829 6.4491705520250475 13.312273603823492 0.10131843383552873 3.4511424082133595 0.6386568830570937
P 5.765023999667169 8.86885461754858 11.289724898185398 0.6913943226601253 -1.243898423878535 -0.3241304909028805
P 6.868166956816847 0.8189762695657786 5.119254613198745 0.9564971700758882 0.8793149671669308 -0.09122608259653321
P 5.361274957238467 3.9318161865953134 6.126218618293796 -0.6735485527279561 0.5133945368114577 -0.7899076829466912
P 9.286422741437754 0.33276255411305455 1.0561617900045979 -0.6908497630105651 1.4580900862667276 1.4059619981129206
P 5.882254328298294 1.9785771303949762 8.454514037517288 -1.2547783040158325 0.6417938860241785 0.9436529671233683
