# total energy = -340859.05867162347 ev
CRYSTAL
PRIMVEC
9.34825701474072 0.00000000000000 0.00000000000000
0.00000000000000 9.34825701474072 0.00000000000000
0.00000000000000 0.00000000000000 13.68211907737520
PRIMCOORD
 96 1
Ni 2.6440236830474753 1.2776450126909749 12.699332613683243 0.09476726298057228 0.3298144286615352 -1.1240328231684382
Ni -0.06076273719554896 2.816209233041293 3.7785496819624393 -0.4986688005655089 1.9793113182114557 0.44791882370615116
Ni 2.8972399267459688 4.896617139191149 7.338746510755022 -0.0612264509106494 1.222883769300081 0.6338345219677858
Ni 3.6148869380888975 5.903574015413206 0.8900821598048955 0.10457319332740055 0.23629697892766405 0.8512722020971016
Ni 6.176010275984889 9.345265791727009 4.697359036247545 -1.1402148322449395 -0.9871840576367837 -1.1349307010278649
Ni 7.94077427662732 9.069408069007666 3.1123124764524004 -1.2097742285013167 0.28851377014053536 1.423656072958574
Ni 5.173979931325172 2.2015706681602722 12.593242046811273 -0.37920943415489533 -1.0843555591834744 0.7872553329255088
Ni 3.267028938152964 3.5998175474276217 13.594581555261394 1.772093258927619 1.5953147470805622 -2.4459788832800196
Ni 7.2490686791088565 3.7571206719048447 8.63228169109242 0.8647980044976783 -0.7940294184245487 0.5149899063230357
Ni -0.0519819191756134 6.678768898288896 3.2539497914568165 0.3488976705452314 0.954367525327395 -1.0536959253160885
Ni 1.4954687545013854 2.829923126403633 7.802776238164116 0.20213781654745186 -0.4139074997577129 0.26623798946147054
Ni 3.860605879485689 3.458901917881674 4.7592837618172865 1.1412288753317508 0.36948063690290556 -0.511325570097571
Ni 3.3010565944848764 2.624962586547264 1.8141667356471716 0.7384123432808766 -1.632750009108885 0.20318631241662427
Ni 6.597794294127626 8.364568170075376 6.580484126207351 -1.0617144247451906 -1.0701946943020602 2.943642639619782
Ni 7.6186426805994705 0.8972859268294482 13.71673523253862 1.05512237334997 -1.8168067997849096 -1.5385249917850277
Ni 7.265568353126941 1.9881312589926277 5.036073505782862 1.3688434959940685 -0.36839126049346876 -2.269815636419459
Ni 0.3797729501329523 1.2769065003694855 2.237136112807185 0.8735695800427213 0.0737001578976279 -0.919272481396475
Ni 7.808543178051797 4.881622534587745 3.7851719873870344 2.1022560720675085 0.017519754051318216 -1.1083089846752785
Ni 7.796932642567117 7.148275769611417 11.069505097259869 -1.14968523362922 0.03252599765216333 0.0032010234358009386
Ni 8.463024015264304 4.623676072728827 10.652829901695535 -0.5765593423954006 1.4383908080655874 -0.27444340809039836
Ni 4.37903218091395 8.79606502748428 8.978234516204056 -2.738940404779264 0.45484177607822956 -0.0870495826213404
Ni 3.0924408860499972 9.170060754646595 4.775730150769135 -0.7365722047483444 -0.21005244340883825 -0.07687701296371276
Ni 6.660698717055494 8.199347071720918 12.895137470404594 0.1670700263100413 -0.12249712479567293 1.3685272503052304
Ni 4.678606432236057 6.78562882673123 7.729207323383654 -0.762694612867009 0.6355404489152989 -1.0055047103228425
P 8.121120855186456 1.7393273927086024 8.792553822067175 0.7475559574533577 2.9841835371566217 0.9294658769897088
P 1.5222328149624473 2.6598876755736445 0.40662581903773765 -1.5540868507790269 -2.133199298613584 0.38690885968168204
P 8.392117484144096 0.25201405781819525 5.916038981609078 -1.2056352666322785 0.37255336229095837 -0.7281675256244169
P 8.376907869624311 6.473574652001678 7.358407765369658 1.2069151617859666 0.908939474901583 -1.5890592530891536
P 0.3405065304470827 5.12404154118092 4.702107016096715 -0.040179914652995315 -0.4276045376288313 -0.10483416029827107
P 5.327216563905586 6.5208674853486945 12.897654956077718 -0.23900537899776259 -1.2987207710350537 0.047008764649370656
P 1.3156456783473554 5.299115702660057 1.1323674863196234 -0.42211446104853756 1.202980859728567 -1.214190355291141
P 2.591897800710458 7.188276962315883 6.274975601193074 -2.3387713376535655 -0.0199918697408946 2.288364860176556
Ni 9.363027480471688 9.563360632997206 10.655648401251598 -0.15725766820530984 -0.8844656581299347 0.28780131745454307
Ni 2.2111526318251653 1.423786318030752 9.840959936039251 0.5958449300978899 -2.935831371105479 -1.1351078500356773
Ni 1.5405180061122332 7.42360064166842 -0.24287426672047244 0.8915048243649033 -1.1286716074920304 0.7579190458552366
Ni 4.328626377907996 0.8138396434554965 0.5925888305430864 -0.1105540935011838 -1.4281128231783469 0.7265389888820585
Ni 7.40139853073757 4.912630703833062 12.912157842350611 -0.04013080658261476 -0.40242443881877793 -0.8803688623527418
Ni 0.6371407548690833 4.170257552106093 12.642511101737567 0.051516679822053206 -0.1600303458544405 0.12730688747949043
Ni -0.16009825339020162 7.202476965054392 9.392761482256006 0.9231628175898166 -0.5552186719360954 -2.0656960135552875
Ni 6.716227365025702 2.9888434993823454 11.112207001479247 0.25011203043388536 1.2774739458411355 -1.82300572950677
Ni 6.2337170678906295 2.2556596845164387 7.022703434663703 -2.507113031587179 0.7418190549695806 -0.47949685562274835
Ni 8.828241728883853 6.521886445387206 0.4477646946475859 -1.028241746909042 -2.219351823341952 0.9670124677849152
Ni 9.175090117038511 8.513869186360258 1.4614962528871536 0.42992804355568537 -1.2419819235821126 -0.8640559841253312
Ni 2.3238458727815403 2.081997109879642 3.7475602092315903 -0.30635336942511754 -1.6318791764681573 0.38126991622834977
Ni 6.063859233948088 3.9875365162095098 4.560523920984257 -1.7223264719171372 1.0106353466811886 0.5790422567182544
Ni 0.9523443574607848 6.159015144333401 11.243582734517856 0.08619469082021285 0.4968795698755701 -0.19009374089872422
Ni 8.385040853417927 9.204471689525104 8.185437799782388 -0.38007486747898417 -1.8393576885022325 -0.4186956651749757
Ni 5.368881746397712 3.8098448427048415 1.7023980373312433 -1.9098881904226266 -1.5993657772214842 0.19371642525297605
Ni 8.48947023497941 2.484832210608976 6.650591381334047 3.8447351076731207 -0.7751906884514908 3.3329480245580982
Ni 0.23965098762617482 4.763862538210519 8.023947590890037 -0.09979222699898942 0.6267434194489593 0.37925519979116623
Ni 5.5015054717770635 1.987785373474968 3.874707725523241 -1.3258150561486843 0.010521725466930266 -2.1334880334985966
Ni 0.8989078494595545 1.4239358901464967 5.393354549010709 -0.0884156097309316 -1.1515744802321328 0.7981439548135544
Ni 9.54185964135891 2.5647878547317364 10.380350639140575 -1.2997407276591357 -1.0338027859365875 0.5116649557148607
Ni 6.7986976903444205 5.323075285950906 1.4386752873274105 1.8345132159257374 2.4546920947833013 0.7453635777877292
Ni 6.031607746490644 5.581246105983442 10.84707453428452 -0.928990222904871 -0.9129848486155502 0.719112100290368
Ni 6.187190791636803 6.5041341048997605 3.865130435986965 -1.2555732891133022 0.28094932752971613 -0.9516796940825868
P 4.47739454353054 1.4811004831326628 10.487453622270994 -0.3984852516653718 -0.6218138433578259 0.9625775719420132
P 4.8332639999160465 0.3393707171931466 7.0377672163706375 0.21297964435796224 0.3484366717484128 -1.0478296963432985
P 8.154625009113262 2.405521596235365 12.520945429840362 1.4102313149122359 2.033113965854208 -1.0274495900250498
P 4.7090443577900984 4.037979712244399 11.735030900394397 -1.203084989406599 1.5119670387908415 -0.45018422270156017
P 1.0370863092873746 8.672873693654077 3.4686904780314394 -0.006474037760117882 0.3981391811798627 -0.19889822656423167
P 4.057648445464824 0.8951778948231718 2.9046596385126278 -0.7087718947066245 -2.411297272737434 -0.7397020086265778
P 5.965702532990648 5.732052191683006 6.066200037559492 -1.2622681846349746 1.5313680690252722 0.00682447912100115
P 3.318313477338918 8.491134224767068 13.025925198063177 1.353944981615681 0.8993852555542446 1.3009602018885336
Ni 3.0168041367693648 5.6946124214606675 12.34876922810378 0.731662683261869 -0.0548521719531894 -0.9722924852369319
Ni 4.168948796093327 6.871062549593139 5.208563808962509 3.241804988593675 -0.55948670318383 -1.4709062641947894
Ni 4.179531023282262 2.832176056397037 8.826294486902002 -0.8109565331971903 -0.8997583226229473 0.4308996634403353
Ni 6.471293677236571 0.6076600908558089 11.18026137931735 0.2112678038731781 -0.9758760888231323 0.8913361599975229
Ni 7.531591709236072 4.4131720163326715 6.34123791811941 0.816842302554006 1.6480773834945746 -0.07770516529196295
Ni 0.5702464957537263 0.4063481757978866 13.428986526617576 0.44023482479833215 0.9648290869803511 -1.3867949382661664
Ni 9.012430441166181 3.6362944471548535 1.1342109626461763 -0.5491611528881059 0.20165264938091726 0.42605544797415656
Ni 2.1629717140409133 4.20369626823226 2.8340597302296966 -1.376224618949488 0.4075594460524981 -0.18247299112867285
Ni 4.6468784471837195 7.814086694591584 11.10273908655261 0.08098692136702826 -0.7477994409227314 1.632992464136994
Ni 5.168959917190492 4.702051861379034 8.405322832312903 -0.1270898863726779 -0.6416231647742692 -0.4491308417363813
Ni 2.1960458481349536 7.010959219100576 8.657046159331122 0.10064120526284602 0.6297276988882637 -0.8825417016343446
Ni 3.5056151592801816 5.544713116712805 9.930947194999861 -0.27506175840068753 -0.5587829922485861 0.204509402103422
Ni 6.815290846934845 6.123968527962978 8.67119381182912 0.6855239799222774 1.976930476684105 0.9833101765036742
Ni 4.276397664741404 7.827258389034349 2.8321573598825687 0.4697703723636039 -0.014123326775259548 -0.0456368240025085
Ni 2.315684844216222 8.852808948894916 1.683448185092117 0.5518132457989722 0.3822045122274772 0.09238050791595058
Ni 2.567938217419609 3.197216153129139 11.02343688561051 1.767152369982576 1.6540693394119512 1.713229137601559
Ni 6.418410586063596 1.2679789147109757 1.6090856032724836 -1.7554003716529705 0.6628895303522133 3.0634460196333753
Ni 7.924115682236257 7.468967734025226 5.035225618851735 1.5334714885215204 -0.44081100901677633 0.5366010568349081
Ni 0.696013274451909 8.398343423461968 6.458329514104402 1.0727411148729977 -1.0173914344580992 0.8238444449034522
Ni 1.854638145690509 3.8332341823044143 5.4179273779761115 -2.606524478207982 -0.06997488652724078 0.5919725916266774
Ni 2.6024239383559893 0.6796201705662932 7.248321753355857 0.4792855109428907 -0.09295489236218185 -0.05810667433474509
Ni 2.227558823270909 6.115087683590638 4.057281993781249 0.12252180738602125 1.3088303486652297 0.8516378129666364
Ni 2.2578004354230345 8.329231757730698 11.280387758074003 -0.9604024186675653 0.35834570333200866 -2.022236399709756
Ni 6.10472981457532 1.0756385221205633 8.913216452315572 -0.19624896186684268 -0.5739841254690566 0.4024470645265972
P 4.093452270671205 5.304032885965163 2.9940448697073663 1.1150815275124215 0.8327067803900885 0.6839669198478027
P 9.029238607672989 7.925013114930725 12.5551778130057 -0.033357492414523196 1.4429342044618954 -0.4085367223641028
P 1.2137216297245965 4.368590177583526 9.973265820672646 0.315609855026379 1.8998189791120832 -0.8931822120673263
P 7.2953892937035345 3.0869160660246786 2.48435825396721 0.2118586433796416 -0.061600289310300364 0.676949350879389
P 3.50655933326082 2.8769822533197997 6.811205658523568 -0.29287538954334075 -0.501428108478201 -0.6438147731089492
P 1.1415250391060907 8.99751062262065 8.73870131661903 1.019460401171986 0.2928347661133925 0.67693932357706
P 6.673889108012728 7.667496672904573 1.6764285787350748 0.45549483628119625 0.17241843510614824 0.40889436281383773
P 6.24317750421148 8.236758797171555 9.675543459108603 1.7415709219690458 -1.0316250615589782 0.1207821989870952
