# total energy = -340877.0366913008 ev
CRYSTAL
PRIMVEC
9.16265962298170 0.00000000000000 0.00000000000000
0.00000000000000 9.16265962298170 0.00000000000000
0.00000000000000 0.00000000000000 13.41047853405938
PRIMCOORD
 96 1
Ni 6.411360202625918 3.378959735330169 4.580348399640513 -1.3536580465028816 -1.4937428024733308 0.0972424639939422
Ni 1.906960170825356 6.603455357805084 4.272189837323046 0.8399593481874437 0.7964128310550607 -0.3523594038415867
Ni 1.9712728774412667 4.485598254627766 11.539380914901782 -0.6897632148146056 0.3260320788009675 -0.9319032827866081
Ni 8.058907159359572 8.049524596092056 5.761516907096608 0.4292613565059639 -0.46346679874307917 -1.2766344806589756
Ni 4.233258613624464 0.4336136953827263 11.703056249293008 0.4165943025612567 -1.583267586108041 -1.579606592316686
Ni 3.0808159597816407 5.519952553595842 1.070753879863127 -1.7367493322106864 0.46636494622648067 0.17791879609908715
Ni 3.7609601700821176 2.667149374001826 10.752320380382887 -0.900079967628424 1.0594780792155045 1.1738764861634428
Ni 4.199558352200712 3.6659525543390803 1.8738060039042832 0.3553547390244847 -1.1048896745810841 0.02034385376367464
Ni 2.212360772651103 6.689538543252652 10.487906186768324 -0.35368017953553926 1.304851823633456 -0.0860404246305357
Ni 8.474717807448565 4.07141855991926 5.211445810219619 1.672017953470572 0.35822074771837015 0.9060549542649364
Ni 3.5894809986450515 4.9394705900343965 8.070627117050469 0.17421306511272577 0.43631877757337756 -0.6955908772399763
Ni 2.1157588541653434 2.3950000632872257 7.098353500858493 1.2824433740312686 0.38658412935241165 -0.7892571938468859
Ni 7.856797217411465 7.91732574567827 1.6468469295523658 0.19729231552969248 2.0777310903429504 0.30440653011139185
Ni 7.799338180057372 5.752849031265485 0.5777395795907745 -1.0480243288526079 0.5511642993610636 -0.08865986453125377
Ni 6.558778230371093 2.6306728267674706 1.8679858826274023 0.8645889738106659 1.512366845332421 -0.1685314413469162
Ni 8.678165497675048 2.486846561523141 0.4891870574238748 -0.8321329101644895 1.4394591014291016 0.026263561682219282
Ni 6.579101009011083 8.387278548403737 11.184888616323406 -1.4590285389205968 -0.11459921010483488 0.15992415929387943
Ni 2.0014088643424963 2.2630027913811412 2.052406394258843 -1.116730375969754 0.2928355374443408 -2.2211222849788133
Ni 0.09537870345039494 7.6474854251427855 9.284717976143781 0.17877137390736952 -0.6954798055834087 -0.05781433990530688
Ni 4.085629844712147 5.169480829980144 10.583790669019859 0.7147864763318206 0.5496491482681178 -1.5010143964340796
Ni 2.0278706248079112 6.87438603481404 7.015825427274007 -0.1090757091834444 0.057930810878513136 0.012333581864688437
Ni 8.447816239329985 6.355257238869084 7.497128016248959 0.2649349543793308 -0.42432818087040464 -0.7757118510622834
Ni 6.7007353130894725 5.8727607553689785 5.0648826586002835 -0.309187496439803 0.3622422101729374 -0.11236646411957422
Ni 6.663452451824315 3.1130776836731666 11.243224520185995 0.7087670096106181 0.6232865712486104 -0.673050530045615
P 5.5011782644013705 1.526453249562279 10.203631012549593 0.03699817449090402 -1.1352808852784317 0.544468889618759
P 0.40666356516910923 6.781137649683662 1.7564644057739711 2.8568149432012606 -0.5930827939717206 -0.966440397331529
P 6.65692863830237 3.935536320410219 13.357453210224701 0.2918040108560329 0.14285794784021202 0.2436487913070449
P 0.04041007693234802 6.064581030764916 10.891386644047653 0.7995968852099972 1.1699164730744303 -0.9900202415339981
P 2.457205358231722 3.551657540472879 13.3816994396373 0.4764876364827794 -0.005850802353822181 2.2492064448095395
P 0.23292854697768525 6.155703678904998 5.46611093418903 0.40749439714251756 -0.4966553696799059 2.5725828311552146
P 7.8313983254411985 8.670972810013915 7.914086745565901 -0.17304989804256005 -1.3635449665992905 1.0087304163489916
P 8.641432395976345 1.3052116747015041 11.920533803655447 -0.2112768027342426 0.4466633540324953 -1.0784330230514523
Ni 6.002229133269365 0.1782008984029349 5.5563365579698445 0.2784890389146817 -0.19932888634374704 -0.269859902484774
Ni 0.8911721686824435 9.016441721574862 6.511484247400772 0.9317814124967629 0.7569404839920513 -0.9427852198064344
Ni 7.55544651105861 1.3690662483453682 7.025951082222182 0.22039470587511076 1.0038872293240775 -0.6842358572384732
Ni 3.7123889123857303 6.626151265240275 12.500805026049752 -0.8505983159585288 0.4905513136646972 -1.8972252502429778
Ni 4.382948980910991 2.7004098277724142 8.414994676946616 -0.05530468610957572 0.18816824174123722 -0.08529429049313053
Ni 4.059708681153747 7.303949834723874 8.464560083192346 -1.3013234987652234 -0.6446989754861155 0.00020440270132222863
Ni 8.01833490335512 0.5944971674422973 9.855602053940848 -1.1839212719939547 0.3335420140247675 0.004591733135740479
Ni 1.02605292951459 9.051708797763014 10.838375161586189 0.17756912606915226 1.9380829076892878 -1.3753067351209087
Ni 6.176200548074366 7.476162018916216 6.99903577011444 -0.7667366441468666 -0.8241673754605097 0.2755289278450932
Ni 4.364165529057078 7.931023921542466 4.239427832226045 0.9660053666766397 0.16957685189229504 1.5620598416821743
Ni 1.7716826668394172 4.3572110705414095 3.0425554427541353 0.4194667390130454 1.6786686260178703 0.6779901334390774
Ni 7.206092631894707 0.40404212830305825 13.21173485580582 -1.6637112333770898 1.045642715994309 1.4548042164266042
Ni 6.1043836233763304 6.815451809289957 2.8126872240297223 -0.29208271843871636 -1.3522398259991164 -0.6131983337746729
Ni 3.6167032598440643 0.30664214217999347 6.909252702784623 -0.9628747914674579 -1.5916568386130006 0.12207469254627362
Ni 0.5522563911536509 4.715471054681901 0.9179161390586396 2.183912765808052 -2.1525674187275508 1.021357618194699
Ni 0.6111209804659826 1.2160315103629005 8.421874001654869 -0.1707755001860865 0.6226060002418181 0.9311658903999511
Ni 6.671543080110659 6.812867939327614 9.290162428383582 -0.5969147661233011 0.1808493394823208 0.21855816688700425
Ni 4.506690696660796 8.15814792376432 0.6268954149594932 1.0990409291097911 1.3564993726064187 0.7274483880702053
Ni 8.66071979409951 4.512197454984796 12.080574311046453 -0.5027488841721536 -1.2644381957030997 0.8104572249632687
Ni 5.3573428364976 5.84431069780488 0.6199372913800486 0.26631306567378005 -1.0378458456577093 1.1137093297552432
Ni 6.836901595041182 4.595623469194494 7.1123009010594815 -1.7574947922881536 -0.020149478364681426 0.7182662073503049
Ni 8.966166209222461 2.846251878093749 10.339934734392916 1.3917823641784288 -0.5344230753469829 -0.6412398132929215
Ni 8.87338511972357 3.3715379811830126 2.998649811245072 -1.106202994075869 -0.7141748108897507 -0.7981290424152189
Ni 0.5924474805253606 8.758751087458055 3.9056413114522863 -0.1267276179372527 -0.6734878746933498 -0.6917702179423053
P 6.930727227716339 4.681349310923865 3.053659669730603 0.16581969884270797 -0.002267198767621902 -0.5547746424201413
P 3.9212059210445998 6.973489359327174 2.4642963403730604 -1.1803227560094187 0.506756719779966 -2.1683215962380142
P 3.383403625159021 3.396506228159556 3.9521079062750912 0.46706325784508596 -1.0540782483561717 0.43713690259929877
P 4.735124959182703 6.1951764157765385 6.126242063738621 -1.2671075150051467 -1.3519822014623553 -0.1468732396471922
P 2.0627253813212216 3.0949722686178824 9.15482353457939 -0.10445826501609108 -0.29569588971127136 0.977830898556658
P 9.016185167110516 1.1604233302158766 2.507759415431127 0.7694221613988297 1.2011024117589313 -1.0962548817242217
P 1.98180993579834 8.551757448027931 8.400551576869873 0.1518506382571256 -1.0044271609879476 0.6276703021386029
P 5.115613555126898 1.7312661760454606 6.706030413980388 1.8777601995398305 0.6795327953358491 -0.41220722923715464
Ni 8.004948257911915 1.2848797334020732 4.485067736646137 0.5210039737275995 0.4764863509311988 0.10609014419255922
Ni 7.817443595112656 4.817909587231535 9.621200151325061 0.022707468899844766 0.22580302137487562 -0.0034288231758908693
Ni 6.048692979294338 0.7243311354543778 3.1600454759673906 -1.1012515636078648 -0.1242380187461796 -0.09357247134152273
Ni 4.335605519579689 3.609913729198333 5.982387394250025 0.03825030173045025 1.045039278082355 -0.18521841508429393
Ni 4.155916605283546 5.44943672653842 3.883044360739057 0.6139323837272201 -0.9794833465584163 1.4632240650591832
Ni 2.132343267753433 8.119710567409605 1.2270496083406228 -0.5372618303473586 -1.7875070223795277 0.5440693401874952
Ni 8.933767045439321 3.8758324314930985 7.636020189384345 0.2658006448137358 -2.205200214431918 -0.6520029653466964
Ni 6.322858075085944 5.471307994623928 11.695318383395138 0.18104062955752045 1.4649456757359802 -0.38136453282468513
Ni 0.45894386740718635 0.48000882146189194 0.31243019414883105 1.1062418177336046 -0.8664324547773078 1.4736725140860167
Ni 8.58197589886413 8.003857901438444 12.276796328037815 0.21443745985041135 -1.5262533735065262 -0.7454643650316516
Ni 1.208820497382886 5.08588988790051 8.818260727995028 0.7077635080467681 0.6413704253335148 0.990554002550281
Ni 3.106068249200853 0.35465081258670744 2.721603059059293 1.3241492384104872 -0.3250506887243047 0.23558658312420072
Ni 2.1125885739987806 4.669392040353448 6.204599294745594 -1.2757050268661707 -0.23629595048639948 -1.2629824370931797
Ni 8.705662638657287 6.044111649573871 3.513585774229857 -0.9222912136181407 -0.22762721906780797 -0.8285981575383536
Ni 5.476998006136747 9.014609189686675 8.69762057246598 1.4360966127147718 2.069747300806526 0.7390990849352561
Ni 6.844185909296724 2.6097453126043795 8.92846827948463 0.20430988449810616 0.6958029932507823 -0.7917385655078428
Ni 1.5297884575987786 2.1742532720362617 12.096948899733343 -0.470516506501009 -0.6684734521978939 -0.7180438069268538
Ni 4.4577712579056525 4.176715842214465 12.598151868748058 -0.9619589645214078 -0.023441261742075756 0.9196332071700033
Ni 1.0808547956308119 6.567510244818303 13.019938403324428 0.778078551522247 -0.9625649735365228 -0.7040238384986778
Ni 1.8626495497690028 1.6986012951385334 4.314405874431202 -1.5324983259749736 0.8732705607450638 1.1416268821011177
Ni 3.089474672953323 0.9980793302414207 0.11557503739010005 -0.3258937534508904 0.7013522052037856 1.6620994088052796
Ni 5.49459947492278 2.1422847532468454 12.881676621158578 -0.9974558718764371 -1.5364429124450183 1.4845963600873722
Ni 3.091664548559706 0.9266105866021411 9.285938442381312 -0.4644263344428711 -0.4278904443003663 0.5760412651084015
Ni 4.1840826204049755 1.4143481113024603 4.691133198674894 0.1455936016038202 0.6830642055278752 0.0043266523998119035
P 4.931114244624265 1.3122944104493455 1.4608705983478552 -1.654792847841537 -0.34657159351521605 -0.7748489888413558
P 0.28822611296966166 2.186961880680836 5.9768485666179805 -0.48298095751660697 0.5243950016870194 0.5391158528369618
P 7.2195067653162335 8.304310667166087 3.756542851965644 1.0466343904836168 -0.26990541101072874 1.8607101860360793
P 2.6481643436402127 8.881539886626001 4.997656226282155 -1.2027718290415546 -0.042088701639933966 -0.3905096896590629
P 5.542850039538735 4.5378254134410865 9.079081326576858 1.2353081111063628 0.37134288692262496 0.009798731257976673
P 1.9597737398428954 8.47194152163796 12.505217762836503 2.3892675466309043 -0.28768150404722714 0.8251024856802693
P 4.752891355838672 7.426775284529585 10.539174015138178 -0.4907004376480516 -0.5085474931318016 0.011495916454741491
P 6.537264306003782 7.421662520561544 13.359062173222531 0.036779887832510856 1.2581197096842398 -1.510868920630656
