# total energy = -381167.9311894592 ev
CRYSTAL
PRIMVEC
9.21663710391218 0.00000000000000 0.00000000000000
0.00000000000000 9.21663710391218 0.00000000000000
0.00000000000000 0.00000000000000 13.48948003353577
PRIMCOORD
 96 1
Ni 1.9280836155491732 3.378321463819037 2.6034962941200495 1.9502025737709574 0.36458062849812695 -1.0670414933850592
Ni 8.569583095850511 2.2894863896601225 13.156303380320141 -1.0413435743983228 -1.1173764941941855 0.4253049429613772
Ni 7.8574780633060275 5.12757466964479 3.191826498680166 -0.7985566168709408 -2.027409459270263 0.31187275658145003
Ni 9.276729577633196 4.117864425021287 1.1783479753739237 -0.48106265744797144 -0.11320824329457922 1.8696946489228767
Ni 7.683901136731726 0.9555256350907522 2.1658710094976503 -0.42799380264745 0.29685879967112094 -0.4621712198601073
Ni 3.769208260024777 2.5781606803856416 0.3378293813907726 2.010459975900118 0.7768392797985073 1.431553987649412
Ni 5.665116595444875 6.01792946377516 1.8776815138837868 0.8560297713867451 -0.5716097116996092 -1.6494768349452622
Ni 6.815316039440336 5.7149140857162575 6.943561858083716 -1.5798297640710857 0.18358627879750963 2.2736414379234517
Ni 4.569055677796646 6.487489474298227 12.81252373801521 -0.4850740926002097 -0.362139366046486 1.2107031680734892
Ni 9.003262738128809 2.096296459329112 4.659481947748634 -0.21668974621969778 0.5366295960799984 0.8884320989768505
Ni 2.3469336887275905 7.12669090735231 11.835966658717485 2.2013291615122865 -0.28196131373399824 -0.010527381893885095
Ni 6.944846657295974 3.79907016424082 12.209692998299815 0.5022907135888124 0.7359844505656744 -1.1590041970373008
Ni 0.41743347605557596 7.1301840128146186 12.984096967683163 -1.1238798425303418 0.11338899184681762 0.4706134370901895
Ni 6.3226591363353535 -0.06749527683794004 9.618646537579467 -0.4001394994393431 1.1911473574287486 -0.06236467828015066
Ni 6.604927864273789 8.300383559325146 2.4174630825000745 -0.19316878027962214 -2.508952913009395 0.9243720074065693
Ni 0.6182879618020383 9.470739788666439 3.5506734993222544 1.500905381660041 -1.5198137885287697 0.4741605310114995
Ni 4.386013264916827 9.237651036313435 3.6659551962155463 -0.8031082407973652 -1.1526157770124537 0.863385697531184
Ni 2.170628637570589 7.0735569944493815 1.0482173544428337 -0.6934596898295863 1.563496831239017 -0.13194361492055343
Ni 7.891570403952676 9.207042584491992 4.571867673776991 -1.8864842096763899 -1.1777403399942235 1.034766178291121
Ni 2.5913220381697495 4.997739902764729 0.6168520097412792 0.12389143404003825 -1.7740035885764547 -0.09837529204680477
Ni 6.071865224106111 8.044750912616454 13.425971122010376 -0.3314558209197001 0.0227977146208059 0.5882455204840773
Ni 6.948874327710299 4.111661628250484 8.658546685494139 -0.1064009905647587 -0.2571188007690217 0.16806607167472346
Ni 8.835105194171494 5.761393586630302 8.313094223554883 1.201373406032131 -0.0358594329007705 -1.098216890546599
Ni 3.708553571245216 9.10083927514586 11.257186733524241 1.1578541425932576 -1.4144540947443318 0.7470815889201003
P 1.367426363892967 1.7632164110378843 6.265755618857005 -0.21189412460326731 0.32720141651872037 0.555769659343559
Ni 1.576146327743741 2.7749819657355177 0.0673468889805702 -0.17916346713946563 -0.3391848141328416 -0.842729197623097
P 0.7903303182985709 7.630942339933769 8.646136483633985 -2.0536748207246953 0.11512062982594368 -0.27907087956008064
Ni 6.4108439201437175 3.0747899540823265 0.7638988464125314 1.224155436923653 -2.5197541173899567 1.013607541935635
P 7.2461200909422745 6.866606624922521 4.386171791075012 0.27266111937899495 0.1525720898041824 -1.7477006890158677
P 5.322736960315996 4.5947885285902235 0.038157799273098585 -1.3344470207920696 1.1627266401942105 -0.24103526494359775
P 5.002541770695766 3.944554780922992 6.655642409936991 0.24917023534590638 -0.378952838059399 0.4943938273392388
Ni 5.748121629200949 5.248884047203913 10.781439594513447 -0.27615679123707926 -1.0108646890831752 0.15073683636765653
Ni 7.205133705742045 6.714992944566378 9.526621181089984 -0.38041425309627386 0.5784601589625392 0.2961851706428641
Ni 6.40648445079366 4.392050162219761 5.112108230921043 -0.6098643843054335 0.04353006207215084 -1.478281730723254
Ni 2.19716333579219 6.289433159576454 5.4113457094311315 -0.4891040396952093 0.143411763461153 -0.850908905220412
Ni 8.233747273065273 2.1959375230573954 8.842974358930647 0.1882867695969725 0.18370120710881913 0.771196479690433
Ni 5.672784837515167 0.9946133930476158 12.516133278706459 0.38259249169451526 0.3560972736174641 0.13094499845270996
Ni 2.6751750025393664 8.372669644129598 8.704397611757711 1.535644584913439 -1.808079704324557 0.8370822837499649
Ni 8.341176395146197 0.9985765470022141 6.939244785264336 0.5344883813672795 -0.12541944064879046 -1.6510873739654919
Ni 4.568299913554141 2.1686009774077712 5.418225007365346 -3.276541620743912 1.6276779939026162 1.0626677897973957
Ni 9.818299173847604 6.4399408434801515 10.590496680308322 -1.8711213540670744 1.587854177037459 -1.3200167042993525
Ni 1.4995652900489571 9.494887377878175 10.644198338056839 -0.4953636474516759 -0.656016971602096 -1.9262892574884696
Ni 5.358976777407812 0.8793519727559522 1.574491941383624 -0.5610666460764402 0.5459107642716081 -0.3447070295026515
Ni 4.606751723550849 6.46592254347553 3.834074030297027 0.8725442241020005 2.3590318876748144 0.9235466832917966
Ni 3.5993272049290663 0.7719228506750273 7.417447236399559 -1.1130513844562702 1.0583529644721257 -1.1371333651061384
Ni 4.193284166441002 5.9286018169659345 6.521947715437894 -0.008005386802979762 0.4702254576231515 -0.9310625320528674
Ni 1.0536183037856117 0.8356236380173672 8.166099921715121 1.0640204471705481 0.19907794667520554 0.4058514622224559
Ni 6.049035614000205 7.522259755206739 5.877312153147461 0.19481737162663867 -0.3049929987424812 -0.3322770312694148
Ni 5.019472733055294 2.6103912603373396 8.40140988361012 0.14595741270114218 -0.5803365500496457 -0.29506802631928536
Ni 2.0221209639183977 8.731307427109433 5.6295237862777405 0.34690635114681545 0.5411141142139132 -0.12313372993840728
Ni 3.641484103041467 4.587608768286429 11.949642817427309 -0.4715750296725104 -1.5006935227595508 -0.4672116104974921
Ni 7.508831114946623 1.7806819383494281 10.985980735101396 -0.29601676338579985 -0.42326502971321295 -0.12177078815260962
Ni 8.606864392935046 -0.12175914944978403 9.566308020458589 0.11047644618571295 -0.20814931284885443 -1.3171008162041382
Ni 0.00225531109927954 7.612057450508252 6.315922696276247 1.0849494840137313 0.28773446877234965 -0.057019354807837284
Ni 3.325224417464524 3.615474753134778 9.746095117113375 -0.11341418865779823 -2.0148511629892782 1.2573681762301958
Ni 5.369566693439983 7.533559352295895 10.956789802066504 0.4610661597213866 0.8509143045370507 -0.32420453867392557
P 1.9628119041559786 5.638830746425073 2.7851193448858957 0.04224631026372079 -0.3985150764620427 0.6812950294425945
Ni 0.5990132086270349 2.3256524736551083 11.157634149512152 0.2384114541675055 1.228354305496349 -0.4243929726700691
P 3.9415225073158693 2.2082140836795467 2.8500846548388656 -0.024371486865828997 0.8127017980230714 -0.2903227983248161
Ni 7.473135079443927 8.280761338931333 7.498059631163509 -1.2495111420796223 -0.6257543160628126 1.8451352144159576
P 4.132804593766411 8.244521521839518 5.894578601097564 -2.796707693496719 -0.5919674494203546 -0.4863236487365948
P 3.521483487951073 1.0638303376965301 9.502340872303952 0.08119363806119566 1.776509899938076 0.9150975240831788
P 3.7788396457981612 6.328170685323376 10.097509821595025 -0.016574359418913394 0.864227476706189 0.8973556267187255
Ni 4.945536870209276 5.285851978626922 8.59331132807403 1.0409378543194718 -0.803601635494016 0.032186097814241345
Ni 5.225188073210257 2.689783372348758 10.911735193248694 0.10249985573813959 -0.055566938632026885 -0.42449298858304313
Ni 5.564295802167315 0.4637655107759612 6.4327684564860395 1.9399734398437818 -1.0980821647409476 0.8423175640069752
Ni 2.3005094876361682 0.6843177933404873 1.7752155508832135 2.013780555632919 -0.6788586520869598 -0.2683830608289313
Ni -0.08352946040727645 7.011952992048138 3.2962758819854594 1.4150955849830724 0.6085186689108165 0.8872396213306462
Ni 6.666365967207167 2.297624680222705 6.1621698344483296 1.715262365981504 1.6918072202823573 0.3226629052184185
Ni 1.0980609278997349 3.393344582298096 8.57828452294013 -0.1374843422331245 0.2005643014127449 0.13057373115622026
Ni 8.551592220224055 4.48408750033748 10.217552833216098 -0.07139619235479962 -1.2869492323214222 1.5520788192100623
Ni 1.301416808956146 0.01687842752803687 12.827793862368647 0.7048753878656956 1.2504038290972208 1.5927737258262633
Ni 8.927621797418604 5.045767798712199 12.685101886728901 0.5403576956638628 -1.5140874275679537 -0.988066460241737
Ni 2.502464439852814 7.696389680007263 3.3209617228040544 -0.743147801083333 0.31408467663110423 0.35598851595374176
Ni 1.3147440662081207 4.060675191792722 4.668870935966191 -0.9750937021311529 0.7798194454727538 0.2470552458854326
Ni 0.4572899015468896 1.8561016797691439 1.9622340210095757 -0.9981932642630937 0.8218243291496298 -0.8508261156986187
Ni 8.696477755494486 3.5077506986665346 6.7292814970682695 -0.03418924428719919 -0.7235819631362634 0.4026200997693517
Ni 2.7116175856474634 3.6474104006991572 6.4884940877425334 0.5809952666795671 -0.28718476691646666 0.537238690418907
Ni 8.232466160507856 8.627629476329721 11.687676497700942 0.06321597053685242 0.830500259657073 0.2902199541983647
Ni 0.2505210997709722 8.466273810554949 1.4930426759706565 -0.6689786739690866 0.37043605883763947 -0.7384298267823735
Ni 2.969001393405863 1.910184906293755 11.746571730457402 -0.4455127853678198 1.4142522631461707 -0.565577132352284
Ni 5.8412280972226975 1.7878248321048087 3.792082109988782 3.824229531520601 -0.3821206942644193 -0.9966516308075868
Ni 8.114585371951316 6.15542325608841 1.2390441390204519 -0.4257572000074474 1.5761116917895501 -1.4933088002597057
Ni 2.4658190907284356 1.6229576275935196 4.42566876771928 -0.40650169421194504 0.33575650517758304 -0.8730111364360901
Ni 2.689681989340617 5.265759709740818 8.538180169910728 -2.524412442097575 2.291398247686241 -1.5812726671651993
Ni 3.765438655449357 4.490990761528163 3.8829738201145076 -1.5702138382478763 -1.6279831838478607 0.9491109049141462
Ni 4.248169240393636 7.810169065052649 1.455824973682137 0.09096922939072075 1.151082628197379 0.5804108549310069
Ni 7.329761072658505 6.610494713084434 12.073826864099082 -0.22957431549184976 -1.5002826604743775 -0.17263466488201235
P 7.783339434443729 -0.07577826860305048 13.658098579113458 1.291137559371157 1.4687884465208383 1.0640875529630578
Ni 4.990016360871814 7.645762692396546 8.256843243983477 0.19228226390961078 0.3478247491960268 -0.3735818035554727
P 7.937653589471261 2.8947060817128007 2.991035607729719 -0.8020522887290251 1.668794818547584 -0.5471418084652319
Ni 8.511711831476273 5.528037551801292 5.640733981986991 1.1775912160108688 0.06175378416902914 -2.43567827268496
P 1.0192678973000586 5.135851209763928 6.797564796378577 1.6745332636932582 -0.5302298632012417 0.3390349188185387
P 3.8074296540938914 9.577376279956443 0.13903757902812222 -0.6466838671266282 -0.5251534771195988 -1.5617243127196265
P 1.5485885828036274 4.8257021545867484 11.474812733808337 -0.12655252581196916 -1.6733914367793308 0.35825905715547335
Ni 5.682029124530195 3.8502409334406567 2.766625240873577 0.3007689333588046 0.24659578975051077 0.1947628642396194
