# total energy = -340866.1074626488 ev
CRYSTAL
PRIMVEC
9.32254857653094 0.00000000000000 0.00000000000000
0.00000000000000 9.32254857653094 0.00000000000000
0.00000000000000 0.00000000000000 13.64449217940282
PRIMCOORD
 96 1
Ni 5.462388954920681 8.110468249027983 6.491763345691886 1.5513743369438702 -0.3576201380198938 0.16114209086138054
Ni 6.660867854176632 7.648843602727455 10.021988814975138 0.8078203015610539 -1.138963990556974 -1.0970059009576332
Ni 1.4695506491697286 7.604598786374641 1.4301339808129367 0.0407985220736007 0.06592797015137677 1.2297067057591853
Ni 0.7625257554397783 -0.30109222138856184 7.647451746199542 1.2503734900799175 0.5672699466736746 1.0364682485838923
Ni 7.5039432275543 4.628440356766234 3.021695351217543 0.2631701491694242 -0.4466512698476372 0.36062755738764984
Ni 8.676020668759016 -0.41055292750035477 1.9999281602238113 2.196066113341134 0.7671629330510077 -0.6534967762834035
Ni 7.702625386448354 9.276551291388438 4.0005238149379005 0.04780837773253056 -0.1640448663304723 1.906755044110284
Ni 5.3185047375609384 4.489842024545987 13.031690707229787 -0.8836076810050137 2.3011671541475462 -0.42115209713526824
Ni 6.150495600478535 2.450348035185433 12.938335636333148 -0.644344163249858 -0.6453965157737724 -0.3862920520332896
Ni 7.4204877711720005 7.31058424399473 1.1109112666213927 -0.32209469141977437 0.5183248842335396 0.7781489997488663
Ni 2.5768550216809434 9.438707704292115 4.527365283252283 0.6029432317055681 0.1232417162711813 -0.1836724107534127
Ni -0.32675813034366785 6.778770128178749 3.927171204632623 -0.13704905446791882 0.6897637290352379 0.4812822296579453
Ni 2.0893416575102584 2.5305033093113285 4.205901428341982 2.129989019206403 -0.3078602929879472 0.37847024199602564
Ni 8.897738845606673 8.653338907657794 9.596185129979721 -0.4274878095453089 0.438301098110729 0.15585975941651867
Ni 3.1005585200871164 4.575189958323908 2.337369931431433 -0.20038766662556456 0.004898979963514144 1.2042504704696098
Ni 4.320134347157317 2.617678462643643 1.5564274809421423 0.5762191854471624 3.119499668093834 -0.035509505760519484
Ni 8.991514363451797 3.6688331240522456 9.191666688283238 0.1958635535029659 0.3328277615665623 0.28776017980396246
Ni 5.256612336430232 7.143505525352686 0.3569809011262613 -1.2910838233150863 -0.008598540302288417 -0.36480611424537174
Ni 8.665271770053833 2.9220130664863793 1.5389896535110554 -0.20996476879103837 0.8834019927521108 -0.6287211120006204
Ni 5.74815304165958 5.016985543439768 10.581712777229605 -0.37362654075047913 -0.3206101364544478 -1.0609184112064567
Ni 5.651291760179229 6.2188671729883405 7.869188568144693 1.1863741044098213 -0.48661058384939426 2.119074686286744
Ni 0.4633614371320766 6.994503228730893 11.262163745756501 0.09815289162335354 -0.21858876301462357 -0.598532247122066
Ni 5.300157961627028 7.162971007136225 3.1483440404540053 0.29867939781962755 0.6938906067194178 0.014497679395542773
Ni 8.021596391823731 1.6629376003755398 10.604553953914401 -0.1978088501547948 -0.13907405531774758 1.4083330694482583
P -0.2628688392713739 1.5962813768351642 8.839679876520695 1.8906846209109827 -2.517915521519322 -1.1169622894749023
P 0.11401104215515759 2.3206154468234943 -0.31597380595324737 0.009173181858835814 0.850277185173684 -0.2550156383830899
P 4.045585286560944 4.652539145276985 8.720208617564474 0.6031108676316839 1.0564009829520773 1.9586946704023684
P 6.79196153465562 7.36158790818905 4.7896533277367235 0.47175732088664557 -0.9921902526021236 0.024775921393099268
P 6.098718164738221 2.6256492418222477 10.736946265433831 -0.628156240636086 0.7209229282468615 -0.4172342501381008
P 0.7824387195631689 3.3873294420906817 5.867541329931952 0.02486411023153137 -0.41567513318109706 -0.2509725786619678
P 7.033275708969274 8.344259126502884 8.008498210834329 0.41820484158148624 0.5391999279103359 0.8367858355554685
P 1.1074628558399122 5.135148848806797 10.181643055795146 -0.2647272092438989 0.11187769740861378 -0.41784411580795777
Ni 4.134997851592517 0.9975686512113883 3.0073964259495387 -0.023092363043089262 1.5127723083009559 -0.05864712021924738
Ni 2.4847482400615157 8.0762265274806 12.808904166295735 -0.7920329568198101 -0.4941493154286006 1.0606659288760185
Ni 3.9649172722539694 3.6547374303469238 6.872526068671504 -0.42194888200495073 0.20442918368478985 -0.6888481591995039
Ni 1.1875994848683133 4.454957047135066 0.7601130798240792 -0.026912508120127843 -0.5047350613642468 0.42945804589780234
Ni 7.888265299645487 8.743282857967941 11.77649342139766 0.4304224666936006 -1.8103373900104822 0.4744441236901894
Ni 3.1162670147256524 3.6896037626603513 10.800652834550686 0.5220491271626623 0.5608337041300276 -0.07692612103409333
Ni 2.1013491002962725 0.9295140453589769 0.7376009891100513 -1.6266366971222954 -0.3622679212045503 0.035521332835061405
Ni 7.354698544665088 5.266578141040674 0.21990867013588317 0.7619150543885072 -0.6190118551326564 -0.5956595535599613
Ni 2.0673311199188142 8.928997351555047 10.637519418538332 0.47180257230228423 0.17128792104613083 -0.16852089982395493
Ni 2.870058502319874 1.5086867088092386 12.093386430657354 -0.04934589742297953 0.9900577796401531 -0.3582382312198669
Ni 8.395663660293321 7.892609607361544 6.363586690715806 -0.5611496927085498 -0.1090001187505026 -0.4495134218867806
Ni 7.06197051401225 1.271260037323045 2.1702930772991387 -1.1573543201387035 2.3483435547230327 0.7644851291085286
Ni 3.0388525699313473 6.182891457374033 10.49973680933344 -0.057299090831785186 0.6283709277500533 -1.4286231871558621
Ni 5.699974109735572 5.452236699335301 5.670473836480863 -0.10840259437581976 0.15922173391021613 -0.9017223883278535
Ni 5.072976771213684 7.130220893388345 11.504531368078554 -0.9060053319739234 0.49589946535048784 1.3437796110469051
Ni 2.4940428211621803 5.590219743338251 12.711359541992236 0.28117892704201897 -0.713991491234351 0.4682359379969484
Ni 8.401797897368786 2.4745586942811477 7.028974284977451 2.4147651766813767 2.2866931289010877 -1.0730141660287262
Ni 0.786237658177533 6.014171970152534 7.989232231593974 0.4803324641501663 3.02243332466644 2.984710099084053
Ni 1.8371294237114721 1.9246961240911573 9.574981925109759 -0.475447111033407 -0.3920760057049183 0.13777282000782082
Ni 5.335406518439079 9.022148258634129 4.365241499269219 0.5611604913418271 -0.3633187310665678 0.2172034526313227
Ni 3.4175345000306563 6.61264230950889 7.405139126915095 -1.0536090220292371 -1.139483867616186 0.8602358390482926
Ni 2.0131204989555576 4.100122196730342 8.266406521917474 0.04743299667098283 -1.0326689294424602 0.5060386106670189
Ni 8.451198083178639 5.4614660225947365 6.685664901588527 -1.0995466651016161 -0.8654783183941546 -1.1740014417770812
Ni 0.435109453154579 0.8418886129221864 11.861744400668613 0.9862839144200176 -0.20652051899617982 0.4526617377077753
P 4.131315444837489 9.108027577690624 12.05781531365866 1.5376086506183455 -0.21693400102001992 -1.046836993412726
P 3.590514392029491 7.612467017517029 5.52312722451652 -0.16115957436287728 -0.010924360221987636 -2.105221839564052
P 7.033807094247847 4.5208767893244355 8.060074279521709 0.5721630130999178 -0.24273759234668515 -0.0315237816398941
P 3.7318628761300747 4.389391561798078 4.800213910957219 -1.6340291329316248 0.7098329889812872 -0.2537761095490339
P 4.582592062028952 1.532365982626379 7.482312117696855 0.8468167374289094 0.8873910593068459 -1.232875333295154
P 6.375616507618814 3.5468941864427195 1.2461199201172644 0.5852887518485984 -0.5890772723567532 0.6747502863455411
P 0.5371158492883461 8.953049527322065 3.950448676598772 0.4655535060687789 -0.7668628853120858 -0.32084822060718293
P 0.1998549355264144 8.739693676700382 13.56004708971554 0.08988422385665809 0.3929584083098716 -0.11401145592216495
Ni 5.417137303303201 5.350303951336634 2.110735042374657 -0.5226957596077256 -2.1191775304131957 -1.721424528928158
Ni 1.7367815089997796 5.332693656753729 6.223184445313033 1.3560190905358906 -1.2500274195944086 -3.2638378000239987
Ni 8.182979033181416 5.859855820745004 9.42894419898948 -0.31977349948576544 0.5405708401159335 0.48346149669745125
Ni 0.7134956748151774 3.5333951358571998 11.552723351570808 0.6133572279500404 -0.8785662619263643 0.5691715345717617
Ni 9.130951725059266 2.1493322586965964 3.696020472962846 -0.017335148844337886 -0.86985587863656 -0.05566489766247188
Ni 2.655127140959963 6.900103100119726 3.547185982218497 0.22996100940730718 -0.5528730545220543 0.6978907290177464
Ni 0.4087033338289687 0.9638956051375649 5.70398467020649 -0.22795066384549773 -0.36797088512659853 -0.21162158766817105
Ni 7.4409041529277244 0.8346701634274573 13.554534666641494 1.597124032375159 -1.174986688508486 0.49490573397865084
Ni 5.930660578477752 0.34009590083586577 10.808239524720916 -0.6789725519570049 0.39181272474120266 1.265386418548982
Ni 2.528079446637133 1.7501407213540956 6.412338027132874 -0.8362831848874371 0.6760399516912422 1.087927849915765
Ni 6.222568224840863 3.084234737231285 6.63202854962808 -0.4162394903249993 0.2985361873735439 -1.1383189007738073
Ni 5.438150328178725 3.6149581148438776 4.006991799258504 1.1753515280470725 -0.9591412925669546 -1.219128930243339
Ni 7.681435233146638 3.895147317432128 11.592729205008405 0.244332704747947 -0.1885582780908043 0.2979368632266482
Ni 0.10545294240549818 6.604736788171514 13.560742551852059 -0.8193915513384212 -1.15715531675402 -0.7511048511468805
Ni 4.651886566864702 1.5822043282273368 5.203763739838899 -0.14930010392112997 1.6723863925535845 1.5073447095274815
Ni 3.5039172367194844 9.040970484554132 7.25454453896733 -1.9555977766445996 0.6207154680873245 -0.7685585278469538
Ni 4.327303387143687 8.161490558319798 9.206703027157122 2.208654491529106 0.2509715502207032 1.621463123341156
Ni 7.110046897900042 0.7771052894250642 6.3658511378064295 -0.9652785158129441 -1.7050244903035796 -1.9208606302737308
Ni 4.534702129116097 1.723198555475538 9.53934182125034 -1.721695008980725 0.3415846818235859 0.8405401603915783
Ni 6.851383460368397 1.6258245338141082 8.448846936384669 -1.7500249662736698 -0.37528001719350207 2.1833062425723044
Ni 0.7769943510949759 4.331545146823529 3.6469680182212527 -0.6646990727571261 1.7343116693034715 -0.4227572368388591
Ni 3.537394509269622 8.539883489407952 1.9755860531907659 0.18332428338537457 -1.7516506748025509 -0.7884133577893518
Ni 1.457449980896245 7.776851519571217 5.737099295610374 -0.989048364539032 -0.8949102505020264 0.24608259755951814
Ni 4.415867600239291 0.789874384443701 0.4049994852118231 1.1708685525750546 -1.6800714199026676 -1.7152847345790072
P 2.3479584822981687 7.837420118779863 8.903576625631985 -2.1622342523933535 -0.2798049295126278 -1.2504501089541238
P 5.89975632938176 8.984233452880463 1.6490460704877754 -0.9815749389801225 -1.8620186204348577 -0.0778728012180788
P 7.701292261977546 6.037813953774687 11.670939795465696 -0.46782918947683294 1.1963821234651266 0.17971214055408405
P 3.5380843778768933 3.429868232022812 13.330846635243617 -1.6095398895410087 -0.27952750748152505 -1.5579532757129684
P 7.131609953151635 2.0996803640705766 4.344119400573355 -1.6610982212342746 0.19265147432357144 1.2830121020505452
P 3.2952785957637354 6.335063420569774 1.0390064481365093 -0.14689869356848895 0.4442359755379252 0.4108005786976151
P 1.7954110180690694 2.604356540484315 2.096052960353156 -0.423007148066136 0.6820835867821607 -0.07292317052228732
P 8.98538944892508 5.796154845157398 2.0121537506505036 0.7236992054404181 -0.25118880843783187 -1.0184193615019816
