# total energy = -381164.5032733367 ev
CRYSTAL
PRIMVEC
9.30007282663338 0.00000000000000 0.00000000000000
0.00000000000000 9.30007282663338 0.00000000000000
0.00000000000000 0.00000000000000 13.61159664755411
PRIMCOORD
 96 1
Ni 0.8030845540205092 3.983072466160444 8.391535851537245 -3.3432902870243706 -0.22182269657088893 0.979074798266088
Ni 5.14579549325643 2.800623984224384 3.1952270117632 0.11665275019975394 -0.4861801811801949 0.8830176128294985
Ni 4.704190826766058 7.57633237238609 11.76534751514699 0.5333038741408751 0.10870315633537407 0.7783953114317176
Ni 4.0784912151746635 5.354349630356223 5.25025112320799 -0.8254984355671073 0.4381396328322003 -1.0461055145633402
Ni 3.3631574999771243 5.4493312759392865 11.199308801879294 -0.4653714719649598 0.24769030836627023 -0.4128173520173277
Ni 3.3841942651106693 0.01117403771350733 13.083875595275153 0.44748816392663576 0.5557290359136107 -0.2760390347122923
Ni 1.5682527104064203 1.1486799168609496 11.235393085132234 -1.5659373223597095 -2.437467760485215 -0.0698635577603571
Ni 7.911051299849129 7.787713731678897 9.883992966966483 1.3869782579215661 0.6063399160919428 1.2704486635632377
Ni 0.04945034817333432 3.6793506820175206 4.296500736496949 1.824473829411864 -3.4807399193648187 -0.6690079845451252
Ni 0.7188565828512026 2.453861462222025 2.137238616808875 1.8419200499127697 -0.7704040656961249 -0.12329776632009734
Ni 0.5713406848868992 7.979583537810708 5.093309601254807 0.44679859405877886 -0.7545493580520554 -0.25602376793263004
Ni 2.1476193582951977 7.884118288431471 11.57481226949116 0.11193400456784594 0.505049250170556 0.9380034821470749
Ni 2.959692432873431 6.142744719067965 2.6411128521003784 0.7253562814278669 1.24881463023323 0.1937691328677824
Ni 5.204488253980478 5.183749091183041 3.0224139852225242 0.07583108819770165 -2.715881208966955 -0.7055862978897912
Ni 6.8222173527646435 2.4810176753917643 9.469914656551383 1.8006690136827828 -1.1759228271695101 1.0747506891038587
Ni 0.5033599412544193 0.47825718420381674 13.281597007340661 -0.5021557306728448 0.2548983960789352 0.4319283618151658
Ni 5.844100774784862 1.512684774211492 13.06624823690463 -0.23071794217798977 0.22453006819972302 -2.5682173550976675
Ni 7.712755143272015 1.8863431073394967 3.325816776861433 0.35127645519005307 -1.430116483871937 1.0802909021957976
Ni 3.409183561270631 8.089724302389207 5.165301466373625 -0.8479451946063977 0.6747829393556896 -0.5248372314307607
Ni 6.598810999078522 6.126906694743284 -0.132630201115165 2.7135163082792038 0.680770267287376 -1.7479482862502995
Ni 5.026838259470768 4.307914716093942 9.680200467244397 0.29791603729104177 0.06399810011851559 0.38550246625245865
Ni 5.075933344855375 7.042629082943688 3.8848720653109265 0.37053504630934897 2.6237788944130553 1.3672815508235872
Ni 3.248329498604944 2.443436080385286 11.338515084615118 2.3262721767452903 2.2744338519177605 0.24239229319212446
Ni 8.237502462412206 1.2121436150357094 10.804177530193888 0.8052761949829615 -1.0302700901929807 0.4000266280105627
P 0.8556355465331554 8.346973621734463 9.791474910722004 -1.977366792890575 -1.6966370375708328 1.6024104775850792
Ni 3.155235767841558 1.350631002128375 1.6121034846244464 0.8178882273200172 0.7975052927882911 -1.9698072353757625
P 5.9890238123958355 7.738525645564257 7.639549618626261 0.671025014975154 -0.6817943376765161 1.2001770717311846
Ni 5.763199439728848 8.618954256717004 5.7900189902558665 -0.24276536026082704 -1.2542864519810784 0.20167707486094946
P 3.446634955255062 9.336808291698446 3.1802269240161207 0.050183048612294216 -1.7602944665204778 1.0042584966205672
P 8.615141226785637 5.343263943336248 12.23112214136573 -1.9191544462159014 -0.7780980919062729 0.738368891637451
P 8.412083432830814 1.6051554000836548 1.1340490420121025 -1.2262953660847913 -0.5341842198632993 -1.0955095189177648
Ni 7.999885597176988 2.7145890088705293 6.061734573157812 1.8645041058608731 0.2651041329673434 -1.56005181011321
Ni 2.894936024551207 7.772563912756464 9.200759383747256 -2.3131520944235646 -0.9399392657172069 0.5287167689908249
Ni 2.0709681566017086 2.3701980054840206 13.328925078854635 -1.1534578132977746 -0.664852824726171 0.3155995706137339
Ni 8.497709204972523 -0.3756011183784014 7.892793396528982 0.6484787542435219 1.9203705780111895 0.9589895974804388
Ni 6.698386880725233 1.3304219434921274 7.241805026426919 -0.6220421573185481 -2.016799287854585 0.18802348863325685
Ni 4.926843874538908 4.47384661861945 7.189768327951358 -2.0874915121638242 -0.31633542033849393 0.42252609466465946
Ni 2.7674692239674936 3.287985009891166 8.973186597355642 1.7068402033560799 -1.0196771451684825 0.9814692666401936
Ni 1.8525745422643862 8.55475585277498 1.1720342601869251 0.44142935932706556 -0.9004399220710041 -0.10164342127511526
Ni 7.355864841769024 3.433986855970526 11.643822531205108 0.1492507387404333 -0.006351396139324545 -0.3783085196071807
Ni 2.3454412111491423 4.3173728903383335 3.9035884622301387 0.28534488549425047 0.08951912720775551 1.2159559318319961
Ni 5.756447586728426 3.422185063329294 0.9107356890560159 -0.16243021354518478 0.5648531097020659 0.09340920629078107
Ni 1.2903200287017458 5.006526900031484 13.016647227548642 0.1285333036874238 0.5401154977460698 0.10820384810145237
Ni 6.775912289281036 6.80893684851588 2.065560164150269 -0.004845758128075525 0.26323057009371437 0.43073665549990975
Ni 6.540415840690581 8.953896385932124 3.6090058598275934 -0.8410140147042032 -0.019727303225598285 -1.426335162452634
Ni 0.8254828498417418 6.0221413723607125 10.95253043472849 1.2540712506464788 0.817574038513708 -1.5824250356020875
Ni 3.5871776584814645 6.69201633071795 7.173774062400221 -0.00706513437689751 -0.3867926458187919 0.6377935066155338
Ni 2.4435569813343294 1.9622503031927194 3.652917084520141 -0.5840435665875876 0.06642907815751141 1.481650904305803
Ni 8.246067829648275 8.968943904051521 1.9898929101805327 0.3907989387647076 -0.7804925602803784 -0.6878400296499637
Ni 1.770594398739986 8.690518318477668 6.984477586468435 -0.02683974590066345 -1.6751449291353278 -0.9638484682346368
Ni 2.8770519841657936 1.4513321926084892 7.198670357830149 3.651751961041743 1.041250243353568 -1.7440805757647768
Ni 7.054988879965121 4.034362368773838 4.076074126201097 -1.0831026606129799 1.014583275585343 1.1783023831452804
Ni 9.04414429435649 3.0434023899764515 -0.4357047001770562 0.18275889780020785 -0.21634598972703387 0.5484433008854749
Ni 7.894106566837053 0.025854202949272057 5.432878516789086 1.1718440291144463 1.0654672069194038 -0.0065164609622791
Ni 0.9738850447632631 2.058785060967339 6.830067544386758 -3.136760512056811 0.39341786444479343 -0.47507507240596897
Ni 4.766371114866358 5.588506868434199 0.8043884242555768 -1.5241337560603623 0.2720900773668733 0.3139700054301109
P 3.2147190347708903 6.927856882009528 13.651751072961009 -0.596410829903689 0.7190737908532647 -0.9454779361472491
Ni 4.194174823263151 9.09274647587192 7.884122938467972 0.8074842583778737 -1.1144019849468938 -1.209181332112324
P 5.886081304321918 2.9540379884874026 5.884171069327032 -1.2280928243048463 0.10110786048661943 -0.9241241530618215
Ni 8.906493913834124 6.1333795455536055 1.061203430191578 -0.5198207520527758 -0.6682669926140427 -0.8858517398441841
P 8.692052830523219 1.9822547602228935 8.509207815233847 0.8407756734411521 -0.1616254582557023 -0.548151737786985
P 2.7418475228433055 5.45252120097943 9.00619441645908 0.12552562720935154 0.2750512168777263 -0.001961494601745009
P 6.773112967307032 8.616136334596995 11.95838634045532 0.5312001975343109 -0.21010386547206397 -0.8069582106710746
Ni 6.696917469190707 6.107813644867437 10.92854740646749 -0.23077579199911866 -0.6271362840120037 1.7597285667146791
Ni 9.004488783070268 7.550980373378998 12.558345209988083 -1.158519029870766 0.3813676181484787 -0.11685586734949552
Ni 6.372419321958332 5.992985643495257 6.125518193843886 -0.8985848711401363 -0.25130733629356716 0.40909927973579224
Ni 5.427885307593596 4.453488758815149 12.342029231959705 -0.3585259376636148 -0.2063762801088317 -1.0941697170604188
Ni 3.657839613160806 2.902069180544765 5.3537674457862146 0.8170389919458445 1.076592627408604 1.2508648278940393
Ni 4.734155661982804 0.9919922869007568 4.714472057471244 -0.05513319352871795 -0.1630868732925772 -0.2397905939032193
Ni 4.397604620138107 7.805867474181408 1.7442035815784214 -0.5906140207162538 1.4336262967974083 0.3729295146834545
Ni 2.2208760333424697 4.163224180308052 6.82187418007082 1.4602940358965817 1.5688807212587494 -2.4719187430742333
Ni 6.139117690596664 9.250150211453368 9.320064440263243 0.30348093297332895 0.29466924821896995 0.34999553159510044
Ni 1.6296424923014365 4.597016785475622 1.6866947201476972 -0.9934457222757794 -0.5763392559647945 -0.7684168600627669
Ni 8.31040573468535 7.218781765699862 6.534042500661395 -1.1238960404802578 0.09690204993538795 1.8139991551327856
Ni 0.9737176434492031 9.342202334040381 3.363316531225482 0.8560853072150288 0.648958779203734 -1.411803287385046
Ni 6.050887898014022 1.2525803324542113 1.6326017755310978 0.7222280202115303 -0.8497855902492462 1.5253861404102247
Ni 8.555202256279141 4.727031806062249 9.922622680200437 -1.7771156518428748 -0.6454949890248497 0.08918462668647222
Ni 0.32755787125047164 6.386527532704393 8.514271704984163 0.4782946077845311 0.7349282413870182 -0.238848284594608
Ni 0.9940476030344939 3.3815995447427385 10.934277181444845 0.07023405372589839 0.48127708745162273 0.27468277779471406
Ni 8.114546197235109 3.67709076427771 1.9182274776241315 -0.9229093068181137 1.8455985272056215 -1.041355658583181
Ni 6.822328953640683 3.6333897212350377 7.810674681916831 1.7059490590003779 3.1314319007550453 -1.457403087502032
Ni 1.6942221992365967 0.5728324165966341 8.796834893037197 -0.8950580889338003 2.422597785351918 1.9269042653646493
Ni 3.388983802707387 4.092692426650757 -0.3655979598560139 0.4407305334878281 0.08262419986013513 1.0098097654560996
Ni 7.511901466618983 6.8787245963329084 4.3907197760937375 0.5020210048671935 0.5097073177678576 -1.3468032283645772
Ni 3.808593796544871 0.5221005183634402 10.190961406594871 0.3980445645835274 -0.5202904926003427 0.5972281835986617
Ni 4.9246025569451035 6.9930038933978915 9.461556680943286 0.9159159062194162 -0.8887372889220952 -0.005765955949499747
Ni 6.971967128264347 5.996398770287481 8.66609539676361 0.10995785467808158 -0.3799221439512038 -1.885997242737642
Ni 0.7570538426905012 7.123223515590592 2.717923085042225 -0.2302482016304228 -0.6403286143325617 0.8830826617394791
P 3.616305487127911 3.697504424520031 2.046203922208427 -0.5793361338095894 0.2918430916240845 -0.7551607663838091
Ni 4.756922240694968 1.9569120612888047 8.410891163471787 -0.15399905205869607 1.1438873960005203 0.6622179582064853
P 1.9754564068574552 6.439742550429477 5.685767961910379 0.1017346954373409 -0.9052126608692992 0.10992031657192682
Ni 9.134680505043958 5.451507493022067 5.539661025006081 1.212106476178919 0.16099013866454853 0.976233472162551
P 8.798808368528505 5.3865092828017564 3.301819798490927 -0.5825461561064549 1.4215619094337064 -1.376076523407398
P 5.394600346314658 2.295806721530342 10.786768723538943 -2.6280327845934033 -0.3609222058099333 2.51809292763745
P 0.3158230391348632 1.3136818120861238 4.880192848339577 -0.3432708112767572 1.2542702540311625 0.23700428940733376
Ni 6.168924424572353 8.559601190809719 0.4463337536125681 0.5692095868985487 -0.3752306520128054 -1.018670301170523
