# total energy = -340896.17425321596 ev
CRYSTAL
PRIMVEC
9.07185116643880 0.00000000000000 0.00000000000000
0.00000000000000 9.07185116643880 0.00000000000000
0.00000000000000 0.00000000000000 13.27757117885885
PRIMCOORD
 96 1
Ni 6.2690028739044275 1.9865448698622186 11.392979388606218 1.4322682401076172 0.15439834437964378 -0.2556987804930435
Ni 4.793983397034464 0.32091582351225 6.1108560162018755 -0.7966254612864989 -0.3929902899890716 -0.179957938016303
Ni 2.741023505675841 1.4453273084014844 4.83594342967035 0.3743477351872198 0.09649478719464026 0.6078635518253209
Ni 3.6510753150507043 4.1756188142917425 4.830101157597726 -0.38656741718186327 0.19110649843395475 0.5797796491049112
Ni 4.838725766385683 4.67709259632675 2.6507740099303567 0.683801340804216 -1.3390534092158293 -1.06259245647477
Ni 7.123897828929046 6.065657332743122 2.516643970682877 0.8169009237060835 -0.05403070449315856 0.02410794879179719
Ni 4.866612636496317 4.810766321466693 11.393019304750812 1.035664007515042 -1.293924635197991 -0.4365738310069771
Ni 5.557053075787179 7.943349061923007 12.32510482594243 -0.11270353574401881 0.1486997513329697 0.5885460824436316
Ni 1.7744903516982422 6.489222058008408 0.4414870741886975 0.050567171424590336 -0.20024214218663577 0.2422719655641763
Ni 2.792424613693684 1.7898217799633598 0.36792978436499824 0.3971894156720837 -0.8005978156706857 0.22129844863630274
Ni 0.7116431695519466 -0.09429372694109886 4.676320581802867 -0.2079441388165838 0.7474294591778224 0.09527402741366173
Ni 8.5504010464133 2.2031534572505076 1.4373903459226969 0.3828300616266181 0.7398156513863066 0.20412502218080975
Ni 6.913621393569782 0.5838443751483873 4.89554639821748 0.2696945805515033 0.16458119844991656 -0.8276563624503744
Ni 0.8356481158487177 7.513642693500629 2.542230219368639 0.764365829921845 -0.9252238138839033 0.09967138515040899
Ni 7.809484827911128 3.659267196543841 3.6804762771006563 0.06736444548758722 0.9841360148390792 -0.184776699561185
Ni 7.637155945470792 3.861070523027591 12.775983987517447 -0.3416373894383923 -0.2989748175728593 -0.44285555025063084
Ni 7.836274004045385 8.92466026125201 7.063494723119797 0.335922341331486 -0.7662864439833255 -0.36235868114614367
Ni 6.910491604959447 0.8030729131183131 0.29071381701507315 -0.7900336670015942 -0.931261535437551 0.5088539686286269
Ni 1.882898971679398 6.67322641274295 9.127679215775716 0.12194973693263515 -0.68163801460431 0.20454719731989288
Ni 9.205933002885127 4.696696866433802 1.3985664521928765 -0.5112430376860937 0.5705352476885078 1.1643996570212591
Ni 6.486155772355383 1.9217446378517251 7.131967240433084 0.18335976460900033 0.92431750001955 -0.40019940614300115
Ni 3.404411685152158 4.297181618287349 0.28448417690285055 -0.42645036941973 -0.1734795293808109 0.6080941797788882
Ni 6.153327701236669 5.630154051503342 4.724504811440348 -0.13662482244630664 0.03570593804204174 0.6090604003468995
Ni 5.363704714476854 2.9238848071787826 9.220383554413827 0.16573973753439197 0.20227588478721295 0.04402474232038224
P 0.0911149503351242 5.554594604154133 12.549375498722863 0.8883331115051409 -0.7378019633903874 -0.6086127712865196
P 3.99253071651269 6.177658405737879 12.716580599693296 -0.9715581781740688 1.256702774732055 -0.1081107741670138
P 2.4842175463096017 8.467012591612734 1.298632755457444 -0.614086135696265 0.9091204805641375 1.23829753275199
P 6.4222082943430685 7.644966809220062 5.844082814093102 -0.6771002746349565 0.4685668389738059 0.07933678735811497
P 4.673754155142393 0.9893216438012521 12.653790689874253 0.37267934634586136 -0.23642193454130248 -0.6641917941034046
P 4.159225979454425 5.987167677506556 8.126564165616683 -0.8138263985458178 1.3570215636584757 0.13115248647782576
P 4.7956616894776865 0.8606247361442924 3.8756562451368546 0.08186958108229772 0.38751024071110685 -0.38916166027160076
P 0.1436427822526881 5.645431048662193 3.6319736254915145 0.6874456224250226 -0.24975798952857628 -0.6114839221867275
Ni 1.4417439272389274 0.9879790098466738 2.5117442639337706 -0.08354748300535288 0.45621757337983365 0.3285916119980276
Ni 1.9654437443328323 6.397287919523969 4.9413147939218245 0.10166373299008945 0.6052852495751834 -0.5652066363867427
Ni 6.027791426483595 5.710566939161331 9.267319497347595 0.09247641006386655 -0.12844640040057234 -0.23700506073828218
Ni 8.7077613746303 2.3383421815148746 10.344011231372821 -0.1539031499107801 0.8566059556051893 -0.028386264452176922
Ni 2.3256053026484698 5.118628658511087 7.131834791407834 0.601957213643215 -0.21032857988836037 -0.484204802621379
Ni 0.4906819080325311 9.252108724701369 9.213426351847842 0.16281947856380347 -0.7713772282426715 0.7593676053763051
Ni 1.5900051888583442 1.3947698825307746 11.69771284422538 -0.22893565346658634 -0.8726498964419294 -1.6693015829806732
Ni 3.968354233479235 6.95014466587473 1.694722472649514 1.0318808863235263 -0.2573388871996278 -0.27568190848318974
Ni 5.435989223599019 7.920887158736953 8.003414694873403 1.018334257987343 -0.48006429809044415 0.44859039585187904
Ni 5.4030584043076715 2.6088194204050974 5.0674779335820705 -0.030851181052901702 0.28830448234320666 -0.4910578209874704
Ni 0.7079128244024695 7.547444410492243 7.027592872611393 0.5248197479292639 -0.49397885128900737 -0.4249408747537391
Ni 5.334611288177309 4.556600270754389 6.991450618050312 0.13496954623107077 -0.4369222154853314 -0.010962926769406927
Ni 8.237884849783105 7.206696613411726 9.144701637075519 -0.0018859041688032035 0.818391392208681 0.5909984006388661
Ni 4.673618077376726 0.07940772656226383 10.32684366045631 -0.7291738554017442 1.8685078277036273 -0.14429879405179663
Ni 8.183653324239394 7.330146362424576 4.591131364569977 -0.2624502402842641 -0.8210360289203795 0.6087451830993258
Ni 7.388287855768445 6.2670977851850935 7.18769380702892 -0.12297946374873013 -0.8977538905984088 -1.29633812973549
Ni 2.3546352259907035 5.276769165917908 2.6300747674022396 -0.5472636787550768 -0.15255974850900822 -0.0696766385605316
Ni 2.18182553544501 5.528395098337767 11.518359627521326 0.3143898665763489 -1.063502626993865 -0.6449401449626442
Ni 1.4560230207828888 3.444101033471619 4.039196318285331 -1.1062539019184625 -0.0006016381397408993 -1.223053462108726
Ni 3.6155136589564676 2.368551445492887 2.6355178780289084 0.469666756906204 0.9375375982542499 0.6247168759372338
Ni 0.9311892223084282 3.303233330453428 8.276746845287313 0.3374197518126189 0.36781276228217946 -0.2153967384398871
Ni 3.787144008866383 2.7112043312927394 7.0742103935735 -0.6031985422494837 -0.041039177329497065 -0.05163752167063365
Ni 4.187031202905659 6.855996995735447 5.993654958188441 0.2796090114517378 0.3519405711366132 0.47082760998352463
Ni 0.5800042606012724 7.348725513363606 11.337864264770776 0.30817293913235955 0.36235739559456304 -0.10860211198113554
P 0.2990354259781454 5.563548521135004 7.9413550690634365 0.024305923735216204 -0.0016269940804617142 0.22539395886191504
P 8.495861077934078 1.682265913980382 8.074860964959058 0.29870690862345334 1.2989683682694853 -0.5079833930982155
P 1.8319423843627327 3.4176112284218303 10.652077685065715 0.26848230541095697 -0.27865976016459104 -0.9085988037327126
P 4.05985292311354 6.112912604833652 3.934090759269459 -0.8301176795066736 1.0976389065559418 -0.3644865261224239
P 6.957520080773867 4.063817322019964 10.495534730627822 -0.20412810750460328 -0.5033350956929267 -0.10333289316239623
P 6.37846382860674 7.786841487704186 10.167804132610984 0.2856485327775984 -0.396368205322369 0.45383930295564423
P 2.455704718476901 8.446809579336747 5.881552280461986 0.10894638269443173 -0.07576886750119854 0.483278948373
P 6.772889768317257 4.088220601329529 1.6579034580005165 0.3458120896413722 -0.7877605546967015 -0.28937817502335966
Ni 5.393904906603822 2.909043258870065 0.31616670949048137 -0.2712706667893715 0.24156851173924848 0.18895782752206813
Ni 1.3510344886454901 0.9525897189222814 7.077064397912083 0.1461967824054579 0.9488846478359529 -0.7623850520463903
Ni 7.007134034135954 0.6559655909517503 9.187043594640377 -1.2661546641735741 -0.38048778664668664 1.445410691026846
Ni 2.5979331991517594 1.7345742071026704 9.168481680218331 0.8023929598978955 -0.21629636743602101 0.962937269274277
Ni 6.214254252851182 2.03123280810717 2.501905841476067 0.6971937029507219 0.347559411349782 0.8718705950737436
Ni 4.124698514379255 6.883657069569971 10.412855694578932 -0.7358448396640166 -0.20379360698332002 -0.36521286276548715
Ni 8.107957799124518 7.042731977634369 0.27765488743658995 -0.17388036436365537 1.5107809889025399 0.9379602876139653
Ni 7.6328558880757225 3.9604707949216094 8.291643731887401 -0.0905802214824182 -0.28953449809556586 -0.3370993923587227
Ni 2.739934883550507 8.325337493851587 12.406827688891239 1.4615029686030185 0.05920993470125287 -0.7901470526510069
Ni 0.048353873252013256 5.1897882581037384 10.092228355929894 0.27690061138163924 -1.6604184215584308 0.5097713382365736
Ni 8.742306983407557 2.3751013219469788 5.704668421612231 -0.3483356273941743 -0.2340182101958163 0.28712357466122806
Ni 3.9886298205635766 2.586774822367088 11.379714528009025 -1.6939841733290182 0.1549770997012492 -0.31027635862860753
Ni 1.0326125169853588 3.433659332919459 12.779303377814612 0.181005662554527 0.7335375316870786 0.06533790197586166
Ni 3.131711842756046 8.555154696360592 8.130759896724738 -0.2336286880668815 -0.130903089471181 -0.5284835699340963
Ni 5.683995487452142 7.818874193742133 3.61100767054269 -0.4336070350691693 0.34902879680645693 -0.21057643423310832
Ni 3.1569860197658786 8.37096890460516 3.7093020837943906 0.15995706941434387 -0.6047972541951714 -0.31816835978217467
Ni 3.412050183731584 4.377812230370404 9.309170667770946 -0.47998022301707016 -0.5466209029647554 0.7041467372297874
Ni 7.256210776412323 6.104457639660226 11.410240399588488 -0.2378481254648678 0.009073423056177922 0.14529406808553044
Ni 0.5880600643287424 8.993379532913705 0.3091006447119607 -0.6188478187509665 0.3448165584973223 -0.13561823555866323
Ni 4.650067552065338 0.462192667012546 1.556237944900699 -0.3672442913732191 -1.414138620386442 -0.11782003103497773
Ni 5.979120945630131 5.674551690514871 0.2788777729573816 -0.5616091488434715 0.2069177544345985 0.47240960975866386
Ni 7.970092878802039 8.943194052935818 11.552760993866979 -0.4645482047327161 0.013163533965151523 -0.7569235147111868
Ni 9.379749668896755 4.902010999271753 5.750555658565258 -1.4710620730463633 -0.6124840813164678 0.34414035836590406
Ni 7.965983330278904 8.667926876694127 2.6067056791117404 -1.2770898230288392 1.1695392922406698 -0.9325625136371618
P 8.425599591594828 1.5627805638739551 3.5560259029176033 0.47087286139916323 -0.9477163385594646 0.26269346664332177
P 1.791772227937916 3.2048944651316096 1.758508471713238 -0.05124054334253111 0.12403413026548961 -0.567990369779467
P 4.7320226544008825 1.0552558571923014 8.25207685355704 -0.006200215273440935 0.3104334530317621 0.29856575505989874
P 8.594590032850808 1.7535888068918337 12.508335351782883 -0.07174637660536677 -0.569082317292065 0.11836870444959614
P 6.1773862502065455 7.803760489902082 1.2523726654264893 0.8250991432461596 -0.1242246490097409 0.834427362625621
P 1.8050171304628104 3.068943705379509 6.113006952084515 0.7971437956838142 0.05580502278476195 0.7275422333355922
P 7.053863138865907 3.964707349359367 5.8063348418971525 0.5323116854309349 -0.3902422949302892 0.70536389746634
P 2.2819243398694513 8.50593990444446 10.214461569717685 0.372840554514074 0.8502465890460648 0.6545889809063179
