# total energy = -340860.66974908864 ev
CRYSTAL
PRIMVEC
9.26429405674132 0.00000000000000 0.00000000000000
0.00000000000000 9.26429405674132 0.00000000000000
0.00000000000000 0.00000000000000 13.55923080123549
PRIMCOORD
 96 1
Ni 6.345457927098733 1.0414919622745442 7.357795155293237 -0.4920515523593074 0.6210461119538658 0.8023297107601279
Ni 2.0063774751980104 4.561506893123365 8.004556846432708 0.7124179760996441 -0.4591152066426028 -1.1473385877739142
Ni 0.3371008021747026 3.515651448245803 1.2906394074714664 1.2620105600982137 1.2419510703441774 -2.059040970132615
Ni 4.415751751311718 8.860167229106956 13.030230822703635 0.22442336741852964 -0.36962513290056986 -0.6462321243011903
Ni 9.050529947847547 8.010233079534341 6.437949861841307 0.14593992919964544 -0.9516010183258513 0.6921371143634208
Ni 8.510773634860184 5.89721431294919 2.605744889690939 -1.526990508782867 -0.4850003019394809 0.16093357439500025
Ni 4.187127497219819 3.976086873659829 8.696890527535036 0.11801620620618385 -0.7201207440605405 0.6862230628718311
Ni 3.1337679739803783 1.0912041653484208 9.108101978183422 -1.5933560806922946 0.8754775956987116 1.9241243886266668
Ni 3.6891531514078526 4.192528580781517 13.272792281101225 -1.4274893306617351 2.06354477154024 -1.4195068266768909
Ni 8.637147873050782 2.926516446778423 8.148162671972804 0.28001138909647905 0.24585968291543464 0.8223035827788935
Ni 1.99613116573105 5.055238192157875 11.618023492910883 0.5593116110585464 0.413587654524449 1.1814008195649461
Ni 8.335150408309406 6.6860782346680985 0.3116740201104906 -0.6725352809720934 -0.6072027783128704 -0.45886375275342905
Ni 3.5979183813982485 2.153466675385103 11.66882980913851 -1.3548973182266215 1.5112458443541006 1.4142576624628094
Ni 7.128364907599508 4.134024562441687 4.328364442714074 1.1283209090208308 0.1468030485308891 0.9397731724529879
Ni 4.01620126786592 5.734375812496427 5.108873823856758 0.314537962118439 0.6886594402274656 -1.8832417914796924
Ni 6.466180945782237 8.818690983642599 10.260189232641217 2.0046539107413026 1.7382058621515548 -0.6510868812903302
Ni 6.34719961442223 7.910113851316043 7.91575673295829 0.1621417357704885 0.28816898520660694 -0.38363738801926184
Ni -0.18312637848322974 7.670622580040831 9.162175811001463 -0.10765851712094361 -0.46450346753770966 -2.0847180631837454
Ni 1.7312835210281088 5.156080035329538 5.319882948816217 -0.2407100203936951 0.2829401327074998 0.8760797480590847
Ni 8.35933948065862 7.789446418398182 11.291314449623242 0.14892189464610484 -1.224122012582556 0.04670280337317763
Ni 0.7282207778312291 0.6783436703192767 9.487570250931634 -1.6139524167864074 1.5189434701086744 -1.0276007708909334
Ni 2.3771437963347255 2.5704062391830558 0.9055393702341359 0.22289278970661613 -0.10413533445903356 0.36832878268664954
Ni 6.131193329131416 6.282877619278374 3.6522469823088213 -0.9402164306379936 -1.3306286754872438 -0.6655642489708988
Ni 9.13300069547402 0.900874798067215 11.604627323390787 -0.0475317270323762 -1.3566608378849474 -0.6833238869471652
P 4.2644750901128115 0.38112194927610765 10.845975191728572 0.3731801972416799 -2.762672972509513 0.7954221850070171
P 3.166674747241357 2.6164497817244583 3.10690800559199 -0.42654652867796217 -0.4620454929155204 -2.4276052658688383
P 1.5775888790237085 2.0120750161764733 6.8000086727899625 1.079921691781837 -1.036449736641131 0.5669279899532236
P 1.240766932106651 6.974068086467302 10.641840173120364 -1.8028711635404242 -1.628627502300079 2.1715753272886213
P 7.937860412666446 0.20077115335734552 8.381191171562525 1.5169225830239037 -1.0048076842558178 1.0382880754014505
P 8.847419560186037 5.350732122318957 5.001770244185349 -0.4807469259797656 -0.10718543413926702 -0.7546753421069583
P 5.59003810770869 3.7982865379546786 12.518098782382259 0.7603024584857486 -1.078506042381233 0.3299707517337414
P 1.8599830970814621 6.676526747271683 7.219070686406071 0.45779854471370834 1.143349006998547 -0.5128101250628975
Ni 7.574134955177913 2.908738266066763 12.225938145300933 -0.011056514924477732 -0.8731708019424059 -1.0951804177131201
Ni 2.7498370906804173 8.919958984350863 3.1113011339366854 -1.3563168242819674 -1.2270029336747772 1.3718113203731406
Ni 6.930062688666164 2.4806722848458267 0.8525865170232406 1.6510536925140793 -2.2451171052315138 0.4094903445266238
Ni 6.888549386024709 6.414134140551331 9.737629302685109 1.9215969942191227 -1.0010194208579795 0.5812207524268119
Ni 0.17154323135254249 3.2028425520867563 5.8262655681111974 -1.376939128518009 1.5898046158956105 0.8502319337580455
Ni 4.201135110161992 1.7945123294476408 7.486363178367901 0.6535463985744163 1.6262266061680704 -3.33358282992862
Ni 5.296758343879075 8.194564742702607 4.846747102382068 -3.0835746720624506 -0.9820544497197023 0.7011228628017989
Ni 2.386352504843006 8.515776353768103 10.177667531396237 1.8150376236996288 1.1218700111891649 0.5453134970072415
Ni 0.11323283676303698 5.347128311846401 7.112914844038885 -1.639332547422409 0.8879518169063223 0.06148227567519733
Ni 1.4492042889756689 5.552174937011162 3.0158446250264537 0.7005060551534065 -1.1286032161479402 -1.0799669431974754
Ni 2.7059613929991126 0.16838503343456176 0.937810612907923 -0.3943000099394306 0.024393855463332184 -1.2046829300213382
Ni 9.180637696630539 1.2483451248227209 0.1594144172891211 -0.416454948769915 0.743753552988132 1.6800968738239646
Ni 3.5486416001552463 6.751345187827893 11.920692618987118 0.2849571631375286 0.49178929983685626 -0.05517870205467272
Ni 6.147387315522235 5.831465616487151 6.3225612238007285 1.3132745004795123 -2.0559960126587042 -0.5705481032043141
Ni 6.321898826760143 4.0090677612749985 10.383415463637535 4.078552257601725 -0.8376474122248154 -1.7035021401217825
Ni 0.6023875744262279 7.170332160660384 4.327510274782019 -0.23342659935840443 1.5170760778826324 0.17218189361530992
Ni 5.018199543650726 7.358693791837808 9.66146753945918 -4.976756348363674 0.01592901252543063 -0.19470012932248404
Ni 0.7409341688633352 1.289478591398944 2.1876732291327126 0.9095971630902399 -0.6895130464770125 1.2521452372683597
Ni 4.692013006560133 2.625973476238052 0.9315025549368081 -0.06659491431141434 -1.0063135793773832 0.937811934961559
Ni 4.379528360700674 4.500445929563932 10.781487365717215 -3.654035614869597 1.4591385821358998 2.681109352703409
Ni 3.1497118244258018 6.932174947760618 0.5997259426813296 1.2084323697614414 1.4342803854416397 1.5318882031948005
Ni 7.219720113434674 8.301076333969911 3.472003652203637 1.227916703738298 0.3869962771891658 -0.6685719254489713
Ni 6.526547087271126 0.7140630833218183 5.069728474831719 -0.32745492729042314 -0.06495840714925587 0.33628486687722725
Ni 6.3107909379257086 0.8303485050481133 12.091661464094678 0.2879360432601944 0.531848115530955 1.9081125865794428
P 8.216539648720357 2.0793708497822583 10.181396409841494 -0.6282480290189438 0.8199947321400588 -0.67724348508104
P 4.10135866083183 8.788517177192428 7.896828853327236 0.2609841972616989 -0.20741114913124925 -0.6646689908501392
P 6.831499861885884 2.5985419008929633 5.903241662803805 1.0394193607924165 0.9450177086813789 0.2437770893547931
P 8.87176612553791 4.367364342319012 12.817405896066488 2.848532134367178 2.0570416803143994 0.5696150498670836
P 8.295082335574683 8.678587061338044 13.110651382007287 -0.17235235775490318 0.886865268710363 1.7008605887338772
P 7.864200008894475 5.027788088224238 8.607617008623222 1.5999399045573994 0.05398956684257798 0.39869711056586177
P 6.9609591100697 7.619678225828523 5.932068440866547 1.9226506322946177 1.8377728605136157 -1.712236948891619
P 2.4160630965794807 3.6051260023433613 9.833710225029403 1.189100245091733 0.2528453702046484 0.22758479586564673
Ni 3.1729281458762557 3.372749709070524 5.0002240334710315 -0.9701605264955937 1.4793556805137231 2.9894447855555613
Ni 1.2630290312468906 8.101282563658465 12.667942257256987 0.23761724040098434 0.20210979152299383 -0.18945559309409307
Ni 4.874343582165234 8.364258820918074 2.520253982131168 0.6670796571741608 -1.8336675800959905 -1.2856060880299665
Ni 5.628753593479418 5.839034544908946 13.313592233083586 -2.7561472555758533 1.3675725997014447 0.9892759071688058
Ni 0.8766736821354432 2.921522992164778 3.817506242855361 1.1830815497014786 1.3306816402123662 -2.2143561698995735
Ni 0.40220933590241364 8.103089101041881 1.5787830465556174 0.5757494448995956 0.22516693045277353 0.6136117671630077
Ni 6.144885956068276 4.459933170704061 1.4427563401610177 0.025255946353311343 1.4057995043931273 2.3073444866028523
Ni 5.297694037600742 1.4029847248430614 3.0995586409444864 0.6090449737279318 0.1864916253697627 -0.4546376304872235
Ni 5.170689827399517 2.0040243444524335 10.016746739858178 2.145055683731538 1.0419894355124377 -1.9648223805666611
Ni 6.373102581212122 3.874448301180608 7.864137011693412 -1.0056947148464614 -1.916825026751776 -1.1309827721237102
Ni 1.7803472235028108 -0.25689888021591456 7.636870903142071 -0.02148130980222752 -0.3737460970474789 -0.5313233533757366
Ni 3.370924643098561 4.888202966399024 1.8533572738167516 0.636120232678169 -1.2059671960504006 0.6645080397922427
Ni 2.7319755313202916 8.133503779143174 5.571271426798002 0.7185860525835688 -1.1176983963099782 0.10678897003179673
Ni 7.29349168873793 5.5858043252255065 11.953262171936528 1.7633085707564535 -0.5116431013379898 -1.3033477282841037
Ni 5.010760315348765 3.680333543259077 3.64706731538027 -0.06486019100849474 1.1001349335049182 -0.9722937707885126
Ni 1.0825049930252062 2.998787206409305 11.20753187792758 -2.1281771628086443 -2.271596125358649 1.3610764504541397
Ni 1.4785906304125558 0.7671159909108719 4.842611521418188 -1.2972092194865337 0.3335538410993094 0.9775658178207293
Ni 0.5118235393220558 4.979428472114354 9.935757352886105 -2.0869556942650127 0.5691206267291682 -1.5564563794524677
Ni 8.737461651448832 1.0303377519687396 6.486478088106978 -0.12397679466499295 0.18430644479298583 -0.05375611067553322
Ni 7.951858761314345 1.6462002424163902 3.625128540110191 0.4030818698971187 0.8733068132996379 -0.6069610946157095
Ni 3.716464290927381 1.2668181276049255 4.741961449137995 1.1368873105336033 -2.2698053520068138 0.8100162807711081
Ni 3.0263206889914067 6.33161707145349 9.646850335953783 -0.5888096205176633 -2.4010030899002777 -1.8580395811824515
Ni 1.3620550727408651 5.801384452979719 0.2614152236744525 -1.5644882486180087 -1.7996086907390683 0.3383625753418624
Ni 4.208111123750258 6.463716643505373 7.300791952625783 -1.6580100692272541 1.624462829399428 1.744134311820848
P 4.4335577249061995 4.353857001267631 6.773879657219786 -0.2922164158031032 -0.769374595990346 -2.737855656355517
P 5.678123017665159 7.267181092999986 11.73963681027411 0.3352983345942419 0.8201986206207488 -0.5488240812636612
P -0.04140120468073928 9.1088486803019 3.5840840107589975 0.1965569800255647 -0.0784441003405165 -0.42263690921091085
P 6.431291613546639 6.906716667095874 1.4620242193919248 0.39514050356285496 -0.7606989225932189 1.760106518879388
P 5.522844181339918 0.5839970238630613 1.135844167307324 0.11091841881913801 0.7274093073021537 -1.6641313516336436
P 1.8850430130924265 1.279538003643023 12.702097857386091 -0.09327242360260066 -0.3441449863515944 0.20399415302990026
P 8.065411216229831 3.585430112716999 2.480322094522273 -2.341614720639632 -0.08078740376171248 1.169329747333025
P 3.3160059066427388 6.644472289083906 3.131762254270074 0.5339294235400159 1.2708003904757017 0.2476193459190187
