# total energy = -381166.17147974175 ev
CRYSTAL
PRIMVEC
9.23495563259225 0.00000000000000 0.00000000000000
0.00000000000000 9.23495563259225 0.00000000000000
0.00000000000000 0.00000000000000 13.51629105192010
PRIMCOORD
 96 1
Ni 7.122616524761325 5.140545702516954 5.513863242932351 -1.4171979760380562 -0.9260936180833663 -0.034255321638444226
Ni 8.893446971899031 9.125216653373716 11.971108602434649 -0.010102892761956793 0.06064512448588264 1.9858182660920383
Ni 5.31036730161796 3.2059425522166354 5.950020038939829 0.10396667009165321 0.3068917584270908 -0.09194213482695134
Ni 4.743276381176637 8.197666944737792 3.2954745235649607 -0.00037409550996709765 0.6999684374823816 -0.6695515157534211
Ni 6.374991456686873 0.7768527791514416 11.45307007232368 -0.8562881672544542 1.0749993147795551 1.2939937978730296
Ni 4.835413533508506 1.0074320748452716 7.054828256446515 0.6464599240412802 -1.2765424351658017 0.03181148808364199
Ni 2.5550721142896227 4.600125333938358 4.791389576519305 -1.0246715130592805 0.7784827289392012 1.406922305143661
Ni 7.215769522212619 1.4602034795287318 7.834150462733723 1.0783936851730849 2.2651830227434537 -0.1445278793434672
Ni 4.242695611190772 6.049597795023707 9.671744098111184 0.6323777349166012 0.19324051405782203 -0.8743905332821199
Ni 3.703586606311798 6.833054490946975 5.6662049180147385 0.0479958111529883 -0.30293508777218797 -0.007973248013463687
Ni 5.098969932265568 8.79698786033179 5.354587039666541 -0.42997612318480144 0.005818149343673851 1.3020197535012996
Ni 7.197041032192669 8.032693697343133 10.864530043933472 0.7686156063371343 -1.259512219156392 -0.1750525302948856
Ni 5.590916018736317 0.9714896275288805 9.278393168445158 -0.8633468738734486 -0.1701502078972618 0.8556356212721199
Ni 4.970918037484201 2.8722466654410757 10.77670099840353 -0.8831176287424727 -0.14513003170384037 0.9082349926353906
Ni 1.6502496314619315 0.5919874373273104 11.108053053439907 -0.10627294962732665 1.050106151082301 -0.8546850844333926
Ni 3.9580281038609266 7.2534389062320335 1.0263231000843285 1.356546166683954 0.849387326369563 -0.08163046848829812
Ni 2.7453399051579703 7.850866655921647 10.824075397295708 -0.2254644070885343 -1.8099288417181538 -0.8792589171180148
Ni 4.480274079757442 0.2846933652056125 0.6652040125621029 -1.5855273286764953 0.8105914365482878 -1.6850938128179236
Ni 7.792206217752654 2.165495510990044 0.18678159511759243 -0.17218215072562604 -0.9757390490246356 0.43490955593067676
Ni 9.01591171852356 6.638575560310828 11.856436311371676 0.9274850991142543 1.2814565846379673 0.3839209806979517
Ni 2.20683117239502 1.9224961234678957 9.205959717447886 -1.791458036607476 2.047756655468048 1.3796894375696367
Ni 6.653397664098807 6.6575718640440815 9.00641818413475 -0.2655224514516847 -2.290447196626881 0.7763227451734049
Ni 3.016053394529165 9.171816239488441 9.076040514637903 0.9932024959167218 -0.8191483249793634 -1.2114397891291975
Ni 1.0826969632390506 6.353787998557779 6.061840575703907 0.02624864928388383 -0.5781703956362624 0.3871055490735204
P 3.6170366021367677 2.3486062112442587 7.834907729095477 -2.440099541681107 0.8757848425264853 -1.280599893064627
Ni 0.595148562639849 0.650134411963211 7.728993869953074 -0.8450267354080221 -0.4382561038054065 0.8840424545495872
P 8.699291264709975 2.7522199471031685 11.879075805101412 -0.11832448147522202 -0.19157212521646363 -1.1524126598627122
Ni 4.393105333555126 4.734549348105211 1.6128314382356845 0.9933148531248701 0.10725742502778302 -1.4715207578503366
P 0.9389548788403793 1.0400776430013463 5.536543370466863 1.9091433418368025 1.2143109400294056 -0.5621112852908706
P 3.5191183675798055 4.273946701046545 13.068888095210475 -0.4606154453372132 0.4335430146004534 -0.3579448683491642
P 9.198597610818743 4.294254368479419 6.21887268475135 0.2392090103681364 0.6047980255261197 1.0300690299257678
Ni 5.4925545063090615 5.688390975422985 7.161363628102892 -0.13650526614930686 -0.7842319727181526 -0.5809232757910512
Ni 3.091373692656731 4.297791356486145 10.015152387724012 -1.9480060803402708 -1.6793497112452949 -0.013332712553164136
Ni 8.929592588239307 8.67427376990522 5.716202044306159 -0.2826256867908745 -0.7031499205341568 1.6845963043562147
Ni 2.7696463083791265 8.617146334370997 4.077581068974957 -1.6500576471493968 -0.005800151621544849 2.6739200340438205
Ni 3.456819356892145 6.31511200437457 12.360742462459141 -2.834747678988576 -1.9951171748954608 0.3267172777934502
Ni 3.1855425352274502 1.770599573246929 5.331893059698581 -0.08353025661417228 -0.0273429107893271 -0.7776795163116156
Ni 6.141070030550134 3.8317308506494765 3.6084711807888863 0.5698382216214831 -0.23097710937664734 -0.8605158321825567
Ni 7.116410634577199 8.927025270573852 4.1095469443965795 0.1142449120892097 0.6028460440060713 -0.4051233258071797
Ni 7.194870817619352 2.6764286662384142 10.170562838562626 0.6516764352452131 1.6246885722569893 -0.29599825144303865
Ni 6.327625369254763 0.28814446812496897 1.8334175884410595 0.18519630359710687 3.079085268832529 3.90066714295405
Ni 6.812072671753028 8.854724802937668 13.519399706250995 2.0927031382717507 -0.9647498970029836 -3.7118653813938716
Ni 0.19970683901893393 7.875994970193974 9.604338156959502 0.8777090561323916 -0.5379778825777768 0.24811736860135977
Ni 8.714621291057666 4.432520124188825 3.995861870090575 1.673388094345221 0.508912332670388 -0.836382686579779
Ni 1.3904703295580045 2.5878562067801645 3.6769040490067497 -0.5116107054381576 -0.894853429122162 0.666338408132762
Ni -0.09675832412969088 2.7456354237381664 8.594658293913612 -0.02357958709215294 0.565429036810194 0.4361735102447649
Ni 9.109175535442429 3.299160194357348 1.9360327214320183 0.4697809138865651 1.0658855254037451 -1.5311322988653824
Ni 3.666572904142195 3.3572480652772096 3.3644882704920223 -0.6712319887796375 0.30487832754148786 0.46122865344117986
Ni 7.9454418365401365 2.6499243435770468 5.072501625931162 -0.23241332760254166 -1.134633738612736 1.0210922803484543
Ni 7.803509803445168 4.708072730310736 12.04984121666792 -0.41424868514721563 -1.2435472111867034 0.9885742531160908
Ni 5.109350022394969 8.000445232279198 10.012368048601223 -0.4351597242682699 2.537576747393675 2.131204122560426
Ni 7.070845363493162 6.491028674192128 0.16470451018579266 0.2629181810596182 0.7598717987062333 0.1685494390690452
Ni 8.533496106264144 6.601395628939865 7.753295655696415 1.4017353616260826 -1.7589808899153772 -1.0664043740216924
Ni 8.532120097875104 7.700992560983899 2.2845100781907783 -1.1825159070059958 1.4234033335178196 0.5092383485512391
Ni 8.40854715657484 6.7266123923424725 4.599999738541774 0.9213874708569487 0.3826413426545797 -1.666105701751195
Ni 7.710467625461448 1.7790218527825274 2.7543227465003786 0.04996553328484943 0.09339429389244562 0.8819099815876167
P 4.869241175985366 2.421820939487925 1.9257200464787259 1.1788042624823631 -0.21450585119450155 -2.7117152505147235
Ni 0.23230438540572673 0.08089267035539488 3.5127083848762326 0.8268683193314403 1.1202679568093674 0.8169497746661478
P -0.12009228652288861 7.818775185103441 0.28192934298521277 0.403064386395622 -0.2754055148933515 -1.0725369692819915
Ni 7.497629603030598 8.51431510341827 8.040868480067818 0.09746075065233538 0.8357928755145799 0.17162062179520118
P 1.4499619137337991 5.8395671991047235 10.318498516313397 0.7052065459528694 0.6073125644178573 0.03956747787997701
P 6.67622647441898 1.1146683796340522 5.88206000045028 -0.38020547951957745 -0.7454947040489548 -1.9265769639322174
P 1.3843290840632976 4.6452473271521 2.757742450570589 0.7653222802978432 0.4213189617304357 0.6660561010056529
Ni 7.00797378555637 7.406536000685048 5.932786688236561 -3.0948430458874188 0.8598494022431513 2.931965203281854
Ni 5.5457016759662645 4.971703008712848 12.412835000183266 -0.9079388015512105 0.8245512411624896 -0.15253583724960829
Ni 3.248543402543078 4.864789927371158 7.16775698788633 1.0870783574312761 -0.7262263427376461 -0.24335542843634214
Ni 2.2020659352893523 5.993855602834154 1.2600265812681728 -1.7365040489690997 -1.1299972682819894 -0.8828497197930667
Ni 5.692334301477481 2.872108141106609 13.271578748393829 -1.5207093037598454 -1.5205974607723296 0.9226084877482433
Ni 8.929047725857071 5.696757845224797 1.5377623309012856 2.283417286363293 -1.2787209308743592 -1.549265003910351
Ni 5.238759455654112 1.743393393957595 3.7951715082969253 1.0008661831095664 -3.216924937522544 2.0139217091964734
Ni 1.255095114961145 4.83999407150155 8.198306003667467 -1.3524879374541805 0.10360028789116996 0.6761093714765969
Ni 7.040462359466716 4.409635904134864 1.0915458977248076 -0.619220628709353 -1.8946814007752015 -0.5398190495515734
Ni 1.0554261392602986 4.837999321085224 12.89497448726931 0.5279840045898584 -0.7249515897902805 -0.5108527442262105
Ni 7.383688720453611 4.189908604803184 7.632419321440444 0.596184829935812 -0.18363590108852246 0.9170621040087173
Ni 8.696964055890929 5.174160941014298 10.006597124827325 -0.7000923646547556 -0.3108826247540388 -1.8132324521700902
Ni 5.254135656779958 7.351523369990355 12.430730497205287 1.7432675929451782 2.3185079594188394 -0.6094656062051181
Ni 2.4393673551870885 7.003097728983129 7.873969744424065 0.11604108475768402 0.21643572122736274 1.2126158117151695
Ni 0.9548482374815688 2.1807424227370533 13.280837714909609 -0.6516301553883099 -1.1189248125179116 0.16035687595592382
Ni 7.12882241494545 5.832326993889911 2.861736362437277 -2.1974601654751833 1.2670470940808565 0.9755169057115005
Ni 2.528540086761362 9.073380847416136 6.732032387802388 0.9447114902948698 -0.49552485561988857 -1.1140919099056426
Ni 1.6532602269976826 2.7823443723719423 6.901566779783265 -0.5910354245243885 0.46504648452537334 -0.7426194393836888
Ni 4.883546122258 7.75688251246355 7.84903167023774 -0.9620160430115885 1.2975162092039911 -1.783862740758721
Ni 2.928533720012865 2.7283660567079377 0.8976358403555393 -0.058566387579983004 0.44213975513052883 0.013053490749848488
Ni 8.414466763134401 0.7338714486529966 9.93358187162529 0.22809798805663942 0.49901615660259874 -1.0288667820875506
Ni 3.399230173576365 6.304944318224687 3.208158941568109 0.6630602516021226 -0.36080882016052057 0.7417974577030256
Ni 2.1286849778443258 8.48916831923468 12.96866481572798 -0.7706238950164148 -0.8493667575442727 1.8709393199632556
Ni 5.087564762061112 3.476776096011035 8.452723490331955 2.4318902663974375 1.7667343086085507 0.8026950645193467
Ni 2.6524362515087163 2.6556315461570907 11.888766967540727 1.4426997198535865 -0.046909520067345015 -0.7453661488908905
P 0.6338356387698146 1.2893106255745133 1.749291760119203 0.5048888133332918 0.21413869766306992 0.16853812621513556
Ni 1.162459275025194 6.655512468938337 3.7781145452462117 1.1698390828692755 0.20027685207931314 -1.5005240870612222
P 5.98789905645207 7.5317527640876545 1.89113144365786 1.5407299698561465 -2.8768428083864133 -1.6844669778672023
Ni 1.9429700201021296 8.672186669932584 1.9500901708937375 -2.8714105816272486 -4.493655320329435 -2.5710249997497914
P 6.020553859563776 4.786754552288036 10.269840458588492 0.5494845976657956 -0.06969515050329286 -0.25619474629285555
P 5.047466584710708 5.434983792904544 4.39165913950329 -0.6320645745515565 0.21487737560130735 1.05876176987477
P 3.7613512537845697 0.3310907057920156 12.045570049688518 0.5911097294057497 0.5066651885074241 -0.4715416053314137
Ni 2.996900096550184 1.0167132052545658 2.4665744579719857 2.5570312565738607 3.8881605258466068 1.8716594859587314
