# total energy = -340890.83738572476 ev
CRYSTAL
PRIMVEC
9.08594994305937 0.00000000000000 0.00000000000000
0.00000000000000 9.08594994305937 0.00000000000000
0.00000000000000 0.00000000000000 13.29820616356363
PRIMCOORD
 96 1
Ni 6.758456639345197 1.9983093081240304 11.111408947868844 -0.7285891865428678 0.8546709433660055 0.7274545587177923
Ni 4.749943809469079 0.6160910057379312 5.809906183322578 -0.7494981687813931 -1.659659431905219 -0.3434698146614407
Ni 2.7201425989472487 1.7693706281709483 4.715025595359158 -0.14955181492061986 -0.723996682076179 -0.8585314547626763
Ni 3.4195426794357378 4.600807027600211 4.82833920250679 0.1323753031413333 0.6298426271995734 0.40173461184060494
Ni 3.6391046590787997 3.2383506662744734 3.0156876519261697 -0.08132322166052446 -1.2608417366010933 -1.1503483211345156
Ni 5.32639281573742 4.667161719813465 2.4235181351186856 -0.9754685689720684 0.10912995946014754 -0.3046217314459915
Ni 5.43900407895679 4.497854129138156 11.676994792421429 -0.18655230340436904 0.40804589877061337 -1.8146663564031393
Ni 5.723648717825313 7.817051577736817 12.514503128774617 0.8964801660923076 0.5668963653843399 -1.1354945439511348
Ni 1.7835901397844964 6.957947755630861 0.06760491892125667 0.758661580448216 -0.07380480179629224 0.7536792967422762
Ni 3.3765207065985807 1.9173171506012392 0.138325410067616 -1.9328676820369357 -0.6616047501025187 0.7436437668831452
Ni 8.162272244674046 9.10012399467433 6.693066875012684 -1.1135046699436049 -0.6197736729993455 -1.0550393267178604
Ni 8.644154684249855 2.41006638627277 1.2937411393251348 0.6327181489751555 0.4074383470936015 -0.005634058357325781
Ni 6.903077704107399 0.8851559662909577 4.542281698426826 -0.4846925408910749 -0.5476647708482374 0.1635797537685957
Ni 0.9026173448333967 7.664934604296546 2.4827748832600522 -0.5201169431369559 -0.4111592475886145 -0.2751589461001842
Ni 7.627582264204983 3.6969458162237507 3.5188648323126324 0.9279998339671437 0.3467142897406674 0.1948212282813806
Ni 7.822357772485899 3.8861243793583746 12.667963914206993 0.506418619714257 0.03356857998406477 -0.7586407545126096
Ni 8.240484101523517 7.371685570860593 8.816045410485376 0.3895810071972065 -0.6699297250284462 0.11466888700050575
Ni 6.98106241220905 0.8468232522038022 0.4377210886195861 0.14110702658737634 -0.24703159173634875 -2.3282645245849705
Ni 1.926866483959603 6.8098831158517035 9.11243636540118 1.1679917452478918 -0.44982349692803175 0.2637424767331264
Ni 9.316187883600959 4.993628986130653 1.2325672557521654 0.08914914546284647 -0.1805983998137793 0.5589925371562309
Ni 6.446890330885017 2.077538791363737 6.663079605920443 0.609385387786486 -0.1702078006080746 1.9602180490254304
Ni 3.573404155259268 4.4544778042544 0.26192976408649665 0.6845148219314727 0.3003207900777924 0.2779591345531407
Ni 6.085151407006299 5.428809643154618 4.53265331730422 0.5268488625441508 1.0055309355750877 0.6258332489298641
Ni 5.618769597981744 2.937587552260626 9.171147956547776 -0.1678585836496077 0.34068608126871647 -0.80315374932332
P 0.3498336037079629 5.616779774950838 12.327623310967935 -0.5897750697547263 0.28367958197668564 0.23251848572183825
P 4.097936043725809 6.232125732795918 12.41231981027018 1.0090536040163653 0.31850723117883206 1.1472755957464629
P 2.4402499118831256 8.782824451819167 1.140298525792585 0.9945168438527711 -0.1266491992908335 -0.4477049079231322
P 6.44202026173175 7.979399330778913 5.626550805487074 0.06799616553431514 0.6689231381408027 0.3631924899013487
P 4.974194139267151 0.9981461136216933 12.26365913217674 1.482960367145846 0.42192034275986046 1.3160368937159979
P 3.9458645000351025 6.3929743041024 8.128395280424133 1.9855094766023675 0.23896012758212393 0.4693502541070498
P 4.717924921976336 1.3846442510128198 3.741104441395 -0.5396046195479223 -1.508889685417098 -1.4886373629259653
P 0.3559502651892668 5.690203336196259 3.463345135370405 -1.1369433605825192 -0.07725187980462823 -0.8476852560767917
Ni 0.7060882482193089 9.16381650356313 4.728788992287084 -0.8856092848160747 0.03999890899044079 -1.261065679686441
Ni 1.6712514550625093 6.6361870113685075 4.774707565956445 1.2199665956532861 0.8119978299775112 0.6701207579933297
Ni 6.260092286627549 5.690503172543381 9.138421273556826 -1.0735605254504996 0.18206495705697676 0.2827552703902034
Ni -0.11898051410825149 2.6713692198152827 10.235044546713523 0.46141428708942467 -1.7763409784603796 0.1820536442030671
Ni 2.62642102559661 5.349071346719794 6.996784739938177 -1.6633353380949094 -0.7582579172518941 -0.649496653985075
Ni 0.42222772682826193 9.321730313047773 9.452816946819853 0.15001307082775456 0.46648707362664177 -0.8811674469946372
Ni 1.6525889139415968 1.1010444963842705 11.574466207820302 -0.20248105881948356 0.88665161003766 -0.2020732818581036
Ni 4.50572256176265 7.025792543629816 1.5097450609823404 -1.7538011454866504 -0.5091869264880134 -0.8298816522364676
Ni 5.786605264771176 7.88893052749706 7.846034849363691 -1.4346709360118388 1.2837379244729763 0.4006570625057099
Ni 5.471658982943431 3.057204082862774 4.7504517140692055 -1.1186543324653444 0.64843504548978 -0.3780159280674264
Ni 0.8825301267661556 7.808474441019124 7.149607691686674 0.5636727162407196 -0.38475967454916316 -0.8708951185343518
Ni 5.308993221654388 4.476901928639216 6.933777311672802 -0.45427664760337894 0.27193349718435106 0.5118577884519572
Ni 0.8045535960194258 7.5144894456402325 11.098735864930457 -0.8826720565646217 -0.25166420541235374 1.094585978662231
Ni 4.953405485866642 0.34797643554578445 10.232118870841598 -0.7122691092266056 -0.2631066429213404 -1.3300638041227093
Ni 8.108510679039947 7.361164040861557 4.484674050194634 0.7697875151580484 -0.495915663300404 -0.06271100587597588
Ni 6.967169994792363 6.2116005719428795 6.864919440258569 1.4938163360237435 -0.28517724956813467 -1.4687023145649352
Ni 2.5818180974746237 5.474284822468234 2.35202715541972 -0.6123719812186357 0.4863964109560591 0.7637132839395104
Ni 2.40764043764605 5.480008970913304 11.390844611652353 -1.2738456050599287 -0.6452124247874242 -0.36526068528428707
Ni 1.010039622057562 3.490440346605397 3.6952258459052554 1.176501839601432 0.9686610591319318 0.09167731120133887
Ni 1.669543296478901 1.2779206833369494 2.4126540648079384 -0.08494564890446016 1.0881229966457067 -0.09254942939364706
Ni 1.1803830110229305 3.457712755019454 8.173130863414846 -0.15471047630342388 -0.2701612357752767 -0.8346050258540658
Ni 3.705550210791182 2.7336715783674235 6.660659108863671 0.6591570598929745 -0.0004715403197798331 1.294368664713945
Ni 4.60927513291895 6.8012151196348825 6.013182506341919 -1.054292678359823 0.28242668340619104 -0.7510943096239193
Ni 0.44275288768130044 0.15304283173638616 0.3551752336617041 0.24289083009509785 0.010908419382387664 0.07749639171526652
P 0.5859974310317119 5.783134431904482 7.865875838188295 -1.8845731086966062 -0.891016314764259 -1.292119206558136
P 8.71859587188551 1.6444206449699805 7.923044635039697 0.8328895858248558 1.5627316709382184 0.11236594989894198
P 1.985879728643306 3.4111018319667368 10.401510960851095 0.6537759980867193 -0.8042202429146214 0.19412265955245922
P 4.247617982589447 6.335414811404747 3.6408755107168065 -2.142520318904194 -1.2001194790203717 0.13797490871629786
P 7.360446250818446 4.1358517127119665 10.28577685664669 -2.0797661184951086 -0.2388166600257242 -0.11846743481098951
P 6.4619911796401075 7.891283788524478 9.90184459151094 0.2675327970134941 -1.0933816739414846 1.9254279379294388
P 2.549717436432665 8.703931148726236 5.684916221941994 0.23796511065870632 -0.8551229433017596 -1.1878915694956123
P 6.99583616676728 3.903896497387832 1.4224826894247184 0.544229005693811 0.8370442314231779 -1.0355791611107197
Ni 5.500061662370876 2.862637551429853 0.01979646767003118 0.6852946375202907 0.2290724361547668 0.7338038979745878
Ni 1.549581499780066 1.1915678153656002 6.7373899558773545 -0.7608565312170057 1.4053045670345798 1.6159051696374043
Ni 7.059519589706167 0.7312181684881598 8.836937643714892 -1.0141919536841955 0.17238423943410314 0.7789640394509939
Ni 2.6949563457889383 1.6295015152131458 8.956487846882677 0.7177332176649703 -0.1375668746446018 0.8850984066179273
Ni 6.2938102467539885 2.000980577398397 2.373277375075801 0.21108859798283647 1.1168270494486185 0.6318432025693699
Ni 4.157140093357682 6.848053191435419 10.268290037444496 0.8960294517081342 1.2355935035572656 0.18134093440675866
Ni 8.17893587681414 7.305612543094635 13.394884428386392 0.045165026572412545 -0.10332672251480914 0.039645639416080104
Ni 7.695154473706554 4.196200592032853 7.889532925976279 1.1162863464538 -0.9744306146258573 0.6396110194402468
Ni 3.5307001906690596 8.510264126334683 12.203351139630463 -2.123191536668595 -0.31895460312889584 0.210195910965238
Ni 0.27748581893221924 4.915916856526387 9.881324882227851 0.27198697613010575 1.98259513116905 0.7755228749799289
Ni 8.596008235661873 2.245029192056483 5.582081440828806 1.4279025069397537 0.7474757390347255 0.11259760629377381
Ni 4.064109052200417 2.5606205763280374 11.063456030014006 -1.0290537012873762 0.6695078069996793 -0.1934693422391765
Ni 1.4202702606209492 3.5345435474821785 12.83088044771363 -0.8181725913296554 -0.3284149772108473 -1.1876748254991158
Ni 3.1264481071483012 8.592192136698493 7.716111217180451 1.573831894616438 -0.30637856623609816 1.1098794144861919
Ni 5.718215319777452 7.763862426947226 3.494063823430625 0.8269619074865114 1.7498233917858252 0.5582597727552644
Ni 3.0059502394046107 8.550160532401833 3.33762375502184 1.3924534221035245 -0.4564235187430526 0.6777906158337618
Ni 3.6245943970680417 4.576020556238064 9.485729891784018 0.559292842005469 -0.5751259523829837 -0.9307460292537131
Ni 7.382843117353523 6.15327785945255 11.326520629244612 0.667637843670476 0.2780802335120372 -0.3287926722652402
Ni 7.892083352116805 -0.008638921177100077 2.5602634984964636 0.7176211175671383 -0.7136865583994225 -0.4175055015216165
Ni 4.8935109040413955 0.4451797449030121 1.4738001345322713 -2.3418638605359603 -0.427565971081412 0.27272334007549803
Ni 6.2001886188523905 5.722285825338392 0.2665145344125007 0.0024194080747700266 -0.5604596086200605 0.27701322570010356
Ni 7.919604694402707 9.064952282561842 11.276134494003122 0.14029712909157127 -1.564374348747964 0.30329478510445185
Ni 0.007326910009690262 4.805077353540012 5.757458446045872 1.0798810683518887 0.9273701708029447 0.16794368716424624
Ni 7.360391735118969 6.13128986066355 2.4004461825050862 0.890078633441338 0.21810976649567598 0.22576342638619182
P 8.833524052332649 1.7781749136364615 3.3967205904447404 -0.8273640280209363 -1.3987436259876103 0.8056857717165543
P 2.0237499678798994 3.4255303204282797 1.6282194876804483 -0.19595996987151412 -0.2791413277866999 -1.0090723730694426
P 4.850925056800054 1.157513675092387 7.949055892450091 -0.3429183130333449 0.4583616163060299 1.1355007145987217
P 8.651259897081673 1.7145823501967021 12.359273308894217 0.44462266945338264 0.48208287118236975 0.19918387612545052
P 6.392447319007457 8.007938299455049 1.2802684927944197 1.689271598344697 -1.214536168666334 0.5846081808418061
P 1.8013259140143025 3.4109655427180448 5.997916293298415 -0.3082174192170498 -0.30240724029317595 -0.7504222232575591
P 7.152178106917007 3.935161251037812 5.739452819103656 -0.5723417047696272 0.6633271321102641 0.7456178598903804
P 2.3643277144116825 8.694772511214122 10.1012112302828 1.5260965362136878 0.6750061111100891 0.3247023042459505
