# total energy = -381162.46903313755 ev
CRYSTAL
PRIMVEC
9.32690638603932 0.00000000000000 0.00000000000000
0.00000000000000 9.32690638603932 0.00000000000000
0.00000000000000 0.00000000000000 13.65087027412265
PRIMCOORD
 96 1
Ni 2.885987377233925 5.592310554149658 11.425805584031451 2.655351527013014 0.35884346890403357 -1.85674863028517
Ni 4.7475726305230825 5.239315123041178 3.908899061516603 -0.917025337233511 -0.37158765594357945 -1.8041847401455253
Ni 2.176844020612795 6.554614134476167 6.436794785918855 -0.8902167016810992 -0.11314268016396643 -1.9002655797311985
Ni 3.986357154794001 7.962893077021162 12.338338925779446 0.25253529516339734 -0.8310126805171173 0.5669660422800107
Ni 3.567933474439188 8.011850009351026 1.2494342629634616 0.5194451138809119 -1.0403359590694148 -0.5945583500759825
Ni 7.828977353189535 2.9402979539069687 9.077460271687833 -0.4569354253824647 1.3432404507139835 -0.4213439014311002
Ni 8.965917931219302 5.137372034764282 5.672496767584512 -0.28239994393331364 1.3471726958888541 0.248069803192876
Ni 2.280596528754807 2.143798790808125 1.1767748630912291 0.6693306579918668 -2.258447503791833 -0.14061003234629976
Ni 7.484702579678394 6.56590901827336 1.833243582443137 0.04269471065504905 0.5601269078709902 -1.4952990912168571
Ni 6.427861474852834 4.075970072649849 4.836134406013989 1.0731589191367064 -0.5490829913520027 1.5089565340992916
Ni 3.15759622203827 5.292021471792573 8.037905655408698 -0.44503944527582706 -1.5216510988478247 1.955344780093529
Ni 7.829070622254748 1.1029813113860165 7.29161229742291 0.8331004162840813 -0.21480461338184298 -0.6642655847641333
Ni 5.625859436906474 9.004745843067125 0.2062701338606148 0.7472769927603582 0.8083340079726788 -0.022849393794347743
Ni 1.6866591214837428 9.042221353469373 0.9843766372996194 -2.059356187380189 0.4771610084007202 0.4711649387182853
Ni 6.256367644647228 8.531153510639317 9.968998746856569 -1.1609975733182456 -0.19152944490398627 0.10371547331279557
Ni 7.921761419262597 5.809795360411383 13.186495160646047 1.2816630442218184 2.413181634244341 2.594965826836105
Ni 8.442958282574693 0.7459408009192854 9.630115858005341 -2.2582459293039885 -1.650159977055216 1.2461278274296863
Ni 4.2429216993796235 4.358248898514465 0.5024432523698873 1.6331634424972197 -3.4200161191222005 -2.145627754184924
Ni 5.3635215371842175 6.5503890458220555 0.5617371951972167 0.21004935808504474 -1.302186618096467 -0.5750022823209259
Ni 5.475071339177966 1.1933403817635617 10.59304807183138 -0.2176621374352961 1.8439198539516177 -0.86406138344197
Ni 5.365461533740631 1.5177768251040762 2.912481387898093 -0.19232005912608172 -0.438081011680123 -0.6408096677340382
Ni 8.486057917609235 0.37693666745779003 4.819290012836673 0.9428597817981117 1.3304841794895794 -0.45726915457279954
Ni 0.02143696194836392 3.0299854870149865 4.780917254027084 1.4635451958440278 -0.4125581848186702 1.3623198359429376
Ni 3.975976307835887 8.72422980253502 10.149913685339255 -0.1784859814564668 1.0410404413356071 -0.809446010089935
P 8.005349155505739 3.4139928823065104 6.628562512829631 0.6701688376224458 -0.49482937221476075 0.6832606378093974
Ni 1.48997331676433 4.11899509243222 1.4180526078885778 -1.5343929718945253 -1.0939995100311417 -1.6447598890855673
P 5.076252816330752 6.187833535529329 7.81652966374632 -0.4198362065373222 2.568286003552074 0.13924014858196665
Ni 4.222178659276438 7.808644696973284 4.282387571633499 0.20320868101412748 -1.5253732848944181 -0.9550349837080649
P -0.0038464162493496695 8.374750615185038 2.2094210397101 -0.24428102557440515 0.5112440661273582 -0.29758745030702943
P 2.798370417373618 5.685206543100974 4.440368579671167 -0.3040110944451861 0.9256333906174962 0.9915022253961634
P 6.456681616003394 7.163829014628984 12.359497945913477 -0.46912733946296625 1.048758378805155 -0.5768815016215098
Ni 2.3990016070416504 1.648194958990246 10.009924279981014 0.5070025172421849 -0.4439945489510805 0.6916941132887313
Ni 7.185364841786472 9.148865202632962 2.653756731762156 0.6482057030877934 -0.28933832292435974 -0.2962157667704834
Ni 4.447292875072519 2.6509120252731853 5.0213770291225215 -1.0772629140027512 -0.2816422398316827 -1.2107414775105922
Ni 1.1784639658622211 1.1305609739692537 6.4825385989521624 -1.0252875493767244 1.0186939553196068 -1.0359126331907387
Ni 0.5407040883012214 1.9514593245275993 8.565975516136279 1.9931196848494577 0.6236907486655646 -0.589424628393843
Ni 6.272605788900665 8.808908786841144 5.019657147560009 -0.8475551582568306 0.7282618851104361 0.33081587334285606
Ni 4.840226119904847 8.727447585284839 7.35126719153261 2.1169522406271026 -1.629805324658264 -0.018192097527994475
Ni 7.432910267766078 0.6655950973829184 11.82486194299496 0.33651446638953014 0.27770768066396684 0.9572173360713644
Ni 2.9715151100334802 0.546612683582412 7.616585037888394 -1.0402768236967053 -0.13804972781829128 1.943503050263595
Ni 6.783776227702456 4.178733928700612 0.35123451115727383 -1.390310921839225 0.0884894003916605 0.4980103410459037
Ni 7.555745626650499 5.146885479415923 11.249327454980907 -0.7649726102679084 -1.1997955200220498 -3.3179224976835444
Ni 3.9963555985847456 3.3843519733820844 11.40513809187109 -0.9336542040394435 -0.06251997291109232 -0.5390245786747362
Ni 1.5388089993094194 8.919115514295836 4.776644598149715 -0.42798248979354037 -0.6303205952772564 -0.20005702275902318
Ni 6.589618014650291 6.725287196907907 5.946497031220896 0.14633562197616734 -0.6704586009487227 2.249379994272926
Ni 8.605740782089486 3.3832793791321447 12.755236724227387 0.16438990837471687 0.8437599528804565 0.5539570316148523
Ni 6.074259794820477 3.918681121076055 2.366815385327584 -1.2784985304509078 0.23162477026297526 1.2477663914743737
Ni 1.470937100554527 2.1576212662725682 12.696265492365693 0.4537282312990767 -0.14753941247628138 -1.78414041990014
Ni 3.6543565902647797 0.2542552025309693 5.430425303042208 0.1230375706801752 1.690558435476921 0.09267155679380815
Ni 3.16495515128351 0.4545710392684395 2.792176418752878 -0.12444113589592116 0.2375642756758618 1.0653175687154168
Ni 3.7815849221206936 1.0855399961913417 12.131432696894084 -0.327560599630352 -0.16606138253986882 1.4034446310077053
Ni 0.3955708939965284 7.766934771010403 7.629211803936817 2.056395047869336 -1.1228915104751438 -1.713478020387572
Ni 4.250066109774876 4.967100029312955 6.101762044079587 2.083532527516076 0.22949769661764347 -0.00759735273128369
Ni 0.3483431701356967 6.2725218467419745 11.826158383001408 0.7531493923807351 0.9716144853333007 -0.4757224761819807
Ni 1.4154046991272045 6.200881877752511 9.372796766682152 -1.3632732009951425 -1.7632903159240085 -0.36935490995831877
Ni 0.7509558785557435 1.2803977272325962 3.1240566661879754 -1.022487103813452 -0.6984633136917648 -1.6227928978961728
P 2.23177950002276 2.088070524343857 4.294823136098237 1.3722170404519916 -0.1461319906057935 1.014837300577678
Ni 2.2161569315997225 7.298705409832294 3.142171384033482 -1.3906839889079274 0.5662026817514249 -0.6171007541528727
P 8.504292019858214 8.032406511323787 6.038230887619669 -1.4653143719293087 -0.8659719702011215 -0.1021401584058757
Ni 0.4297083045548328 6.40727699216051 1.2668681166329194 1.258549855243123 0.09260625077351148 -0.7085865181686958
P 2.2549009012888557 6.663347210700508 13.215639878143543 -0.16745080668822773 0.6424289485050162 0.7370046643000726
P 4.912938683144251 1.3285991801342427 8.395380799719316 0.12897039122484238 -0.35019196387662266 1.4018490043858116
P 8.702348879836245 4.171076538446694 1.288410472624973 -0.1034226246627251 0.23377446961612644 0.1094415771632954
Ni 3.0586937052872902 5.497698414398438 1.687643110121731 -0.08572957825833623 3.82202866721454 2.040363191217454
Ni 5.483829304401389 3.4597973202322043 9.381191915241898 -0.5353826110467748 -0.2890727279677989 0.32349260020856546
Ni 8.482177924496408 5.609490715961739 9.019894604638885 -0.40860897036293503 0.06558241388649995 -0.127589965937548
Ni 0.8287385481800804 8.634281116044408 9.472830637194155 0.4945591492725095 1.5889936899585408 1.0691860505318878
Ni 5.019368013457852 5.996753201629167 10.075707884365805 0.06778584929572197 0.6205645443317571 -1.1939979395036664
Ni 8.093786883139913 4.804065703322091 3.2670493354460493 0.4591835979866931 1.0042330426992705 0.37906390971596654
Ni 2.3378450809820337 3.8490930715212586 5.656334171273897 -0.9237426013526865 -0.38254261229318637 -1.2964103777343223
Ni 8.374293596765499 8.474278034672938 0.008761695986030745 -0.2162053503841115 -1.1577641539826127 0.13145767642307038
Ni 9.034358771271988 1.3033419172747887 0.29940209354691755 1.5734745112770192 -0.319448769156495 -0.13582983734883702
Ni 6.220710881016617 2.991586612867138 12.251219090036718 -0.6712942094761406 -1.4984399508386839 -1.095130024091159
Ni 1.092404599390957 5.0351304854787085 3.3776757736941976 -0.19572419971162422 0.2936454349401459 1.5144142147797532
Ni 8.066673565882738 7.79589481575878 10.976296256932077 1.0734962478714674 -0.5439873219966502 0.6140735372907747
Ni 6.390357983731024 6.713488660158568 3.7312877133237294 -0.35725889802573313 -0.1784229894290153 0.13850584151910342
Ni 1.533455354966241 4.495261155311135 12.565161830850212 -0.5908837294378727 -1.8072710923803328 2.757606099509567
Ni 7.239647437739952 1.9327029155134332 1.3198561379612543 -1.9756678079215977 -0.343380340271428 -2.206351297317226
Ni 3.7277127100541474 3.1912570276733403 2.642535530526481 -0.7043411126287805 0.41431193428498325 0.5578707648469617
Ni 8.625000844055798 7.246782521228683 3.9355320430879366 1.3620912648718992 -0.1624358699721396 0.6028876958772843
Ni 7.681705499219527 7.837390222871673 8.479770649923283 -0.48262331706687206 -0.17483115831269888 -1.0359154614042159
Ni 1.36346315671055 9.096849044964138 12.39544104557429 -0.49766118523660097 0.14118878766790524 -0.3691271102182288
Ni 2.139732259564875 7.627656075929078 10.864413484375522 0.6921443134522725 0.505959163579335 1.0293936011252982
Ni 6.526381588436445 4.78343458609716 7.596231862477795 1.2894316324236437 -1.0189024717859871 -0.08503640884605355
Ni 2.9479273634413237 7.539470174770976 8.380664806610142 0.7340016158076907 1.1489000187237632 0.05798634670679691
Ni 0.44917915460852426 4.077471704599764 10.453194839308347 0.215728410747693 -0.3630868175614198 -0.4065808841893127
Ni 5.838578193935858 2.401892948063227 6.802419781147714 1.5084500267765182 0.3435235507175116 -0.032809076110220915
Ni 7.833482249039283 2.5521494121200248 3.2767138759833334 0.11755932117442335 -0.8578069178918258 0.11204199090061993
P 2.3651076287435493 3.6746332850419043 9.27846909757983 -0.20600578414329035 0.14312611389993413 0.41644877812232795
Ni 5.310768553900218 5.236302532234825 12.22889980273145 -0.07081358037845224 0.20456108127696385 -0.10609554350919793
P 5.073529359626556 1.9648247815725024 0.4364656483294541 -0.06882817451730727 0.4470490195066882 -0.23363151628035894
Ni 3.5836772926470015 2.8623716499222054 7.567687797760264 -0.7663144690077834 0.5568906603218796 0.09088001211102413
P 9.005986321634447 2.130526602828434 11.191829874349564 0.34817724743943906 -1.259142237411483 -0.8721966109545948
P 6.638351101223647 1.5525755133347348 4.63690049043298 -1.1879843863197348 0.565241089169104 1.4754638016584847
P 5.428539402543619 7.853591059499026 2.2009979104307895 0.45905967081431903 1.105003574451129 1.2747742875217851
Ni 1.012650221728035 4.0317605357392825 7.479652992487806 -1.0089561592065528 0.3670956816104968 0.9172569936283428
