# total energy = -340863.7686088307 ev
CRYSTAL
PRIMVEC
9.36161023836554 0.00000000000000 0.00000000000000
0.00000000000000 9.36161023836554 0.00000000000000
0.00000000000000 0.00000000000000 13.70166286991316
PRIMCOORD
 96 1
Ni 4.570319260492244 7.907901721117183 4.973936648578202 1.4163327998242834 0.9505795190398726 1.9795316617523782
Ni 1.337165558999442 8.044796543599409 9.373553504530497 0.5992830092451614 0.35184826853312307 0.7197749306853475
Ni 3.7470686419964134 8.641571093881465 0.4907290411093882 0.7535437996056764 -2.1098313133116053 -1.4748379951490278
Ni 6.757640705019857 1.829960707427563 2.8412448789869926 -0.2248170033125225 -1.619108249955734 -0.8547920423249019
Ni 1.2141820889215504 7.461502711663411 0.27611132423516327 1.2530764908333776 0.09338375236948433 0.8743527380656491
Ni 8.794315122030271 0.6495908813687156 1.771159499091851 -0.6785789160630119 -2.653304671786314 2.173569217790199
Ni 5.375548779810184 5.547362407452686 3.7434316565259667 -2.5475590554173673 0.3148315820994578 -0.019624716209462975
Ni 8.965201950286483 6.525950220056948 9.76809293943578 -1.1196537202641361 -0.5694163035927161 -0.4822240247459243
Ni 1.8408108133741472 2.8707376950129793 12.352363497273034 1.6439942145641366 -0.3415774827347343 0.2900592602507843
Ni 2.741332160500785 4.511668774076929 4.272849423127545 2.0120900553043737 -0.16245926701090732 0.789755216529227
Ni 2.7570690268478155 3.3289042481896636 1.1894234390536202 1.804654480693092 -1.6321303732470152 -1.3088133793843653
Ni 6.257028612273015 5.009753232133885 8.731890970639057 -0.29381332797657783 1.7516622447667771 0.09287313128165296
Ni 1.6248852795881554 7.562804693068061 7.0125929184176865 -0.9463521112220862 0.38763905297948725 1.0591006412714277
Ni 9.12929224970989 1.346152704563481 9.508954214062703 -0.1500135850483868 1.4924634215402748 0.3468343602582995
Ni 8.16862255857393 8.915304569186143 13.259975327785302 0.10613411005661721 -0.32088884403713125 0.2363738549121865
Ni 5.230930629108863 2.0822841807479113 10.851428742071901 0.2884178679926194 0.34432007847687796 -0.5643005796327056
Ni 6.532288030001587 3.2672112385365235 12.502451636675469 -0.7494210356865545 0.31951613205932067 -0.5463262545424721
Ni 1.5888243580124504 5.660581718339648 8.289930300468527 -0.051682515975956154 -0.3867682203387597 0.18644560262317567
Ni 2.1782313212539868 8.536281066632775 2.438183570532809 -0.2916183772077881 0.8008171307703434 -0.09250649197085359
Ni 1.491341913472518 8.634914989198098 5.116844433139368 -0.7548848870146032 0.8718016895090211 -2.482346623275776
Ni 7.366744495622578 3.0650940794452786 9.939158574442276 0.19431086430386535 0.3254463815008266 0.1502311003758316
Ni 1.7382169297946681 2.467458261046669 5.606254423405035 0.0134682096897639 -1.128158672411354 -0.2980754456870415
Ni 1.069357982801052 4.776630420846707 5.743134267311321 -1.8228275520576929 0.8605991359249823 0.824999898664134
Ni 0.4185351135612662 6.783151092167779 12.033457445416111 -1.444260893693119 0.05135367188162768 -0.41894017708561393
P 3.621454559519048 3.590055719704688 11.24787326460456 -0.2695238593015939 -0.2238086166526662 1.4959446952206557
P 8.126017871634408 3.6021321965563646 6.360626996601475 -1.2713238670793394 -0.5544303717068452 -1.5872792783705953
P 8.153456750434614 8.732163393488968 8.598012458886762 0.09787546959225078 -0.012151804871185522 0.4663901430374613
P 8.492384477518423 4.222835021902673 2.675427362525498 -0.6673791906924507 -0.15972772701235718 0.32491853402181464
P 6.203255524648184 0.03967824766523076 4.251036871914827 -0.19486673680733538 1.3011553486184753 0.19303019781922887
P 0.07968789632313544 6.7841246996038835 5.144988241169753 0.29191893916734246 -0.6384026009544425 1.1297388724142803
P 5.362667204501729 8.768083890915234 12.197137706323158 -0.21402916866839916 1.3097094088360732 0.2682156820131317
P 2.586303899521118 0.9288299194923636 0.8077281330169424 -1.0173315277544415 1.4716943073137234 0.7969478776229243
Ni 0.2943383788322292 2.8826831093251806 7.494274899659276 1.3116343937729282 -0.22271615491943578 0.7475754978373835
Ni 4.169033849447954 0.16240989043513018 9.91249483694697 -0.3510327146103632 -0.6490878485824305 1.1094731801867086
Ni 7.329166993232942 6.4984645332069295 0.04163669646939419 0.06473060740916593 0.4722833685934447 0.28665229145176435
Ni 6.0542561404843935 3.4487890253699547 6.990903004295477 -0.726336385952949 -0.4067022402585254 -0.09081367764946295
Ni 1.2298253391689553 0.5936739850624624 7.891719242135936 0.6106981930606386 -0.7242509641788302 -1.1200213880162002
Ni 8.897414532547728 9.059501447439152 10.984458155800596 0.7663520071139381 -1.0937503701348132 0.8620374110334058
Ni 8.772146829638977 2.774828000946754 4.479703556859835 0.7060159292280421 0.4314344528978828 -0.7338591766925555
Ni 2.7511524893514903 3.7519366791769344 7.329485287971669 1.0585725366820995 0.46499634801372824 -0.0881196757570676
Ni 3.105508149653565 6.125432461029586 6.131137426140759 1.3512152413893441 -1.0907720042327798 -0.21590967352056364
Ni 1.4138839526424598 4.291820725716633 2.596109249795883 -2.249688269541964 0.5243952587973356 -0.9073171088068115
Ni 7.796554732222728 1.88555930899509 0.31523536459061163 -0.8613239299061489 1.9654476728554862 -0.900733799162339
Ni 3.912881477652927 1.436707557731133 12.756138160406364 0.4470531332717462 -0.07937021169921168 0.4324775494504165
Ni 8.081278737623428 5.432748216681306 7.340515136829533 0.7571189185514444 1.109960147125456 -0.07655099708286171
Ni 5.851174735567006 7.846517644592806 9.174386188738449 0.54709012929169 -2.0041841701937355 -0.5437235268123023
Ni 7.5402338514483755 5.976592224235158 4.082944484232434 1.7354825496831208 0.16021058018604667 -0.2434104500439937
Ni 3.460594015532718 1.4485874407735968 8.072252273297547 -0.39469827381911377 0.23834434837499596 -0.9227498984221141
Ni 8.085351037957134 4.292419868754235 0.20664068902514432 1.6102608268674332 0.09872367652515901 1.0069255019297692
Ni 0.11037899842432752 4.100862605700736 11.763082915765992 -1.1520354790289515 0.27955810360914435 -0.8255300601359912
Ni 0.8642750656736746 2.2540884467804507 2.0454799473411804 0.15147037209957137 -0.4896583695367825 0.5390009245256524
Ni 9.138485350693104 8.192719342617508 3.5558278013596483 -0.808740499382478 0.8011382615551881 -1.3931069965271234
Ni 6.096626787174849 0.3934160417097782 0.6646415417054916 -0.29928514972442655 -1.3675299193889672 -0.658624327317956
Ni 6.3404780034791 4.105477879412268 1.948116395247773 0.10629531822482984 -0.02982299689870348 -0.9529194800269589
Ni 8.85124307221248 0.7950646832206141 6.127081976704987 2.4034057858044995 -1.0388233790796302 -2.0072394120802914
Ni 4.419728402634821 3.0399675183058203 3.219150605310834 1.0996363966019451 0.516258231512498 -0.4944563051460582
P 7.864950654609047 8.073021797636468 1.5660176038217095 -0.5555025217251014 0.38234129491565766 0.4342426117706393
P 5.411038643178175 2.446057620672302 0.6573479113836764 0.18635098602684036 0.2832062418846929 0.43421690073902636
P 3.075045470835459 0.06731184795265718 6.100527770046241 0.8560853072150288 0.08440854545406754 2.142676384866084
P 1.8826291250768146 0.936666523192006 10.014996976748815 0.7531347370927158 -1.4242330285079665 0.06315477828161382
P 3.4378359417137827 7.170328556998521 3.507447937234236 -1.1976962142908598 -1.5524575427057201 -1.1488323987106215
P 4.504282463816485 3.8593798767170093 5.421034970296175 -0.15127034027362335 0.9294131693749026 -0.5022372346430576
P 1.1810045432143075 5.15828453579955 0.424121186225914 0.3942372750222952 0.022720324415651194 -0.21379288428787696
P 7.679618862180638 5.32648458199651 11.849540192253041 -0.9126788873393572 0.5375461943569968 -0.06874975587088805
Ni 0.6253461838877288 1.2378482389068524 13.61817860978198 0.44005947556273245 -0.0025518198875762507 -1.370172499218137
Ni 5.4785452126180525 5.068057338980586 11.112048474141053 0.13702617164978337 -0.26256825391936717 -0.277865803508386
Ni 6.922816951198918 7.426406035913848 11.504230655657768 0.9935105140754438 -0.4324276700490875 -0.7795458800963929
Ni 3.6852539314137602 7.037066039181759 10.220343891277135 0.7896364315631756 0.9599121092947082 -0.6364120528869749
Ni 2.731296514620942 1.620925318574001 3.5949462247491186 -0.5066543898741468 -0.6196703146522617 -0.30339017303173554
Ni 6.758408357036786 1.540911638224169 5.533594287680778 -0.12390274689394791 0.1686484265407547 -0.24074241629352733
Ni 1.8674071472777243 0.06660598256148165 12.012549225725774 0.6606930369215267 -1.0972578690674393 -0.48543790369753176
Ni 3.6673451715554206 4.823307408119932 13.3071091616247 -0.5183482812723074 -0.6312503061803774 -2.098989485501095
Ni 6.706516953014425 0.15418009911706101 10.30101943745132 -0.008039325364708735 2.063929408573168 0.42657146837862664
Ni 1.7614149992818429 3.03926539755863 9.803128764720586 0.4416530453020974 0.9321511371313559 -0.27011675569058646
Ni 6.571185519395943 3.5084224808313365 4.265190690017191 -0.1787052965561245 2.1937071261906538 1.7955581748187786
Ni 1.402556404587786 6.319405019453422 3.35004276348508 0.5534366403350082 2.025270815660705 1.4408382411648153
Ni 7.507327792430046 8.093748402093533 5.4671006444388475 0.09745689399759346 -0.2903868187935322 0.21211755346798306
Ni 1.868146714464765 5.579463368014237 10.702628760200312 0.5928452240396177 -0.8009228031102722 0.07690992308417723
Ni 7.623196438936407 1.4993928980403028 7.731259375056003 -1.6818735061084131 0.873085184207135 1.9461392023348616
Ni 8.996366749851779 6.25973411755219 1.8165530096392126 0.5755033903270604 -0.788277603542436 0.09438391149922455
Ni 4.400949013049965 3.7196859328559833 9.280341826455476 -0.5369743810139269 0.0358666319896221 -1.2085485836243315
Ni 5.8977393835206815 7.980519729596608 2.8189801620130828 0.2439735216363153 -1.133731538513441 -1.2208060608354458
Ni 4.30227764404479 1.7301846684468087 5.557545030608941 0.22001675371040172 -0.09510227772248782 0.12479569102186251
Ni 5.974223736914636 9.125959516563224 7.096501964672932 0.7711669120040783 0.6524793907624827 -0.03334283712650386
Ni 5.129862687953277 6.61344382676685 12.873424154661054 -0.6974248451249214 0.9299469303911856 0.8501249758665359
Ni 4.133834195988803 7.9327193491278765 7.553877461807782 -1.7165463749002503 -0.8017537836519999 0.216678176255472
Ni 4.489968562183761 0.595769113372079 2.3254182977290303 -0.5253241983695082 0.8011220636052719 0.8501884821146196
Ni 3.4106966344323784 5.995437145089752 1.5376416278642537 -0.7776872296210993 0.6940716123819723 1.1592029433116682
P 0.7067116807161514 1.1376790123076712 3.9728790997418515 -0.8558762765280162 -1.759540619073589 -0.0814468917225823
P 5.520906497698547 1.8531868617446254 8.474519717226908 0.687310639509055 -0.47372241503281637 0.9341979923580557
P 5.576814032394838 6.1682805498281335 1.5706487922701782 0.18791781629332796 -0.37035069821268474 -1.0820477369859043
P 3.0797169142067666 6.8718897930026985 12.227295196656486 -1.6796865257594236 -0.16111072340281285 1.1414101381046213
P 8.206237507403417 1.9293061123500403 11.869654547418554 0.4976025640845237 -0.7232675172196383 -0.5663880582893536
P 6.025740676538495 6.753278194777314 6.47125407768981 0.04693754509180304 0.23638208244230258 0.5821334940490684
P 0.03770762876811603 4.282309329994692 9.113318534630807 -1.0667401600945565 0.8166412422867936 1.255057525819148
P 3.8674214996748315 5.813016813359692 8.461119508726528 -0.08467722573442191 -0.555005784594341 -0.6698106829520787
