# total energy = -381162.29982622195 ev
CRYSTAL
PRIMVEC
9.30679635408579 0.00000000000000 0.00000000000000
0.00000000000000 9.30679635408579 0.00000000000000
0.00000000000000 0.00000000000000 13.62143720960535
PRIMCOORD
 96 1
Ni 7.25309340275333 1.1849971329315843 7.368434389416287 0.4001664960225366 -0.6284200358204338 0.04322332946500943
Ni 5.117416344811704 3.405756921731483 4.528950413139272 -0.25966856377406894 0.0299968034724064 -0.0766489561133067
Ni 1.9515793223140256 5.6753587769877605 13.073310601231228 0.9315011622521828 -0.6999460688848783 1.4262089212874145
Ni 8.417215391808835 2.8674797499255353 6.354482210442128 0.18173277052853862 0.7324741234195709 -0.21741222620801912
Ni 5.25163895960475 7.456921546324435 1.998060254574524 -0.5724990562830979 -0.4959974243809329 0.062292430281318534
Ni 8.965097177292943 5.486849619961472 1.4195442187192624 -0.962208875748685 2.169631059078057 -0.18519553226615845
Ni 7.944988552632637 6.929235508593822 10.333848625072354 -0.1967287297167386 -0.1678282446323045 0.03814617205241817
Ni 4.406200286021679 6.010552348918583 13.388701172208187 1.4616734327426117 -0.041686323995192724 -1.9529963344660108
Ni 4.0796061937794414 1.4214362903866753 3.0866585231485377 -2.11290455292029 -0.5189638033691192 -0.4394118146764045
Ni 1.6411232146821846 2.9951969141749433 5.473189104499453 0.6313150979800417 -2.161245149007207 -2.2557329330741474
Ni 5.640504825219631 7.962541170265399 10.163349049372236 1.4916350121017083 0.7540945299028239 -1.1351145349038967
Ni 5.059825889927544 5.709626400595304 8.787339231236626 0.3111775302866383 0.2742804001499728 0.8338568348341316
Ni 5.740450509608933 5.0799285697190415 1.6059128126196047 0.7998352264730483 0.7917902446813847 0.3657702779308539
Ni 6.610449818363191 6.912827626893633 13.428489587321433 0.7307823375394447 -0.5724458344476593 0.28065827865185855
Ni 1.8887770615579953 6.974969105119481 7.6959619533173615 -0.9543297301109243 -1.9534758452055903 -0.09020638308276722
Ni 1.6366559525062965 2.066890527229144 9.929781969224393 1.515501277196345 -0.9465518859377183 -1.6655948235530476
Ni 3.747642080129938 3.6435734850241395 9.909622517976077 0.9081743146007842 0.6642645563228688 2.8102358098901408
Ni 9.164216081986966 5.700738410224527 8.615994598441567 0.722365060010027 0.5866578642819832 0.7943338370388449
Ni 7.149080648424729 8.338312373627208 6.093781165973863 0.44282264013016637 2.1038972072153572 -1.2587339462294709
Ni 4.004351439708123 1.4789615976974375 0.5921365320936213 -0.6832871201719587 -0.45683952323454874 0.17369601626699116
Ni 8.773898356164922 0.7975440389798276 9.102974570953638 -0.41129500183553036 -0.1167180562200506 -1.7334390368905306
Ni 5.133293739128509 0.3220654052114309 7.097149656309647 -0.7754436850025613 0.7723529618923795 -0.10767060130580167
Ni 8.590712686564899 2.9520226866042227 10.449099335812173 0.4501307437558054 -0.42125339859982286 1.6121228197768365
Ni 8.100784321016743 0.565292939814632 0.9429143342609546 0.8812404663244178 -0.728979480002751 1.050437823390107
P 9.220754868900555 7.133929184211508 13.330824068001075 -0.16510133261944468 -0.32162109421746543 0.05398648151878445
Ni 4.1559405362099335 3.5164705693239156 2.1345202231739937 -0.5432375883148193 0.8323830785020827 -0.6955055166150215
P 2.89530707056284 3.4558274852862314 3.794524135306647 -0.21889883805587462 0.5419170697311828 -0.10139299582720601
Ni 6.69608165019725 1.6832178538937326 5.1184186867624195 0.1400752428887523 -0.27808074773266944 -0.07608999828604315
P 3.106292140411567 8.916078281708769 1.8887212207807969 0.7170575317541844 0.44141958913505275 0.12407243970259275
P 7.59401996114321 4.8166020780428225 11.463229274593749 1.6582293843269118 -0.11974193064803895 -2.138418638030995
P 6.785864313136406 2.2001359284212136 0.6553250248919421 -0.7110619762923818 1.7820076898278536 1.3340896374526507
Ni 5.016167708954435 0.0042783342130330755 4.545364809596801 0.373546322331847 -0.033520757465264846 1.2386490025541377
Ni 3.2688818700215037 7.255112977528679 10.441035927584696 0.22861992199838047 -0.39915502403888675 -0.9117571468560363
Ni 8.923486491483784 7.482766519371189 3.701067149227822 -0.6348094842865454 0.6723894994228484 0.9058729201611173
Ni 3.712620606030214 2.697975070739172 8.059913525505465 -1.5510120685084448 -1.612943515905919 -2.9160066230700683
Ni 1.0256554751953666 4.30294138218526 7.011920808751037 -0.5478131235006436 3.351758472396382 1.2309223233338413
Ni 5.002179594266185 4.954919683163766 6.339526188949102 -0.4153321480193815 1.8418053787117763 -0.36686351099503267
Ni 5.623101116326066 2.970254700359567 6.876291937052206 1.5108231549943851 -1.1123229909306778 -0.08378865248188151
Ni 3.5669134047266553 1.9808491963622943 11.837846435226785 -0.1966207433839646 -0.19563729642477273 -0.051338502372976096
Ni 6.9050750656592275 3.6768452814383075 9.153673343251869 -1.4890667371539 -1.1512073267007013 2.0371264294477105
Ni 7.1523101067060475 5.242899877973168 5.1473507241086365 -1.1954606400921217 -0.7668978523150792 -0.584625921453619
Ni 6.1249887149909235 3.065798270146379 11.128114810430624 -1.1834137362299169 1.4097584890408754 0.5864087243856545
Ni 8.34224914841971 1.6450972166594855 12.602825994303627 3.3443030445596014 2.621102118911841 -0.07560200290603108
Ni 7.623429437134474 7.665458928772623 1.7971991176319042 0.25116386873716745 -0.6215047967578393 -0.7524819340000654
Ni 5.030714231414671 7.379786819420763 6.1563042228439 -1.4468273688687145 -0.8054204338703096 1.0833132339618892
Ni 8.534518251110704 6.50563667956141 6.348965141654905 2.2641445541766103 0.3625083193501305 -0.2755078447991707
Ni 2.885534934553084 8.621992828592317 6.54843770460452 3.1221327348413066 -0.0979096652642959 -1.0653306813415395
Ni 7.169592827249016 0.12939424892460616 3.2430601639652488 -0.4028728392101062 -0.8337357358752351 1.0426448097082495
Ni 9.202215730870616 3.48668882148466 0.37616860355953874 0.7316742532260947 -1.5832842982785895 -0.31645137709106785
Ni 2.401637372942378 0.36477150093330357 4.277280683703261 -1.545097759906539 -0.34426865641365223 0.34831557278951625
Ni 0.8483386712789182 9.209251668797641 6.8373346188396 -1.8252140500119984 -0.6462164405719064 1.411505296528653
Ni 4.568696947669618 5.59532032966976 3.7314426706646233 0.06115600268403016 -1.5805365603301231 -0.1539813114468832
Ni 0.47168518363737155 5.480902577189821 11.571792121584416 -3.3539685926738234 -1.7413138116529172 -0.8855488638917847
Ni 6.086681941832681 7.255913362001859 4.25013368986816 1.6639850558637663 -0.17720325808930126 -1.7232734092114386
Ni 1.4033438785743275 4.2319398339772345 1.984411837947565 2.097823233107136 -0.7498342119645732 0.855935926121358
Ni 1.6105969231469475 6.301436264142313 3.4962282875894215 -0.6978873865836368 -1.3841988954042161 -2.3643008493832376
P 2.6935915697290813 9.03645238375656 11.703906747038214 -0.32199801794091 1.0901852784913741 -0.6099489735994398
Ni 5.806565989812081 9.068374694721761 0.5329946342829592 0.31367458567687917 0.7740619741636862 0.2520411291357982
P 8.950383132501111 3.411787725668932 8.456909808280464 0.6305252550888948 0.3257716260507293 -1.2595489859315987
Ni 6.069473675659311 2.068798420450096 2.84090047065862 2.3921592663564026 1.2492941409728098 -1.8118317151678214
P 9.221322583468739 0.45862216449137805 2.8542492084479463 0.5227942328588029 -1.8007307201586535 0.06581664138449311
P 4.456038179671434 7.924597362158948 8.33339093979677 -0.7155680916928515 -0.19835238136309064 -0.08338627483714026
P 7.018832035608984 0.6239099343196272 10.468523550160707 -0.06886108463777173 -0.33120076748610056 -0.538800378479072
Ni 3.5490908900041007 7.600711547610842 3.660775236440169 -0.12733131295952266 1.437010639888609 -0.25608675996008157
Ni 4.76271572804617 8.135470750453276 12.240372816303687 0.11805554408455152 0.6496915436047005 0.569998144238115
Ni 9.059551851924383 0.7312936102317834 5.2296507229031794 -1.3271008648396434 0.7552301861691638 -2.4567096394339627
Ni 3.7855207406629914 0.41351119263148545 9.86913981586633 -0.20138576887277573 0.015729237809798718 -0.44103546632275653
Ni 1.3330031128964852 2.1576504037692756 7.6830627337844835 -0.005868285855318926 -1.3307919405379853 -0.13580206943469517
Ni 9.305539782280434 2.454248691859663 3.3320899070918437 -0.613580142594124 1.294414687460532 1.017542615323983
Ni 1.105703229309566 0.5029885926552892 13.252759592157044 0.8114998072951701 0.44910281671192337 0.29856986882495673
Ni 5.619266716291762 1.8893168557375817 9.006357927564991 0.09095585965428207 -1.6486908487088574 1.4158939125146517
Ni 1.6117974998567177 8.755024173471794 9.025741192010246 -0.11922565313325273 0.933726966258908 1.585417285461192
Ni 1.231503193541822 3.1533845291823903 11.698266828541156 0.15230803750951832 0.8807725255490637 2.353312468692534
Ni 2.8365160389689095 6.11350412848041 5.343594759456551 0.5677821104234028 -1.022803092391974 2.6376340551285926
Ni 1.7237861785285187 1.6205365814882993 2.1092383112973256 1.1324053635028497 -0.5125543002983495 -1.3649467320428235
Ni 7.193027340080031 4.898604259358973 7.667969902387322 0.32380756034582303 1.6362706206676334 -4.869948866389117
Ni 0.969340051390574 7.570631982293193 11.186196664154133 -0.08736402853796567 1.61478571132098 0.35876196493382084
Ni 0.28368231632435015 0.6288416056258839 11.074569089174883 1.3866424718487023 -0.8054165772155678 0.8255580851604493
Ni 2.006991986887441 5.135918255656842 9.873444209108722 -0.4653539884634631 0.4699292665389713 0.038217391609985794
Ni 7.6331178119784315 4.078964024841658 3.0969695226582603 -0.544316680311611 0.2688299185583628 -0.5375924742139
Ni 0.09703172649915497 4.444125480535732 4.683812709864542 -0.12352042385386468 1.7377147814477492 -0.5295752603363783
Ni 4.894574416604474 3.656817056016408 13.468278002434678 -0.514754650383778 -0.9199124289733189 -0.6463552801426159
Ni 7.165916642750108 4.383342794555051 13.41662528352597 -0.13738021255509245 -0.1878656228991539 1.0266977994606898
Ni 0.9840075622014075 8.081640241233822 1.464536063587798 -0.8349346412793428 -0.08415837711647442 1.0824776254344712
Ni 2.7842956054920145 7.883582311306572 13.53582579857297 -0.07491937501670969 0.9199036872225707 0.08215317376098756
Ni 7.900371771650953 8.668629184349351 12.33103776352258 -0.054273159521267815 -0.9364847315097032 -0.4920212133420042
Ni 5.8242489025916395 5.894840951766875 11.348046503466188 -1.0523065011677295 -0.16310564234565458 -0.3454696187002889
Ni 3.2104351898869643 6.18713950001297 1.445329628270338 -1.424661888515269 -0.5724463486682915 3.9175878299687885
P 2.1777996175417718 2.8928128491813023 13.601549462656108 0.3647888878541911 -0.47914975669597476 1.117345383845934
Ni 6.752424994390642 7.072904521529632 7.934745492735173 -0.33000263341294134 0.9831029455888746 1.247559160559574
P 2.949407476872088 1.4201147253263082 6.080118789152604 0.9440172924413227 -0.04945028421132774 1.5200608715425692
Ni 3.1628030069365543 5.07079860264707 7.812643118633085 -0.39102211051910724 -0.7447822513629625 -0.6061244576470272
P 1.265361318116576 7.60478792434634 5.1710244216019845 0.06510290314692013 0.6092727734680217 0.8985056811627687
P 3.6248202906816083 5.275147926805363 11.523790458824877 -0.5333565817556813 -0.39507442621160993 -0.6809774982021756
P 8.695414143812283 8.054873895363292 8.07973234801287 0.3458200600611722 -0.08020093513062317 0.5918283527393291
Ni 6.323781881817955 1.3474844877833234 12.435990504267357 -5.065980827149146 -2.1012134897356067 -0.3242207366238416
