# total energy = -340888.8574171341 ev
CRYSTAL
PRIMVEC
9.07309616581963 0.00000000000000 0.00000000000000
0.00000000000000 9.07309616581963 0.00000000000000
0.00000000000000 0.00000000000000 13.27939336129094
PRIMCOORD
 96 1
Ni 6.10057749498946 2.090042147883108 11.613626645650267 2.495624057110973 -0.7653341073723852 1.660806658135785
Ni 4.75691545967693 0.4822377848748526 6.152647994072188 -1.3637719950084317 -1.2147945645340434 0.035193260071681325
Ni 2.780985642681343 1.582248172946167 4.922989412492798 0.603559010912696 0.324165457905874 -0.45229844083108556
Ni 3.754946227196876 4.322831318255949 4.938393715218476 -0.5721115910366922 1.6938625601494894 -0.5336468593025906
Ni 4.975477274000656 4.850322985039658 2.7159941473024447 -0.08480680933375072 -1.0634519762615877 -0.44221148890872874
Ni 7.050449009098188 6.180593130363321 2.7149452973819077 1.540602957359979 -0.853282290548595 -1.1120548248709556
Ni 5.193367679205698 4.39567013453686 11.645164728035974 -0.42437188962414657 -0.010671363670917105 -0.9086787650410286
Ni 5.549114708049526 7.93538437371483 12.33805712389763 -0.3357770740028733 0.3592093368838846 0.15056200135268907
Ni 1.666110801108158 6.289352334493774 0.4734659154702207 1.2229243927300293 0.5160417446263178 -1.0028431043302792
Ni 2.367098213398044 1.5617520486339378 0.5040939663072252 0.7648273429392958 -0.2659345992884388 0.7301719576489554
Ni 0.8765708772313185 0.00968099364371354 5.115103151398132 -0.15918805245880327 1.036271302081738 0.8041559653355893
Ni 8.527594435681864 2.2687549237033755 1.5373690099103052 -0.03190970422440311 0.16188154013056635 -0.173359715973495
Ni 6.646841397807699 0.7143538976093973 4.816542033273702 0.32397725315446785 -0.425594449177338 -0.7508323142117843
Ni 0.28659461154833427 7.250156929521599 2.10392035582821 0.8785302664821063 -0.950130604427912 0.5081052633880604
Ni 7.514193101991803 3.769807958769887 3.7109662079942773 0.11108605474525385 0.607757879485392 -0.2633830365111786
Ni 7.487962780882173 4.044831650736377 12.647028712600127 0.9634869711301601 -0.5777567051376115 0.19610935096518484
Ni 8.119114571732824 8.986502568301722 6.871142852786544 -0.000596753043734456 -0.928875808814194 -0.765851670438752
Ni 6.737508848118504 0.6965361512949412 0.4035831139307545 0.683801597914532 0.03146670314971355 -1.0176130635506022
Ni 2.198719694147776 6.559712455014276 9.496293531711935 -0.9796126730474289 -0.05878390290742779 -1.6890329999713296
Ni -0.0796109752834115 4.824355783719781 1.3607131049982193 -0.6311261218976872 -0.13420130060647856 0.8331513241266747
Ni 6.4819832398824175 1.9151400724661762 6.9281255261510974 -0.06909145548102294 1.2430777277494527 0.19049560432283322
Ni 3.445889351390115 4.431191306153672 0.4411266786901943 -0.4156208829043938 -0.6373451062242056 0.22940385135225655
Ni 6.117662135131083 5.733770361879758 4.831548027076268 -0.366558321049788 -0.5272982913767436 0.6731554310545955
Ni 5.477881829795735 2.6553595527180276 9.653946743946051 -0.4057488752063206 0.7757373049835802 -2.731908694743463
P 0.18590501917675473 5.456696150172426 12.368453810781576 -0.18037471383874742 1.4669357095828157 0.08409255687554551
P 4.010789393799907 6.075989404291743 12.53035595396541 -2.0925249608226735 1.685196656944375 -1.285484474850438
P 2.0728214112985075 8.51500097815846 1.6044963121343114 0.7540032557405982 -0.4109263056422019 -0.9022643768742524
P 6.308487494376241 7.832586193786738 5.606918496620037 1.2187134399724753 -0.8864731754782669 1.3762914676316813
P 4.515734416530544 1.0672047941466896 12.583885406916847 -0.5853406881324564 -1.1210557428179855 -0.16954085644803707
P 4.157800771502897 6.02181394689098 8.348223860387211 0.6593666048006193 0.49635532194098386 0.08494539179414402
P 4.681009936880953 1.1632344443107607 3.8351950411430367 -0.5879164192794327 -1.1182385850841643 -0.8644761023818854
P 0.05476702327289941 5.626308610505679 3.727114504608225 0.10588059928491443 -0.8598877116802545 -0.7691560522216366
Ni 1.3606105790111773 1.0641562338240205 2.9402302759886623 -0.6882637474509437 0.2935392483795848 -1.3670681492612005
Ni 1.7588922828331952 6.277185312491693 5.048546546925007 -0.06023760463481883 0.5887615408885474 -2.6782579992975424
Ni 6.402657159819636 5.5294896009723455 9.195408793651088 -1.9776195323313295 1.4191640986254914 -0.31777652366039466
Ni 8.815674313077881 2.2628120456934107 10.390182227657176 -1.2323423436098195 0.6584348370149692 -0.6919571371421308
Ni 2.62429327133464 5.4856484001415815 6.9158949924756286 -0.06591125798082842 -1.8514506151110244 2.1204926496801932
Ni 0.7144999744581917 -0.0017928438088076807 9.337989778480392 0.3201936177423196 0.9288801796895679 -0.12150262209288751
Ni 1.4251021467895424 1.239276063549714 11.643943489287667 0.4234365222940708 -0.4330434492562155 -1.2267072568112294
Ni 3.963064907796221 6.9273633860704305 1.623087086244873 -0.9166913509328599 -0.35795720964433836 -0.21702193274813592
Ni 5.652575224000103 7.758204951152095 7.98475290474967 0.42406181458289544 0.5283131057945031 0.521822870084469
Ni 5.413989086366466 2.9451542452955444 4.7991724979114485 0.2969441602960757 -0.9366737075920579 -0.5540241374073619
Ni 1.0893794412556266 7.400579791395195 7.0504281409769325 -0.5325014328442377 1.61542128802245 -0.11891892052611135
Ni 5.273927700351464 4.432715586315006 7.098406673674175 0.004740600008778933 1.1303834479768144 0.5991541969767811
Ni 8.53491642431399 7.23258234218526 8.756857059662007 -1.5031239865779145 0.28958129217310125 1.8833832021535626
Ni 4.896867968537549 0.3754020771384637 10.331288760233235 -0.6288905476989491 -0.10384120025738244 0.3862740543111605
Ni 8.544588344861504 7.506299508299178 4.526878900591063 -2.094425520279496 -0.5745238000226106 0.34624789162721015
Ni 7.456705964478617 6.1477031566440505 6.9282979149788675 -0.7783883694531821 -0.03379663683447083 -0.8885398281993083
Ni 2.4010769586611245 4.970296536071358 2.5781411529021394 -0.7087811506780052 0.3191178681796375 0.9840398555808472
Ni 2.28308134260068 5.17774380755202 11.33842421368867 0.09635877583740825 -0.10145084564833497 1.0795954187906698
Ni 0.801644341515151 3.1879502995652484 3.8696419581699555 0.375455880649734 0.7814752359086219 0.12916270974130659
Ni 3.595758754395607 2.5151257778752565 2.425640551999105 0.13403135068751754 0.5347868864443048 0.6036986218143539
Ni 1.1003215952709204 3.5924833666679774 7.943427673494729 0.7527742684295036 -0.5701827494450955 0.7572641858800571
Ni 3.8529719585246 2.6545611202525667 7.024573446049916 -0.6482833504032642 0.22460617285329704 -0.21811130915757276
Ni 4.316543662590444 6.996337063370816 6.131149292630034 0.20791045736517097 -0.7680785028867417 -0.4168005050347919
Ni 0.7386933854712772 7.413372857034966 11.35380129712575 -0.20457213702055735 -0.518427728359991 0.45857244676525544
P 0.31626363611716585 5.595342133180473 7.77580222122893 0.3870695536292624 -0.4277611178113536 1.9799301827423774
P 8.819221893691463 1.7255305081116068 8.036317125064528 0.34153300265004405 -0.3044561524024047 0.6300912528752697
P 1.7758589727242398 3.252786644999154 10.273895075610895 -0.2615444406405431 0.5632628823968107 0.1988097806154834
P 3.799177571164171 6.310474502443695 4.025887025874077 -0.4383340082311935 -0.6025465104877816 -1.3318034125216351
P 7.043399213352016 3.929567036631657 10.528088753325052 -0.19675392652771923 0.35812278868792513 -0.49128742049977325
P 6.543081469682574 7.987345995643178 10.041226411317865 0.14486546518854404 -0.8479760478443331 0.006873587191381711
P 2.739122376821836 8.425032156254932 6.0341696892939884 -0.7153482623725615 1.3522534528458712 -0.6271154580763973
P 6.77341108977565 4.1167813035898435 1.4536152589026956 -0.22446399084847796 -0.5741299070183016 1.4465016100981798
Ni 5.172009610754619 2.7454916903531266 0.49433312941696556 0.047614002333537346 0.7272722675036571 0.5244654499136387
Ni 1.7731642631533089 1.3096742169532505 7.199808504097329 -0.5591779136941596 -0.6200207560131451 -0.328688285476892
Ni 7.073358576999198 0.7933678631629527 8.854048973449096 -0.4825418130966593 -0.9270498113490485 2.1896501825124615
Ni 2.9648610102385113 1.772556365708015 9.232975948460647 -0.5800498720471623 -0.5551016867422569 0.8902694092959054
Ni 6.293607616610833 1.8634869358085746 2.481693233003321 -0.31214580773717854 0.5207862012898385 0.8516193010238753
Ni 4.358751706105491 7.0946984992578805 10.320160607745875 0.30926900041001576 -0.8216191551173593 0.40334155131640853
Ni 7.878486987454542 7.282892660605497 -0.1547353044967046 0.21914746373157096 -0.24121678482678457 2.4691648344781796
Ni 7.645272122770368 3.82260430554849 8.433742328605415 0.8020304343521543 -1.6807093105969826 -1.7325448072110354
Ni 2.9014128485229644 8.383586252820551 12.678660247876676 0.754512591276849 -0.5133467142926578 0.676863476033802
Ni 9.075364472469042 4.849397529227419 10.1411411612741 1.1281396462479603 -0.020352338404106884 -0.22765215876847242
Ni 8.80259090835976 2.1933756404869067 5.908387542076059 -0.11779843376842292 0.507448860750984 0.015687071717953627
Ni 3.3697842204777726 2.727127743647525 11.710406640869948 0.5469230075862065 0.48434261375082394 0.06183451680829351
Ni 1.088091061595451 3.528617842527303 12.816142152642465 -0.24008961320087685 -0.832656129657811 -0.0620052380582029
Ni 3.028399902916043 8.456171022407908 8.140746647689095 1.2569084629849578 0.34296536422119644 1.0846293816701515
Ni 5.369313160685448 7.700155281674608 3.458299532370313 -0.1327375715767585 1.7142434377986866 1.2311699205682731
Ni 2.642838679964209 8.350723498389875 3.747696823334339 1.796818786698757 -1.1453711796348984 -0.2868425530856995
Ni 3.75412057544282 4.1965973308473385 9.482469762344023 -0.6399786871923107 0.6916331781438089 -0.47800972955426063
Ni 7.426401823175897 6.311000742023203 11.149803616819728 -0.4333275561555376 -0.4929123576977059 -0.03857528917003679
Ni 0.4253467497819032 9.076271782088885 0.19194044276794336 -0.2658060441303745 -0.8648602251941815 0.8479415950619719
Ni 4.516523775899807 0.18085856307119386 1.2459538623517508 -0.4987325639239088 0.4896200600996794 1.2924403373429807
Ni 5.760826334743445 5.735820881620602 0.18994163967543157 2.3322965285624995 0.43365022960227895 2.308310450060547
Ni 7.9653891028430035 8.94087396751987 11.40644158664974 -0.2387528966673243 0.8193882089043115 -0.6673696776107538
Ni 9.2254334835909 4.628204517006152 5.942581319719043 -0.7297405265384916 -0.3102881857031495 -1.8798723607868268
Ni 7.8536539231594675 -0.23048567734768866 2.350890941658807 -0.04223808273360468 1.432967323057171 1.0888434197514991
P 8.426955652648996 1.3367755552979292 3.9578832625573037 1.1483806558851835 0.3234573760952558 -1.9032092357405546
P 1.4796314549420433 3.1461505453791303 1.746505691903113 1.2391904768799045 0.01113904733595501 -0.18594063796229912
P 4.763629550863761 1.0831099317825186 8.272796489760891 0.8396371889613347 -0.32428501420287376 -0.7302076959828973
P 8.477084509145264 1.7047803371058217 12.571840871713444 -0.586493570789977 0.5186969228609776 0.12455169333185646
P 6.232092024385549 7.757878319688952 1.4556077108278684 -0.4874227953380444 -0.10747159792111814 -1.9566172190480493
P 2.0626776897486745 3.4991212067862416 5.740256718352008 -1.2975208371896816 -1.0381536067061152 1.5051505300896402
P 6.9515704067278135 3.819691841668797 5.952062705246391 1.7741797091430023 1.3667927841126266 0.15773203673856706
P 2.4530385805894728 8.54777300162715 10.607393965266578 0.3766732979966029 -0.05671904995859909 -1.8331556734565786
