# total energy = -340869.9817596185 ev
CRYSTAL
PRIMVEC
9.26330279003944 0.00000000000000 0.00000000000000
0.00000000000000 9.26330279003944 0.00000000000000
0.00000000000000 0.00000000000000 13.55777998222131
PRIMCOORD
 96 1
Ni 2.400436654869267 2.11772992294696 3.054459166024607 -0.4911336685307283 -0.17005867662472002 -0.6028763830233745
Ni 2.295298170406533 3.941396304989118 4.5621246539545055 -0.22854356023449027 -0.07346952994406057 -0.3954546923691641
Ni 1.9977979442386762 5.024563540822773 8.396264883507481 0.3474876775715822 0.8123130472250849 -1.658801454780298
Ni 7.203977795755402 2.70570879191503 8.660234733269192 -0.22705514861442186 0.29037396327772574 2.073248371981249
Ni 5.127191670282035 6.349716030367442 0.6690725988827938 0.15548463546528704 -1.792371806670997 0.6353275615735445
Ni 4.275773738790996 1.9223946611085743 1.2065433104470702 -0.7802709311878756 -0.088864267232576 0.8911340712890459
Ni 3.716066469345417 4.506856085346712 6.239466055532325 0.14382236863601036 -0.5421770082607889 0.978984809655443
Ni 3.6255084231685277 0.19406804204327535 2.8165747763727693 0.14504261419635667 0.33492115376048126 0.8592698755905974
Ni 4.701478072885219 1.9888032774181197 8.236703569963954 1.5002273817564098 -0.33097759573170094 -0.4667770940632348
Ni 9.353156631015224 1.924553010613404 1.4040573010559965 -0.873217081799309 0.31147115026765715 1.8839102783016266
Ni 6.218788511477901 5.6771076288838165 10.106443766457279 1.191548449521909 1.8422959451949499 -0.8180571487977137
Ni 0.19746860042620665 1.2389389322852264 8.546783361056955 -0.2455331528139513 -0.17082897913184128 -0.8378176192540925
Ni 8.41533061291023 1.183405433223192 10.520376295612712 -0.881740802999604 -0.31665346579954495 0.5846156370409739
Ni 6.792409261422426 6.206468319025439 3.5917816647473497 -1.7198684972949478 1.749699464613451 -0.2022843694276452
Ni 0.618789539732079 0.4432731137974835 3.415936391570602 0.6829873295433528 -0.25822180402521333 0.8984905116541171
Ni 4.555145681778803 6.612006443368527 11.78198160301969 -0.25136441478374777 -0.9210665971824202 1.1145202556923128
Ni 7.716006846740216 2.1001759645278515 3.3871803213223495 -0.10178406061803762 -2.0430001146196686 -0.8937367990192155
Ni 5.803866661605232 9.53768161872427 4.022891135906241 0.2909169802653893 -0.14510663466507268 0.4185848506287243
Ni 8.360306595490966 8.780564107658837 6.798778708287323 0.0790771059388251 -0.015605310637424737 0.7648011176870506
Ni 5.766665238380356 8.370616651280132 10.414503231254127 0.3178127762149688 0.511281861343829 0.12920718982599685
Ni 6.298897552326688 5.42278365611515 5.945168153071849 -1.069332346301765 2.209456418605111 0.8661612033937921
Ni 2.748653462749324 2.0981658278645554 6.658985282483307 1.9876776878982803 1.0503180099827911 0.4496982842040771
Ni 8.955288521221489 6.627207522928293 2.8524348733817684 0.33409917207981815 -1.308494819702682 0.31903610709910857
Ni 7.036154542626649 1.8713168105951365 6.593636387990725 0.07609359783046894 -1.9368598339154646 -1.8870398250695435
P 4.458270063231554 7.434068968933364 8.7949722485164 0.4057640447149722 0.13622630145630735 1.1653764191122316
P 5.808211150522679 4.913857811499941 12.188714693397639 0.10202445876361785 -0.7008184441875027 0.5163790733610784
P 2.3940171861703528 6.036820195285307 5.415858411094503 -0.2557987964060175 1.7615548212901406 -0.7122637099099669
P 8.291193094823438 0.6590098732729376 5.0227507125047675 -1.035255459222714 -0.07035103891973692 -1.248304523366031
P 1.1453054696465201 3.8075415824792933 2.698283328554208 -1.2790402618869907 0.5304481498596348 -1.171187883587686
P 7.476216995744415 6.071437157085944 1.1953745465072712 0.20767134477117136 -1.3999073072784085 0.7640207878776003
P 2.3086095362367485 7.218558234041247 12.717889191157084 1.1938524150647376 1.1312383397779422 0.46389951540512364
P 0.5983148620045035 8.046308427399927 1.7768014815493067 1.5158386059311055 2.4877605952024964 -0.8698011141392246
Ni -0.0813836712859734 3.022902799401633 4.969400573864571 0.5691306540314973 0.48168100775826084 -0.47913587273890385
Ni 5.0769197270944355 3.796351512943524 10.305268514383515 -2.261972486225956 -1.7861150271280077 0.251444890312696
Ni 6.241159387246844 7.111576352361943 7.5368508692157175 0.60568659877866 1.310882603208568 0.8660365048904697
Ni 0.4890486499050648 7.955861540854188 11.488794370540452 1.14257973293269 0.9410934339263082 -0.07741103109031185
Ni 0.05390501046568663 7.460580540962645 5.130602418297823 0.009479400245344966 -1.0800777577437268 -0.8814767507049399
Ni 0.7932786654087961 6.222503095818831 9.828644732250247 0.41803592010378976 0.9208310841328464 1.8054119276844067
Ni 4.5643070880460845 7.041082619607633 3.2249891561718638 0.34346750066859555 0.06523068697403606 0.2934693143735978
Ni 7.843849685865344 4.047868705025653 6.936742631828659 1.9326704784244653 1.0415970851700256 0.987674367009641
Ni 8.941013771921305 9.266822650822036 0.023089708050379864 -0.5194294301516279 -1.3627412397510723 0.2513667287765929
Ni 0.7909017019627047 4.9033439630536675 6.248387542262374 -0.7441960398421893 0.343078492760293 0.19009014135429844
Ni 6.852268722796715 0.6535713883189225 12.388651963965637 1.4782686180971314 1.2284172975238006 -0.5502086203160137
Ni 6.788194458741321 0.23909973495241107 8.329168003815065 -0.5881832997875742 0.15293667223245275 1.2227405588539975
Ni 3.486975732847806 8.097367751308171 10.625163700907065 -3.0023584082934356 1.1067100156192746 -0.7093509071385461
Ni 7.882616607228916 7.588469696600751 9.718013109348181 1.0421185048911343 0.9540847039796536 -1.2376262177165782
Ni 1.9224780308319367 5.723331508837037 1.673138641190089 0.4306821481128906 -0.8871023244218336 0.1269109375926524
Ni 4.095778506051315 2.1601651121384826 4.697865384872843 1.1096009640138245 -0.04575432341697926 -0.21881013499681026
Ni 3.3509533975305557 7.811872765304519 1.083075529137956 -0.7865120270015811 0.0544870753042868 -0.6227016452794178
Ni 5.31114233323014 2.3830123826865006 12.649164749198581 -0.20266797801930903 1.3010800152958497 -0.6648535960571196
Ni 8.301781049690478 5.912840153342642 11.412477725774403 -0.9431693426187305 -0.9492276329976684 0.9009168617074227
Ni 1.7755527883593882 8.138941453358283 6.513482883289479 0.5675712799641773 0.46590291898839764 0.07850940636081317
Ni 1.868093181291786 0.5574377603096 1.0697410050512506 0.9491301881878559 -0.8598257480940674 -0.5628995855201209
Ni 4.677208220084129 5.036133405764971 8.294677022929731 -0.04178428302563771 0.7469756594698554 0.4267409040769554
Ni 0.8676935541519224 1.1793481066862161 6.1779141887737765 -2.587889379605298 -1.1364620500707265 -0.09917361957838404
Ni 0.21737543770465736 6.570895906448208 0.14812298749819028 -1.0235412561095791 0.2855269195980696 0.01348286497778323
P 5.686269035151098 2.946054441066581 3.05280566651125 -0.667132107678651 -1.4064003712019197 1.8497197484628465
P 4.031444869523236 5.156463706484876 2.2469576258101647 -0.8174670806221986 0.13641759153150698 -2.0110279325884464
P 7.762156620272669 5.845042041643722 8.414459862466222 -0.3389816969831001 -1.8022821238061735 0.07920514687625714
P 3.0643097620050184 4.929531319492095 10.332736059240688 0.34070202210831646 0.7236092168297731 0.08180427506200105
P 2.3806317139193705 0.474927671427973 4.88027185527822 1.6266894047371017 0.11702813126130167 -0.9269901617557067
P 7.664206458624303 2.383651550565613 13.621094542140403 0.8701788091936173 0.6280299994708668 -1.2532184157278803
P 3.24928865154126 1.41601622470722 12.825659379887297 -0.8821362386658098 0.058574100889466865 -0.2990012999354205
P 6.121505307616435 1.5002937517241326 10.090418252966483 1.5098847023405157 0.2211963758407997 0.4240181058291536
Ni 1.7535246547864909 0.9650138112237714 10.503821847543694 0.06090634856706929 -0.4060139559422491 -0.2474565950889093
Ni 0.32245278437025915 6.771187035175366 7.859390728630377 -0.3509524961917311 1.5652135568198076 -2.9309190214055265
Ni 1.4079849413566305 5.492962436581201 11.87384948018363 1.9740732097409681 -0.08447050904025452 0.8250340943361791
Ni 2.4164343784522755 7.557391316391723 3.45707101307767 -3.0196251657936832 -0.3076792873253927 1.1390755764341738
Ni 9.224313355209746 3.969028736632496 9.559468906429673 -0.6604793782488237 -0.5173869458003024 -1.0737063069997443
Ni 3.9523270020522046 7.126471742936046 6.770077291524385 -0.8400781331534951 -0.7956255592670749 -0.6253059156714844
Ni 7.9494698620630615 4.370750380306099 2.772294337304156 1.4934689799866536 -0.639465237891002 -0.9587453426801166
Ni 0.5943270102369962 1.8344488662637108 12.430410005737404 0.23028676817784208 0.34135919607634113 -0.02454966431490611
Ni 6.798578620951252 3.6046752556304935 4.881112963153922 -0.9392424967604986 -1.4180065879822805 -1.0102666504878601
Ni 5.222918639307402 0.041920149567194503 6.480822330997081 -0.19302685538511918 -0.06704202915116196 -0.21733586444412895
Ni 4.145624337319506 1.1424153192366193 10.474767498951858 -0.8094154139623158 0.3997070398876148 1.113359145504676
Ni 2.2189222405038684 3.023588283793725 0.5385341387022783 -0.11188361094588473 0.05625265184514183 0.8176604275799272
Ni 2.9441925172448182 3.1515515458525982 9.090165912337893 -0.6116495012303144 -2.0667882181782016 0.48723201948347705
Ni 3.8457156524767324 4.565131521977114 -0.33538435479404566 0.4088884492765668 0.2665812317335022 0.8068450821319781
Ni 4.823531347887949 9.194967212586139 12.828737575339893 -2.0309053882386636 -1.1283018828574376 0.34627411687945525
Ni 3.3151414696950554 0.06242632252359581 8.147317331565437 -0.7706848301613373 -0.6702562551299295 0.8006836905162728
Ni 9.320086640748091 3.8997762864260284 0.32073814705976994 -0.9667412164013997 2.0835150440145798 -0.2562489965695587
Ni 2.6291383326578526 3.246287341500209 11.688148053044912 -0.4422672818473286 -0.7990721230547786 -0.7051623229784952
Ni 6.680749411932223 7.849991255486382 0.2623904566691206 1.6527030551920443 1.8400359455161794 -0.03736070003664533
Ni 7.803517266363076 8.874994214320784 2.736556515889422 -0.3348393926799524 -0.5641311439343768 -0.42150845203342246
Ni 7.153020368175711 3.4510989618941346 11.152168733198566 1.8197967356511693 -0.6097525413179176 0.975197574698869
Ni 6.020211093730973 3.735760250664163 1.214079933439042 0.12152550491102296 1.3600657498014386 -1.9839254199446992
Ni 6.509915585459823 1.2550385521967888 1.298961427785203 -0.2710827191482815 -1.2862036124046494 1.143264931925173
Ni 4.759725719607832 4.905215150178027 4.192824569366327 -0.13658908411236476 -1.403615609367931 -0.2779516783539729
P 5.5418819375898085 3.4532665747015603 6.916379113732234 0.4646011694578386 0.18409175767901845 -0.5412328991799646
P 1.0337011999718924 3.042003729354246 7.69479944177731 0.053109221120153705 0.8403429567791075 -0.4151483141433496
P 5.423811882703288 8.498811495903901 2.057813029096576 1.3815696853114852 1.4341220054869042 -1.764019480780549
P 7.60746873022481 8.050365753936903 11.81576764657748 0.4363869118071517 -0.7942908996160515 0.21610070648544719
P 8.269313174092074 5.371761385417288 4.764041492287233 1.7419259913156195 -0.6182605787889288 1.6016553445866093
P 5.448044682293994 7.351931264816089 5.239105334263364 0.7058323524623263 0.699167538847641 -0.24379097331186397
P 1.2475538036993534 8.577058612930925 9.036110836370154 0.13536986699328302 -0.2608111620189444 0.15502697910257815
P 0.21097356928067537 3.8481426377568413 11.672570883399755 -0.9669283927115413 -1.4771890118797075 0.03930573957815811
