# total energy = -340858.41950696526 ev
CRYSTAL
PRIMVEC
9.36878525530260 0.00000000000000 0.00000000000000

0.00000000000000 9.36878525530260 0.00000000000000

0.00000000000000 0.00000000000000 13.71216423246311

PRIMCOORD
 96 1
Ni 1.695834417877499 0.8549672197086715 11.578221913340123 -0.25363804130927287 -1.4700313177890039 -0.24256481421424678
Ni 6.238177436704689 5.007896686839104 10.438494218751089 1.2944208581081191 -0.7330119982009118 -0.21395357823545733
Ni 4.657419805919485 1.1805137635402343 8.257190906424967 0.25785465049378176 -0.1867759893794009 0.08821274969150614
Ni 4.0071980152684565 5.871614351809048 10.38387888614875 -2.2995823261589297 -1.7953838540244433 0.35803511407012534
Ni 4.50059571252716 3.982080302478874 1.632240978536533 2.726828709117394 1.7428865554566757 2.356374909667942
Ni 2.4378609334912733 6.723752198424674 4.020707803348493 -0.5461002545745949 1.5340841824048548 0.03051128121497971
Ni 5.4924221446305435 0.8789953427938795 5.980889050303586 0.12259431249516949 -0.27494785853064263 0.013997599830672667
Ni 5.7692228997100745 7.881612239650395 12.986324077711055 -0.6627254939705232 0.07057009690907845 0.5693412273804066
Ni 6.948471877265007 7.4945596217928685 2.25208542045614 0.017949899610201343 -1.4463787113670705 -1.1873760633117743
Ni 9.390426969834627 3.476475078265741 5.813367678111131 -0.7080388731953419 1.80840160644035 -0.7280705950352364
Ni 5.654567707946213 2.0988795518602843 2.5492698412261943 0.8021157949771089 -0.10108729166132913 0.8240794437323936
Ni -0.021153779823796636 8.769670008248587 12.958899770035686 1.185991781369738 -1.7735683008112488 2.078007741043105
Ni 5.651841391489007 0.09643196791193427 1.1790868975731126 -1.42945879568328 0.47540520205187803 0.5310377038145176
Ni 5.479886710198444 7.6490227813459635 5.352282920580616 -0.9988200992138153 -0.20771891017965513 1.8230406965097634
Ni 2.6758561807847343 3.4488465310757075 6.110071480206771 -0.7942811294240385 0.24672974422521377 1.1292493343723713
Ni 5.305186974880522 7.528165453861585 10.569199076229175 2.485786759305577 1.781433048271306 -0.4721303879553481
Ni 2.627175973528236 6.403826925638897 1.5582228920411587 -0.39526443073522893 -1.5488821666496357 -0.8143136225948815
Ni 8.397204588754873 0.1870843323102939 2.354076825432355 0.0673482475376711 0.9333502996457798 1.4477627361987904
Ni 6.201395586495102 8.32533663843451 8.006244250642018 -0.0002751080382575907 0.19549717130248268 -0.7940805833774582
Ni 7.632805414378875 8.046690232694948 11.468730795910323 0.3784283330144967 -0.37238829746800384 -1.0034791952523816
Ni 3.4577468768982005 8.30483773668755 2.2495624066350897 1.5394318198700132 0.391917368639867 0.6443639607442
Ni 1.190191718524061 3.130757540164886 8.406735453813 -0.3640316979731924 -3.073722976079351 -1.9795301190904815
Ni 0.06507089674749968 0.6120168219883508 8.778828932539186 1.196830523856455 -0.7259838877095367 0.27583463201097014
Ni 1.7741855674706657 6.971846996030395 6.655226093741032 0.8217281698913977 2.3870900793636114 -2.988357466028653
P 7.478838800434822 8.784453951099001 0.5390705245057064 1.447082165191998 -1.3300344935466706 -1.4939502904984465
P 0.4455025941915996 2.227091375629564 12.88130280764116 0.2567125664695385 0.005171774008926578 0.4195932372885806
P 0.42408180399312817 5.542132918245436 5.77327396237707 -0.354463337558467 0.7084443361638768 -2.229972536280592
P 5.293138717272389 5.923695428048246 12.144836665970175 -0.6839882600040414 0.3678682981104633 0.21268062506030466
P 4.363024472466648 5.852708143525058 2.8561753133914256 -0.1936441772541439 0.1798134420186387 0.9185363745613988
P 7.220494551955619 7.007729442872656 4.298900759890363 -0.23317231725575324 -0.6086467098482485 0.8981364707488081
P 5.541439628149789 0.3324831923020614 10.701658707152053 1.6705722221629813 -1.5628273159758181 -2.369371836148242
P 3.900506290819457 2.650373085377175 0.22949775922924945 -0.3771569225012407 -2.127346182266917 -2.647568797743802
Ni 6.182376952790197 9.106084342768668 3.747863486206688 -1.2828786617964745 0.8794206395068597 -0.7996670763263003
Ni 7.949910682856683 5.038926103011838 7.352749943363834 0.061317467962558915 -1.3329131006460464 -0.4116271883639685
Ni 9.234624074015619 4.207165363937182 3.5486259658954067 -0.49544515142188866 0.2360424397146967 0.2638134391803779
Ni 3.1819392130367588 1.0818604566867072 5.6331900141590925 -1.1913993255385544 -0.6806070022366343 -0.14693006102705664
Ni 6.149164609694683 0.8342387827273392 12.558683072267439 2.3163855137591978 -0.7753110160794389 1.4489043060024014
Ni 1.7189753170159805 6.695271091792698 13.055570641967066 -4.806376540954109 4.084035392203483 2.2319507430528853
Ni 7.62357716107871 0.9650223380000656 4.931333101438497 1.4020616346172499 1.1357076884032054 0.9166041905356923
Ni 3.1502914570489895 2.3792029701285067 2.761616165616246 -0.9290473013950514 0.32453595387141526 -0.20815239817264797
Ni 0.5689897396468971 1.5726536316941968 4.059074851992992 0.33059347291940483 -0.5624367869510893 -0.4023323933256039
Ni 4.431894411562591 2.904304636085437 4.680838957974733 0.9643421200416038 0.17893309629621443 -0.18292164863031724
Ni 8.384153871143575 5.4498410164587225 11.652596950546906 0.2211495817632643 -0.22516924444561864 -0.5837144653829431
Ni 0.2330991202125824 8.640408880550762 5.311626140863468 0.6769899743093373 1.3168969277234481 -0.9523558942140049
Ni 4.874503924922626 2.2822735197290203 10.559819985489282 -1.190720554303975 -0.3282907929281572 -0.5183459672794621
Ni 0.27381960766824903 4.442256287856988 -0.020819314196572427 -0.6373211949648057 -0.13614222638293327 -1.2004184983180293
Ni 3.0324321407890302 5.260488501281454 12.71829250546295 4.141220583165223 -3.0867273587588198 -1.0074898590736712
Ni 8.680376117686293 0.8644147025796208 11.586902092713323 -1.2979581818374162 1.2231521924701192 -2.231382786364557
Ni 6.148096568195984 2.72025485326136 0.2161762837292466 -0.8440340324774497 1.3241296980264616 0.7145257664712662
Ni 8.647707164125206 7.1358663163613265 6.804441796772887 -0.5531887859902602 -0.8350919927928133 -0.11707878199357902
Ni 2.437036480404558 0.18197178629415245 7.972512876853277 -2.4194960064981426 0.7777291386026283 -0.7489206990113682
Ni 7.174259597604038 0.8891173781903231 8.910808881666158 -1.5670650082062496 0.5202745517607427 1.1791521327400853
Ni 0.5643859186603992 7.853683891337919 1.5770082429976648 0.031856996609596754 -0.685754864986161 -1.0523795204975102
Ni 0.7272856691747107 2.6993437249710395 1.9186063263004665 -1.140977421442577 -0.757727755780037 -0.9005980449154232
Ni 3.83811955099632 5.6818964540138035 5.673764348567568 -0.7249549322243902 -0.22127736559038022 0.7228067755331358
Ni 9.008545921339222 4.928365070326323 9.358633997678174 -0.3215331624893495 -1.2555442356475797 2.2726186530858925
P 4.050716021947909 0.6207447821654397 3.512302249276052 1.3744855247711942 -0.030850409721953315 0.642192664124494
P 3.8742174798953357 8.499624147209076 6.999141077593205 2.109850082364683 -1.1423190230721358 -0.997777516881914
P 7.800918893788151 3.175081262360901 9.543652512879143 -1.025540545927795 -0.9734173428699945 0.24132811359366826
P 1.1735340186583845 5.21022496934706 11.634908684322834 0.15802231428547622 -1.120971153523979 -1.6644889920833785
P 6.07664084441898 3.031204829944034 6.027593380787491 1.2170656199564072 0.5168066478168003 0.3888150755654594
P 8.091210699377566 9.117214459439323 6.9724981265932 -1.0411857086642196 2.258715412741239 0.6196196639199845
P 3.926214237068847 4.265917015150712 7.8230498378954065 -1.4987816504488187 1.3004896900100185 -0.6162425199176355
P 0.5859744101117366 8.377698778225998 10.67934881924984 -0.14008886973550713 0.8320634903791349 0.5827965815543641
Ni 6.536198489982057 4.605095141268303 4.061926710170219 -0.46948806523649467 -0.05549289086098185 0.9063740281672519
Ni 5.150723815327425 6.338226692534585 8.408518333613022 -0.21400859984310885 -1.2157103914800933 -0.13840582560612938
Ni 5.519807103408593 3.456032389229236 8.827273983290269 1.727350664604606 0.27058572490720495 -2.11899858163317
Ni 8.322882016744519 2.406372446849801 7.54085359949043 -0.7194923664479222 -0.0992317265098291 -0.5678191343089253
Ni 0.41656616460491364 2.8422176973847417 10.560903017044103 -1.9693511216749502 -0.15298243786872362 -0.017933701660285243
Ni 1.0922223329811043 5.227201207905331 7.725899284168119 1.2789510446072943 -1.0091816449537976 0.07405059925851118
Ni 5.971794770630014 5.5352749675695785 6.435337897364553 0.5979686613091121 -1.2024779519502193 -0.7967522166723504
Ni 2.846621026370607 7.08862890200658 8.551975044458471 0.7533514810892123 0.09340483541540688 1.5302000168591003
Ni 4.891592588901813 6.03045273399278 0.5200584489503539 0.16415876620051728 0.19674647032855147 1.1708024752238095
Ni 3.9538427842588804 0.7764596114047304 12.197353390715422 -1.5117032436064932 0.8061511413887471 2.0665799588221376
Ni 8.080193008127827 6.65064756847424 -0.08186069648275188 -0.2798535233623761 0.6193476412055204 1.1075780200465246
Ni 9.220758272102682 6.677442293792482 3.554590134474985 0.1824511367518019 -0.06150875803775858 0.5372219782483587
Ni 4.878523133720362 3.8031739826616895 12.144987503409904 -0.373216449796254 0.15432249683638583 1.2528324931433714
Ni 2.703690841246446 4.4528898589185975 3.933457244811341 -0.33352427341295465 -0.5036369432040617 -1.2632161503705406
Ni 7.094531236604654 4.745814293114455 1.8519511679965632 0.3256199309642134 -0.2932502563842562 -1.2748192818271078
Ni 2.9823747221263144 7.915115015083273 11.656847568336026 -0.48462003578192664 -1.1094446409416183 0.15186992153083523
Ni 3.6070290983040976 9.140008713529982 9.992273038744138 -0.16346508256760237 1.0105253034658854 -1.6733086472575376
Ni 7.183459744548973 2.6470096915347807 11.7035237924647 0.5077393954082093 2.3103920151799238 -0.7656454679652168
Ni 8.03277758685663 1.4779914272831771 0.3701944259912178 1.6067762107529424 0.48859933214464885 -0.07499008035364504
Ni 2.143109586205536 0.6655772293910981 1.5829874016333647 -0.9872869017632351 0.058531163466673385 -1.0864278683314708
Ni 2.2727079901661096 3.096926857254337 11.726162524723092 2.130942641368924 0.7514964301583446 1.7104631448206475
Ni 2.5024118626670373 4.3494022589656955 9.663126070807749 0.5386417414140207 0.6688321210888933 0.4931933792732344
Ni 0.2795476828639039 6.9920929405802985 9.003228198929909 0.34866987080514145 2.6055294612845645 0.29958571168398085
Ni 2.404442477124081 3.998953484401305 0.9466585823719937 -1.0448163634382717 0.1050357347861159 -0.11089913554542835
P 7.43270690271908 4.493503542224395 13.310712639707186 -0.8455810652495953 -0.9100566192251618 0.7062072193032418
P 7.791671902917836 2.503995187344934 3.0264801516300515 0.9394157891135693 0.022510522397690264 0.14351846424234638
P 7.506757779962221 6.587717439116677 9.694746657318799 -0.4760320370025995 1.071688248128451 -0.2723929533192728
P 1.3390523446015241 8.830717011805813 3.298515942619771 -0.5307769939539633 -0.36609320848791144 0.5857723763532364
P 0.820273671692594 5.228437887535403 1.8804585072267543 -0.4618575452744304 0.8127287946062648 1.2839197014664792
P 0.8192262415210627 1.7070582223989164 6.188066615967038 2.044440960831253 -2.5540734594971175 1.506128320621877
P 2.3823508819141463 1.5820411543406578 9.601915113511687 -0.20897129452951752 1.5099024429523284 0.37784983480320733
P 3.256233678691884 8.580701613259448 13.665048523199737 0.05318378311183099 -0.2714979523088292 1.3210821694493893
