# total energy = -340871.3493156067 ev
CRYSTAL
PRIMVEC
9.26240532254787 0.00000000000000 0.00000000000000

0.00000000000000 9.26240532254787 0.00000000000000

0.00000000000000 0.00000000000000 13.55646644782707

PRIMCOORD
 96 1
Ni 9.333725630647187 0.6198586748577661 6.807663983885886 -1.1349659251411743 0.12918225012533235 -0.6246145460314145
Ni 0.2664664276846647 0.7465202122736381 11.615641393561008 0.8180054696241719 -0.27979747331346005 -0.28428739076401366
Ni 2.2130571908354684 0.09534719821562183 7.414207951396172 0.5986039809002659 -1.1772639145784372 -0.6815094594462456
Ni 4.111683515357966 7.7493356619303215 11.66029637484305 -0.0886567792074602 -0.5082253339056925 -0.08965770966814882
Ni 6.787360791881938 1.0322209504124082 13.131783182696353 -0.20728567929697853 -0.3670897680732259 0.3254029298574008
Ni 5.435244156140898 6.720958609639098 7.785153382495681 -0.6591069233813294 -0.2577968006726528 0.13411439731962707
Ni 6.605493467521754 5.219467166668281 1.720030481647622 0.7206565619593525 1.4080808442281363 -0.9469704615323755
Ni 7.26642164664298 7.981692356552148 1.26837986233242 -0.3896499127619289 0.6016898189144412 -0.5183354257565009
Ni 4.81708976382361 2.592389729763249 8.754752138191165 1.9716093215815076 0.07999473265708804 -0.8905979962799179
Ni 8.875088379156539 4.921662317530076 0.4084303845848993 0.09801070961853442 1.066489220426015 -0.1663542311899393
Ni 1.3369170289534122 3.3537223802908627 3.458051332742903 -0.5167084316760392 -0.5964972189699083 0.02422621953721634
Ni 3.19741929403784 1.1427955426309913 9.3137938610882 -1.292393286155129 -0.09861774707491403 0.4283434726773849
Ni 3.7774774141323917 3.9512586588304193 6.6811552761543505 1.1808107513894308 0.17155145912016262 0.7080854101625612
Ni 7.457699574596236 4.692047294821192 10.030835542854646 1.0030601054370918 0.3926347064218657 -0.02274243590283825
Ni 2.912702223321889 7.682989054118149 4.3864796239592145 0.2396316997278518 -1.617746336611201 1.2864218990630425
Ni 3.126163611516684 5.907302632637806 10.311102027914622 1.5533692558867118 -1.1006740938378399 0.15034242914271528
Ni 8.864001280238323 3.06317925675991 11.358447559633257 -1.6181289167616002 -0.21264488672636278 1.3052436597552362
Ni 7.679376716124746 0.7050653919575475 10.24718402272263 -1.478415170977325 -0.8748975548255254 0.6782593279400642
Ni 7.3859437221990705 3.426802756618943 5.2347612499880425 -0.41854525564004047 -0.7143059371509763 -1.1028926987557135
Ni 7.813311094034003 7.082090522523194 6.53699612924274 0.22944807432663067 -0.17254519049199962 -2.329240258234679
Ni 3.8241877231086288 2.9403319777688677 4.425372463021522 -0.2619067090759683 0.1398495000311914 -0.8562927952401447
Ni 6.119152362343237 3.2902749052785247 11.665826956935001 -0.9320611485207109 0.17160750916907866 1.0358426991847516
Ni 5.601921136118566 5.780972689324918 11.026518157584036 -0.6345917118487845 0.05639869050470287 0.11029646896442294
Ni 1.5415791322924817 1.0039798772280841 1.9612550029229985 0.23987441186627723 1.5044992696588861 2.0705386863595696
P 7.435877348154036 6.011152718745592 8.270176447426861 0.6257072648749611 -0.10116313920458705 2.136736622342881
P 6.859292629976218 2.534684945919911 9.878380059684853 -0.4209610641703847 1.1326550176198107 -1.2964003504319932
P 1.5070118364171465 7.119908922592591 9.895270981645803 -1.4801979739093607 1.193519457205351 -0.2676322987058359
P 5.966674649401177 5.315823967041034 5.449780574722557 0.5830362083689958 -0.3307515957638239 -0.09789732396912172
P 2.929874722398221 4.847220367650636 3.587501780337784 0.4865357647474008 0.4400880148078227 -0.1774184594239009
P 6.004780184029024 1.0590911876402611 1.899450678577403 0.3962910722275304 -0.5773324731159993 -1.055987806674059
P 8.273550741608904 8.677076682687375 12.679159084603956 -1.4610072599135226 -0.11802263396408706 0.7833284870672768
P 9.035642909355643 5.340119255647947 11.70655097348781 -1.5312446560735307 0.5948601975871175 0.7870535013273477
Ni 3.5866718688398125 3.341375594277513 10.489817355815434 -0.1740999365736292 0.12316766850013626 0.9913929535118087
Ni 2.0931368318595935 3.34960987242145 8.467639809513436 1.1887212644857592 0.6950936258885836 -1.0974725561814067
Ni 3.404748970048961 4.144583578313269 12.672204870846398 1.0818628746686079 0.6154992139937078 0.8430516139595222
Ni 3.2320421643438424 3.045636261479127 2.01831419713008 -0.3824130286938575 1.3792850030423665 -1.0484855847597425
Ni 0.4469619898478667 5.431817066249721 8.912996624555515 -2.2588701931515485 -0.5651966090844137 1.0477795598316535
Ni 1.8825190020339646 4.592967347345719 5.633932008183185 -0.6419229554028751 0.12344920429629706 -1.0364903600710793
Ni 7.352450865316645 6.516111258197803 13.013543024007667 -0.04495419611318709 -0.6377156021897469 -1.1756238078718528
Ni 5.613063809467449 3.4212082639317236 2.7542947186275804 0.0944330195696051 -0.6284429186385693 1.6687128003567393
Ni 2.167541732118588 5.902402820333934 7.700018912155768 3.1480749086283653 0.1886086717127655 -1.0745414013065302
Ni 8.415348901457646 4.670475153316996 6.828337672094286 1.721590879302693 0.894093411027686 0.3207806005940411
Ni 5.377909868502012 2.869409741831718 0.5436874339440485 0.11168075090645928 0.040227222951162975 -0.2900212079239973
Ni 6.287450263215381 4.031971256970203 7.579461299708235 -0.5546129200312965 1.3080662168056956 0.0546138306901382
Ni 9.117198386360553 1.7542069040272608 0.09002779896020785 -1.9444790410236192 0.616609159228435 1.4324908976413846
Ni 3.7402888576105613 0.4739739418739225 5.337682316863167 0.5631610667116237 0.7203215472174369 -0.317851085652072
Ni 2.59024085177743 0.24773136086605793 11.424996087876854 0.11441023402248038 0.2972159259002236 0.5340577215877642
Ni 7.491044232996881 8.368119897795177 4.195496240488499 0.870232031029056 -1.0132648138842355 -2.808227264100544
Ni 1.4186577540605487 4.4203902153121595 10.87017061178648 1.5389641362049755 -0.1367397507576161 0.17704127859014024
Ni 5.330504879142428 8.257739816083932 2.873401838434684 0.2953274506282591 0.8652163229820194 0.6237426849494225
Ni 5.297002759854891 9.174069553743875 7.026573518767142 0.46013876281111077 0.5667387567605531 1.6779070652614976
Ni 3.9115322033080955 0.9748496131530763 2.4384967213201842 0.18048681393657948 -1.008556609775289 1.5149688017316427
Ni 8.31882537779289 3.79326055244203 2.944952065438379 -0.738351151025638 -0.8727866791301097 -1.3990279899972486
Ni 4.13294999749349 0.24775451687883615 0.16637317309001776 -0.32323189034801103 0.6483784812202318 -0.3451207200013024
Ni 5.522329288997249 2.2981416441877807 5.899191544481849 -0.9280288874328663 -0.8939982802107185 1.5948252090386534
Ni 6.361419830434144 1.2584366704454502 4.001760070218707 0.35988450857403825 0.13944532261423728 0.11180442096851712
P 8.775869495604397 1.8860109287609208 4.031028344129873 -0.5843770386676064 1.0122764818290373 -0.07361685415520225
P 8.143265751313495 6.732212431849316 2.7194810427762848 0.3677340865254441 -0.666326323947904 -0.48063174055814
P 0.6318016200082639 6.270379650595272 5.809894549284921 0.3271430524769592 -0.4498492079596446 1.7111799683820144
P 3.654889482484465 7.696706676087969 6.489669870326603 -0.08284814294548312 -0.24979938428947301 0.4622594086985394
P 5.531350871575646 8.694378855435264 9.347617385833098 0.49940053652521094 -0.1761863867890127 0.7889566318873314
P 4.08543385927257 2.0312361785008406 12.50346793197198 0.058337559398628565 0.9238228197713187 -0.6438919062037878
P 3.476115801431452 1.8019638647810732 7.206549460003601 0.6782513575202641 0.325385189245588 -1.0000550000621808
P 7.331990212425805 0.04064065490680823 5.964858291758852 -0.832407761092431 1.0017236460138554 2.034371492410393
Ni 0.5780620717930689 7.600748159135003 7.84615743503966 -0.4024588916011391 0.6607210619459846 -0.18903264662406152
Ni 6.359798909539669 8.118331356753902 11.491111135561244 0.4261171544500274 0.8606847536602532 -0.2618630003222264
Ni 8.341407121454216 0.5042870150816421 2.345363237926161 -0.7280945062946363 2.1034050980702874 0.10279733237390036
Ni 1.8789066640405614 2.2199854698587136 5.648735184032049 -0.533671799003255 -1.322173602741355 0.3772767359085567
Ni 2.065192155638831 2.0868476587890274 13.353213944248902 1.5291180966488311 0.2576733877209111 -0.736331549492448
Ni 5.707040171726599 7.530187156997194 5.304712785869529 -1.6260106335025224 -0.5905571993363893 0.49631032763566135
Ni 4.146056300725965 5.29483535705885 1.5299149855358338 -1.0085892627854371 -0.8122348856889818 -0.8509474717678314
Ni 7.560058413481104 8.600411755581225 8.232624804624669 -0.9187657169633853 -0.1568180095647299 0.4096379258480816
Ni 9.167984153585758 3.051230754166346 9.017760910047786 -2.3256908503205236 -0.37455342344012266 -0.19314435479958994
Ni 0.4286400262972235 8.137578634575164 5.022264078165334 0.68443331796126 1.1573262951142453 0.060844642091198435
Ni 0.3923351032230102 0.5336627328920991 9.190199106004677 1.5021991607707998 -0.2390863687473431 -0.3801761689435388
Ni 0.8954337517288737 5.6674989643065015 2.309099995674948 0.5125028782351237 -0.24233495759162782 1.105871064657747
Ni 0.6163389609154759 8.102594530469819 2.589786993926977 -0.6274234762351194 -0.5822689911856681 0.031632539303616494
Ni 8.375585396314877 7.504011600152688 10.243903278832212 1.076970579573313 -1.0680424238457475 0.03602244084119603
Ni 3.3906330646593545 8.052225571474624 9.183122628499651 0.4102012545507193 -0.2437925159737608 -0.46293895126406726
Ni 2.8257930761626526 7.869515368249312 2.1779545279447006 1.194363807483517 0.12086241740572731 -2.2270180816379583
Ni 8.322141318822732 5.481241259923566 4.460376018177599 -0.11958252225203922 1.3153288119053799 0.5275438317286463
Ni 7.154559580113928 1.6017199286800892 7.802369414876035 0.26344834253147537 1.400006294750118 -0.3576193666889454
Ni 5.122248962620178 1.019068335154376 10.946710496423627 0.45228918485970493 -0.31962746082620436 -0.4358464659226494
Ni 1.2352806576672244 9.08379815352924 0.1650310505893918 0.4040380631628009 -0.7136335936743 -0.026273588984548298
Ni 4.837457792663336 6.015293013830338 3.5649709799045706 0.02370300004389466 -0.6040722031036887 1.0113863659146
Ni 1.7239188393133416 5.630328932594893 0.04706505909199916 1.7138942819893839 0.04640301274457169 -0.3180991971071361
Ni 0.6946414812453015 7.40525583685611 12.366614970212154 0.04113919324247108 -1.802540776784199 -1.996849069984903
Ni 4.893893627006428 7.427152162539201 0.7621162500000286 0.4033911736074214 -0.6543115588752151 -0.9193316167691844
P 4.288864062731838 4.808790648843893 8.710015647744145 -0.5204961808532456 0.11145423671794999 0.010354346651130554
P 1.0315262700290613 3.325685080018987 1.2359243948224592 0.6261564365972377 0.6462411231622548 0.24761677481585742
P 2.005810876470349 0.3341996175419969 4.086773203051663 -0.6963652935121556 0.22933186046374052 -1.1438601423070107
P 2.836194757102631 7.582214086507311 13.388813072053635 -0.7686881114462826 -0.12931183372466115 0.5577098137890654
P 1.433255304515942 2.2888236646458227 10.336872817655765 0.9379847130939976 -1.294950248249028 0.45513539605924846
P 5.231897314327632 5.626003389407921 13.130725416032645 0.10801641468099461 -0.6415781704689467 0.1020923358870758
P 7.6863327823633245 3.3326226214473436 0.6630520486132461 -2.773208581933514 -1.9336120164021282 0.1722456569737098
P 0.1499148054477661 2.7941712251127075 6.938823345223801 0.3510165166604471 -0.34742854219887265 -0.5594293675833334
