# total energy = -381171.3104988392 ev
CRYSTAL
PRIMVEC
9.20303443975193 0.00000000000000 0.00000000000000
0.00000000000000 9.20303443975193 0.00000000000000
0.00000000000000 0.00000000000000 13.46957115955215
PRIMCOORD
 96 1
Ni 6.08863566338 3.0590334840211186 12.880964802260172 -0.5508711936006772 0.46503388611988294 -0.5001831803275063
Ni 8.085629751113817 2.7150976748162674 11.663046246464416 -0.4595309540237828 0.22375256660375012 0.3614392546556679
Ni 1.2824152629045373 5.906332750917759 9.603709882022512 0.2117326593247386 -1.1107846999092805 -0.4291400004367512
Ni 7.700206661916045 7.199708828035155 7.101320105391783 -1.5411236057501394 0.37550370316853393 -1.6459037728820236
Ni 5.688745403785405 6.349265603353279 10.040703095924885 -2.3793582579369925 -1.9150337391793082 -0.7133646562836296
Ni 4.140233598353065 -0.012462749460162936 7.291684876166756 1.66180450327268 0.15097337785849482 1.180466994896767
Ni 5.711854223674986 1.0260647340219213 5.067697019632271 0.8216440948180236 1.9260773985879798 1.5697512967891611
Ni 3.4464720377970743 6.030628936273659 1.6386674933193544 0.5106347146781336 0.08465845668134452 -0.27158305582346776
Ni 6.9451897030386505 3.486910171845188 9.444742184101099 -0.20529256012634964 1.9142762921879939 0.9057235390674466
Ni 4.059035224045712 8.289311312960168 9.758448785543582 1.224551643920807 -1.246727408686898 0.14805980375612565
Ni 1.154078945357667 0.7460108692143346 4.507309517765148 0.38382147900561 -0.2599518993424426 0.10346324809267343
Ni 3.81901087854984 2.37003909538978 6.219615092465018 1.101687879814335 0.1755729215747299 0.01396443259989208
Ni 3.89819378827901 3.9586853347283166 9.356651657179127 0.30539923304196437 -0.15511028284500383 0.784340730381875
Ni 2.318971456374536 0.718587666702598 12.855588354644269 0.1430556656733149 0.838460395044414 1.23327873938116
Ni 2.59168498078231 6.9334190217806775 13.027486316183706 -0.15240085433364076 -0.2999405239202383 0.4511663841091714
Ni 3.4671328504821033 4.544090365861801 4.522165976525701 -0.2086319089122278 -1.3908333700015982 -1.4095278610873079
Ni 0.9350743308963632 0.9705520292931495 10.55608959918744 0.4558249659271053 -0.04956984050832754 -1.5587071231598575
Ni 7.319062983808935 2.852885508901011 6.84554568647535 -0.11456090066773172 -1.5797413181223374 0.6731993969186535
Ni 4.616601075503378 6.701134428386413 3.7168746802158905 -0.23611520193416108 0.3297511795237676 0.15999743573397607
Ni 3.145753679090617 4.743078380060326 7.267696246169074 0.3519457133429358 1.1836129967249165 -0.574488833019617
Ni 8.390250196492191 5.860538450730362 2.247573393616531 0.6084263663073263 1.9330440597138001 -1.9323557753975238
Ni 1.691554572275726 0.5545159657900409 8.074765568764295 -0.3292518712898459 -1.349040088114896 -0.6876592810977253
Ni 0.08468816502902922 8.250612552452129 3.140848461646911 0.10784929297551103 -0.42573328874804744 -0.32446319165195087
Ni 2.2278338046953206 2.777503452463118 7.848436259062005 0.21392246788720576 -0.7067384092163634 -0.7062398723133902
P 1.4979779424241035 2.506759377460509 0.6902883352966012 -0.35497987218356924 0.23996645735945124 0.6048011108499133
Ni 9.31319492778104 0.9798194851389509 12.521273397813996 -2.3266894667883675 0.529006789427418 1.1432466770927279
P 3.3548742343876796 8.55718404116646 11.799923900426865 1.147708055298191 -0.6176807950260589 -1.1376653263502083
Ni 8.159493306842121 1.8351679272645331 4.617260933084454 0.3539627437729646 1.6478382709005748 0.8977567188118861
P 8.010321318952753 6.570138433839109 0.14479778554228737 0.28683561110716405 0.5470667322529223 0.6364817297826457
P 8.70772728121176 8.511398944013669 10.36825658323191 -0.22979543036372038 -0.2710870900236557 -0.5465067459843943
P 6.968068447063141 7.4570900967933715 3.5561823336097667 -0.5382167380614601 -0.5069356685599915 -0.027376078020107695
Ni 7.072265204844832 0.3343830592863388 2.977893088831768 -0.15264973711965324 0.6761119425797582 -1.6292273406676068
Ni 0.40936662432589693 1.9603199948385663 2.5314575614261265 -0.7972481824721624 0.09649632985653704 -0.4556791843778603
Ni 4.815368216871417 4.285687560262588 2.348715664213294 -0.7269711913234705 -1.1384122318185619 0.44438278552843463
Ni 3.922167693421326 2.4032620503086903 11.280510149221787 -0.575040591758029 0.5242937002224648 0.6078483823166693
Ni 0.49079691510526013 7.752838816813897 12.384099406137313 -1.2888415642481288 1.1312116003050647 0.12070352323035988
Ni 6.772632804221597 7.918088506155712 11.108085774103023 1.3239399506131586 1.3213408224274146 2.237009388522715
Ni 0.8137626896624023 5.611623973807437 11.953315479681972 -0.8744764081277069 -1.771301102043627 0.013356623812564092
Ni 8.648827859748872 4.088613777261606 0.43942833685847865 1.7824087819210142 -0.4693317421642884 -0.6104526527087357
Ni 4.864171909374182 6.731200742436297 7.517448199240926 0.027528544437571946 1.883919534273007 2.6302148798463865
Ni 1.4666324065643228 2.879381045524707 11.955308856977107 -0.5541385514980391 1.5662255430240897 1.017858089681873
Ni 8.622902911270598 6.493504764695129 4.804111064944323 0.047680336795098525 0.5977529457538803 -0.6853776841524002
Ni 3.8654585941940893 3.3676388433828404 0.10972133945421693 0.08033926048070035 -1.7314585161253924 0.8189570349041639
Ni 4.691605807522524 9.16249523614748 3.480833408096447 -0.10540520231039266 -0.6909217538990811 -1.8530827513978085
Ni 1.4858115306781758 6.115517727457046 2.7526819478338123 -1.5358438454084389 -0.7776751454362413 0.6900187824688375
Ni 7.58130345483784 1.8612033121580502 0.7869938229109801 0.4615970925241921 -0.1867047698218333 0.9394461281308724
Ni 5.665397304996132 3.4264646405688994 4.54053891480828 -0.8374877467184996 -0.7433547748878165 1.1420647409694848
Ni 7.120516715271382 2.9333384374054745 2.8765078581214705 0.4243621194321336 0.17731484396650107 -1.1061199474437595
Ni 0.944525847434236 8.023500064505075 5.967033206252567 -0.7565468480980584 0.2874130808771889 -1.0423272784678308
Ni 6.613042981160981 5.227434091246543 3.384404931823635 -0.40093371320586435 0.7024469809298612 1.5545447642520518
Ni 1.4777588754000464 5.23388541850365 5.361643785477416 -0.6438955057482136 1.6227088228227988 0.08016288280383614
Ni 6.571794980067752 8.71387490832695 0.4983388019628909 0.49465042343473525 -0.7735912051748547 0.6653511045188283
Ni 8.022441715525662 8.823492253490146 4.975350089206145 -0.07093390800640041 -0.21906878797483564 1.8270423614699887
Ni 3.947687708377043 8.35391661587727 1.3061830200717333 -0.1830779717025234 0.48403073893736 -0.7445161421857694
Ni 3.065604450728072 4.696842334211959 11.468599009539295 -0.6662810725322654 0.8869598853066983 -0.20196915218007153
Ni 4.827148101163996 0.854987683169122 12.83196232420997 -0.8197080541375753 -0.699814942623653 1.0947968091214564
P 7.005727264660975 0.8870381714795367 12.439391238035599 0.9040011570597011 -0.8527955807201636 0.5791029347528608
Ni 3.4958555214798643 1.1227702216363005 9.254404102126475 1.1979378979880209 1.5664271175119344 0.22636017942992628
P 2.1250911263809953 2.5744476969698122 10.00219391792968 0.6815002034748651 1.4849992519527457 -1.3670671208199359
Ni 7.579462847917124 4.658843004333793 5.569047974820912 -0.42441225594377874 0.4914476002267213 -0.5650222882900786
P 6.687173424892788 0.1980870371108352 7.15239602713817 -0.18674359347956873 0.4164109829058571 -2.0227853302346905
P 0.18454201078129168 3.7028501757835013 6.288834796932356 0.18360453362995477 -1.2669954149073148 0.1266833949628786
P 4.670402015795885 5.111448246137672 12.77285767507542 1.543042420039407 0.7876445979441273 0.32123157208853065
Ni 9.128094292799311 9.024698199028133 0.873593458227172 -1.3624810441111503 0.37100452974659975 1.3375161466356966
Ni 2.399746491090124 3.9866625599231886 2.5151194140943973 -0.08316875950969548 -1.715542359115768 0.1870665240366262
Ni 5.166592829482301 1.8806309182061998 1.8093138421527062 -0.22263876471428107 -0.5542488518236582 -0.10533372564250891
Ni 6.599422489947687 4.7418543764580505 0.9910573106933777 -0.5951196218960911 -0.32966350490596774 -0.5818013075206303
Ni 2.669938384016519 1.0747487870748396 1.8926362768465648 -0.12736525152125164 0.04844781108874237 -0.1857418916879317
Ni 2.0540897144144044 4.636976594115696 0.4197384443241274 -1.9599884495131277 0.8129383395139095 -1.3066680509065884
Ni 5.692794739010979 6.753987456114751 1.595901911819996 0.9901914770045398 0.49381070114225917 0.262971917115689
Ni 0.12108524658271286 7.979785650138088 8.279934341002583 1.3538182262298295 -0.05333753508087588 2.1344516829634466
Ni 8.79215592066497 0.6734237743855477 7.051266640789851 -0.2997518049481999 0.9401930335992259 -1.0950593187542237
Ni 5.008190197885547 5.478879402685453 5.781436527705705 4.459317723389829 -2.044906587613762 -0.28747273047053074
Ni 6.991278500333361 5.5412667742630966 12.104308748119388 -0.27854611740486224 -0.7245844362588489 -1.0604088185598899
Ni 2.500777404968184 8.036549967572945 3.4256354471511172 0.26888031218032404 0.6409114834192252 -0.36659740181783956
Ni 4.9602055754625 7.31467313630303 12.613094834964258 0.6691923326417895 -0.5054007199727039 0.19952943239032733
Ni 3.4454136888176627 1.9698083235148534 3.8568095822736486 0.6951213938027255 0.4318566280369659 0.2089656381025627
Ni 8.070693225952214 1.5626108544450195 9.483844037524774 0.7505412653339267 -1.983720503022745 -0.75048392973343
Ni 9.016654746784607 4.281914316075121 3.693019494219961 -0.5647983452047305 -0.4036534261298726 -0.18352431521132262
Ni 6.396237891969932 8.408168504865355 8.942286864760028 -0.0025744455953955665 -0.0019599519398482376 -0.15617831909820198
Ni 7.952452637365466 6.2581831698816845 9.481096931695607 0.8658323592994637 -0.24956824211527345 0.5244896182833548
Ni 5.814145953293735 1.719246503397887 8.445044144218423 -1.1874351986844838 -1.1673057749244606 -0.4731048360534756
Ni 5.966713860951822 1.4727432215410974 10.827676672159738 -0.232376046606703 0.00021520133459962938 -2.085181633083725
Ni 9.358657918722708 5.5676334684023425 7.444793922259533 -0.0712756076165353 0.40944175067687555 -0.39975820484052443
Ni 1.4702215900597175 3.097014407830078 4.485542500320769 0.5568572359807828 -1.4623360060272752 1.8502365401982652
Ni 1.70206443779301 8.066735921072675 10.270575573949552 0.7936105857195752 -0.7172362234238938 -0.19619085493539762
Ni 0.3371467305777928 3.500806754096588 8.656691852817628 -1.7084772247388706 -0.033923135110006095 0.9085445534560095
Ni 3.2894130492524423 9.041383300764416 5.315550386665405 -0.6963645221812071 0.05775366187070054 -0.0882222627732029
P 3.4374806729893805 6.220708412975923 9.328513378878693 0.007714595035438327 -0.5328212780775017 -0.65516130847002
Ni 5.8143944352280315 8.002112212086363 5.609174125995965 -0.4655830737551337 -1.1585745656990498 -0.17095650584864108
P 1.4839893298266675 7.836163092114677 1.3988824267231756 2.3133557257939383 -0.7153315502020132 0.15172799663633224
Ni 2.544362976850721 7.29069002812611 7.2833745359197275 -0.5108576293222169 0.09253760231910514 2.877614139334799
P 3.303337240607653 6.487449167925976 5.581507963370694 -1.270698831900831 1.5939186380639838 -1.5508686009520452
P 5.2786029636424265 3.6751674476959435 7.770326423167614 -0.9757040820216422 -0.48246339445024006 -1.4414558201441563
P 8.816902880713984 4.28147257041415 10.614197559674421 0.22102951124563228 2.365853281472022 -0.9424802869715058
Ni 6.658984529902034 5.183968158813853 7.696189537311584 0.8537957398499038 0.514278739188624 0.18405473379349593
