# total energy = -340892.7914482616 ev
CRYSTAL
PRIMVEC
9.06867186214810 0.00000000000000 0.00000000000000
0.00000000000000 9.06867186214810 0.00000000000000
0.00000000000000 0.00000000000000 13.27291794565652
PRIMCOORD
 96 1
Ni 6.502763626119912 1.8923506649375867 11.312547708208491 -1.503745165101681 -0.550605084423484 0.29312632921188225
Ni 4.767228433044944 0.3299491116681932 6.084451190675697 -0.5182410662704816 -0.5811338491399604 -0.7953280826313142
Ni 2.8325542770604666 1.636641327665423 4.753111231735175 -0.6803941148948798 -0.14338682376048856 1.1911409296708455
Ni 3.4630355429814026 4.498115598929561 5.0996006938041445 0.7288252138130739 0.3341390241788181 -0.7924193936249514
Ni 4.917324019142458 4.415862746177193 2.7988605340487633 1.6563488794747474 1.0078760387684964 -0.19023078069722077
Ni 7.375577938485036 6.352740589396381 2.3633892647905728 0.035382493264351965 -1.2280162054306398 1.199586232224721
Ni 5.011148497044994 4.693055766819849 11.720013105375187 -0.10591042408158534 -0.5752863892202479 -0.9667237328999028
Ni 5.802571480473788 8.073883800407623 12.380167972122035 -1.3980034053874764 -0.06542171993891958 0.1875846013236253
Ni 1.9086561367400958 6.482640243511588 0.6286620903683315 -0.4488500772711689 0.16230911458628822 -1.2653828190045562
Ni 2.5569210679584295 1.747886723995445 0.5139170936108409 0.7059737631361971 -0.1786937265918987 -0.29327905273966265
Ni 0.6160892838572087 0.13780481527774652 4.59335841709345 0.28014302957833687 -0.34065111426572303 0.6247166188269176
Ni 8.647749348607165 2.427447641415369 1.0259887125210085 -0.6774049503595688 -1.285493216601186 1.8014436870652781
Ni 7.102610918876847 0.6250065087868012 4.968464979729715 -0.5837795142929235 -0.061441909355565164 -0.7121621513350961
Ni 0.6877227219929261 7.490468940857666 2.494154070190517 -0.05624082477059991 0.16263435913619087 0.20554607089805246
Ni 7.6398571705588525 3.9734113202747356 3.640615552544914 0.6456124884393204 0.2855516021884179 0.43780641786249763
Ni 7.215388920732243 3.6674615415198684 12.650444316822659 0.5525141285207388 0.6526246580910954 0.0476296860628212
Ni 8.256009935118296 8.77434800620618 6.9436343825367315 -0.6576241681882158 0.07248788275708161 0.057151509510327374
Ni 6.649204537503071 0.840263221993641 0.4615028915101946 0.9119075563909714 0.17330829391026925 -0.5162988549424463
Ni 1.9759003377498874 6.315958056787385 9.291307639188402 0.38404927874569983 1.0541924053365328 0.14826934866377045
Ni 9.030900729950888 4.8470327444254115 1.1578589890070077 -0.6338373501812633 1.3197205132151724 0.17810314419575132
Ni 6.437342228131425 1.9031061096304545 6.917459475271113 0.8928407695675074 0.46647113278704183 0.9917701343455694
Ni 3.368476502667297 4.307700698241416 0.4819327952235943 -0.17990265929833535 0.3478036661501042 0.20154877681320127
Ni 6.108938418129053 5.5569737122004 4.823922141343369 -0.5927701478273082 0.8974672125959253 -0.16791334814694306
Ni 5.429803728281276 2.863396829674668 9.14446951998269 0.2965137576268765 -2.119495832984563 -0.2951646997981497
P 0.2449901672662873 5.74422364644857 12.276440504670923 0.04105871771352284 -1.0734939338786222 1.184667920351992
P 3.893371223428826 6.244587610132353 12.793831806428338 0.05185863654250423 0.12311701776785894 -0.5762996609761106
P 2.5514980022532567 8.591568927129666 1.4803282602176315 -0.7826715702095681 -0.6503381760497638 -0.25745844349662755
P 6.258816356104621 7.691784384986644 5.849321390200772 1.3201298328384492 0.20378075146751357 -0.5586436384572443
P 4.5855194572346685 1.0570081042342916 12.699527595790345 0.8716823903223374 -0.7659470583660357 0.32298275045168245
P 4.031795428986946 5.888506213955756 8.352009987373124 0.42370340280221225 2.3781099873521883 0.41799323979131237
P 4.743622680485473 1.1361322652336754 3.7197215762008025 -0.020707921971312722 0.3010977774531331 0.42873248058568736
P 0.12310087090589537 5.627718420504834 3.6254445715780523 0.46458651416981916 0.47016837913297094 -0.3491822916651857
Ni 1.4096343364749842 1.0560649623725222 2.504055246004744 -0.31836813449780654 1.0246257474230096 0.8037042225101514
Ni 2.012428947549947 6.569663217603289 4.645587618290442 -0.029158366731511075 -0.28391535213657554 0.04555352026008284
Ni 5.963032558379014 5.619665439992805 9.207927550537784 -0.13255425192135883 0.5646294237270341 0.580893193884064
Ni 8.550306470677265 2.442002859570556 10.354349130736491 1.0847185989498478 0.27759943722087677 -0.5163790733610784
Ni 2.460838490790696 5.147777105597053 7.266498140968384 -1.4199220598374385 -0.7695463456815198 -1.185619485631984
Ni 0.7794351062454039 -0.2925317720368512 8.903340793146608 -0.17370424379710728 0.25199279239636596 0.16309355816079654
Ni 1.3966026551734239 1.0295481661820125 11.469818427392848 0.05910914745733045 0.20876843449009205 -0.29430132335658993
Ni 4.04236043157311 6.843301318920814 1.718869695004072 0.7059411101260488 0.8698628206150955 -0.08633353039092229
Ni 5.700050146365131 7.711091587137667 7.990217141729775 -0.39243698858876286 0.5799627116499947 0.2873210353840149
Ni 5.130392461856558 2.7734356059366863 5.04640295846449 0.6002219761196631 0.3749362607008382 -0.34222154407663646
Ni 0.8979236507003782 7.057031774672502 6.62982206537654 -0.21551475207499013 1.2002434061927458 1.0748543045612584
Ni 5.041501341384815 4.335124361606704 7.1852936266700596 0.22350985446532476 0.6350997618334546 -0.45863261057922955
Ni 8.045725574630763 7.3267159351079965 9.066013720091117 -0.15794698096285056 -1.104223501751995 -0.12915371088024208
Ni 4.718747313881311 0.47479121622221726 10.500948743875236 -0.6536698115261581 -0.6650757393702545 -0.2589057174661154
Ni 8.255057724584779 7.379613497412799 4.660320582411885 -0.7800505876469535 -0.7163461075094566 0.008655104571836705
Ni 7.553215080680559 6.134920162686444 6.797087367694125 -0.8354717447297352 0.27357951742820624 1.130688380811743
Ni 2.4713581500181214 5.231589769890039 2.761204688350455 -0.403544411355834 0.42932100609930574 -0.75953729818495
Ni 2.4105889806362453 5.157199455542997 11.470482254164786 -0.7556611030589954 -0.19806390358839437 0.18808596644007608
Ni 1.2852302974389327 3.542177841324283 3.9275093313561706 -1.1145343967597001 -0.3255456260828522 -0.4072159466701503
Ni 3.3233598607220896 2.8468918470937075 2.7578601622098735 0.21314959427692323 -1.0524024033156456 -0.20831129234801543
Ni 1.153906861859325 3.1368172828702465 8.536278142350623 -0.4989084273801408 1.4187408950451437 -1.2447779982700111
Ni 3.6877390915479054 2.485160668418243 7.1857452465230995 -0.9661215805395298 -0.2993838800858199 -0.3933142489873936
Ni 4.206884274421342 6.800796454438967 6.196422080745542 -0.09954848641929953 -0.3124959919877457 -0.7844867690414361
Ni 0.7977329652309004 7.484701265626078 11.242347120208924 0.4486253628548725 0.46593248667475246 -0.1288271807787588
P 9.378638948119526 5.506570034626236 8.056116458719371 -0.2670152339471273 0.1318680244876116 -0.020224554576990975
P 8.71922861932317 1.6128632703427428 8.101948618865478 -1.4274885593307869 -0.4856639036654088 0.2104486504059924
P 1.9250522952600828 3.105475953309918 10.559628491286423 -0.6952622902559639 0.35265739469797974 0.8349724364958135
P 4.21346813011023 6.363441622058762 3.850101869918641 -0.4601783577997945 -1.0642150796798575 0.533487708016907
P 6.776610306887637 3.9541041181237113 10.357641058580935 0.7923610295831902 0.15167657457310652 1.9248952053544204
P 6.220437737268014 7.757913139371458 10.274831389383252 -0.7724660904314761 -1.083371340893334 -1.432400137699791
P 2.3883798035259307 8.492448344926427 5.727316921709183 0.2764478401149368 0.4371032211478859 0.8581645583415607
P 6.887565505721731 4.033019699672896 1.5242088422036164 -0.6222537591087218 0.13876372316618035 0.357126743323243
Ni 5.100384227043152 2.7594335767581133 0.7869775205380329 0.3579440970182158 0.28478284234319345 -0.09048560488608288
Ni 1.3643091150795776 0.9919494531157148 6.915561402274303 0.9845329931671819 1.008988812216701 -0.3346581299070817
Ni 6.926923541107097 0.6412793333710184 9.116675854810094 -0.09224243967618952 0.33217881512865366 -0.7276594756397468
Ni 2.6864670438754725 1.5247973990000474 9.237817892618468 1.0804947906764877 -1.0687260801763334 0.13288669556011307
Ni 6.535664767220861 2.0329422830434263 2.792516091294016 -0.603161004143329 0.38091253288893107 -0.6764572417343189
Ni 4.104870785930561 7.020358066124478 10.579670255849017 0.12312087442260088 -0.42570294973074424 -0.5842654527904068
Ni 8.00962319240285 7.18684074207023 0.17909719834691495 1.4059100618290625 0.7513100251791512 -0.44795121960598333
Ni 7.455200876430548 3.963816665565584 8.277761144305346 1.924476886870079 -0.3674782617608962 -0.5344058489558022
Ni 3.075630954587972 8.316724692469686 12.455890474348827 0.020002411263855872 0.5234408653038662 0.35288416599680517
Ni -0.0760734598234306 5.063792136540859 10.140974166917315 0.16021263706857566 -0.7294646471692857 0.33062741148113384
Ni 8.746080956368347 2.39005750779927 5.60179471544663 -0.03878329141578482 0.5017767500668713 1.137800566376492
Ni 3.7116894536337934 2.690475396787991 11.785873427076268 -0.47323184854964306 0.6779633939662002 -1.017238968040635
Ni 0.8854859673982974 3.346194776183 12.670499684392874 0.7327772564822864 0.7972947194393817 -1.8114781884831448
Ni 3.1950562928344923 8.34518218441422 7.8013702143868215 -0.5990372117829426 -0.04757183624169226 1.0172363969374738
Ni 5.770504657173637 8.191304962197883 3.523295959878229 -0.8667630986438492 -0.9851708838614968 0.7929492979864924
Ni 3.204723496917626 8.487950283739528 3.7436392910683987 0.596203084768257 -0.09027734553001872 -1.125987632901964
Ni 3.686750606327397 4.1194260040857476 9.495445253965288 -1.6212137263345112 0.4032855012674926 0.660407644470624
Ni 7.137334862999097 5.977460815129733 11.429907203030867 0.3817203735022071 0.34013895051599485 -0.20214038765061312
Ni 0.7371379143465814 9.168155076853543 0.3765883835998529 -0.9701654115916001 -0.9729262621661889 -0.39920670321242857
Ni 4.623780183338554 0.4004571276400109 1.6419927508637882 -0.8335547302126805 -0.3554627253572588 -0.02976951795294873
Ni 5.95300260742597 5.797302582188329 0.30622093204012574 -0.21531523446967435 -0.35213134699118065 1.184496170660818
Ni 7.837137055760068 8.714458497983838 11.095774713085422 1.7387257392107667 0.2870266440720476 0.99424662091052
Ni 0.16375300574967055 4.899513147829817 5.770149165241124 0.1076420620607114 -0.7396395308197584 -0.24674619928544606
Ni 7.69539371634226 9.040413766614309 2.5573191826481567 1.836267993833315 -0.627538404546429 -0.5216076687498694
P 8.642317214230244 1.747768831262724 3.5490854485945666 -0.6675445126257213 0.4072786815872857 -0.4746788654088148
P 1.595088673717093 3.5367275696038663 1.599944040570855 0.5891014407264693 -1.2669113398339407 -0.6092169805294217
P 4.776632645647393 0.8361260939423035 8.272306338249058 0.4728461830754501 0.727603682701147 -0.39898147457549993
P 8.348274601480213 1.2877604568565635 12.335026844763108 0.8080373026678664 1.2246007519911877 0.8569903355278015
P 6.209183515629018 7.808135443510666 1.2901518655964532 0.0971614742443617 0.4987893853037733 0.4271594796716128
P 1.8651718557094887 3.4378337041943214 6.046862453148322 -0.16946346624288233 -2.0704630959266277 0.464819970336864
P 6.894394215547809 3.999864635763011 6.1656421019664 0.8200962907149296 -0.5646301950579824 -1.5640357344616225
P 2.4956349842869296 8.578936267385007 10.144637003436245 0.2778506339997344 -0.7038466894908652 0.9098519594135234
