# total energy = -340891.8290715479 ev
CRYSTAL
PRIMVEC
9.05996414172074 0.00000000000000 0.00000000000000

0.00000000000000 9.05996414172074 0.00000000000000

0.00000000000000 0.00000000000000 13.26017331662237

PRIMCOORD
 96 1
Ni 6.386087861154016 1.8425430264327338 11.3845217172315 1.819890580916556 0.0890172478706725 1.639734410846518
Ni 4.839959681385522 0.3490015965035662 6.10670755905982 -1.1421981812235555 -0.680652510762589 -0.20068154371689953
Ni 2.818817581923716 1.470468419261936 4.639588608539265 -0.006779999036310905 -0.16490335767602568 1.6590385104917686
Ni 3.335688535929122 4.128779676537803 4.732821075485594 0.5943439200723313 1.9526435791122825 -0.5029741128090821
Ni 4.707013767641871 4.751652210943968 2.6566886176989635 2.004421740125838 -0.6274499585976807 -0.5223563739904359
Ni 7.472703719867293 6.312249153438958 2.771203846399089 -0.24567687748066722 -0.4510270303178297 -1.9330898253500708
Ni 5.210892733075081 4.065142488440801 11.482461741543318 -0.2700915588796058 1.948809550078173 1.1856277131621
Ni 5.603297899768896 7.874431589657892 12.38187246729396 -0.05853861966584111 -0.0026896310170211745 0.45721953228178674
Ni 1.96309490923722 6.493620575493897 0.19283771266649374 -1.1466824422471542 -0.8528814555657506 -0.5215937847927984
Ni 2.576680980403147 1.3309902713756392 0.24421133330790049 -0.03944457914886755 1.3971042906119746 1.98255527907005
Ni 0.6000794766307602 9.158445946984134 4.757033829641237 -0.07751181833423425 -0.26824910635422833 -0.005405744396603593
Ni 8.714716083455253 2.3821907302780976 1.4717331902554356 0.6026899780441813 0.5572830106642919 -0.2888937791877734
Ni 6.95605020500117 0.5872985852229526 4.902710804989943 -0.710682481465776 0.09037401900888306 -1.9763301240959448
Ni 0.7239871701515234 7.3832184540879515 2.4660606302854395 -0.11802494795693222 0.19291964038329357 0.2811254480962642
Ni 7.766183138151203 4.095837646936337 3.6109438363518263 1.190954267581336 -1.0763175193703463 1.3314709688828812
Ni 7.500508749803184 4.0104474849468374 12.848391764612591 0.6943240947124107 -0.6472034870755241 -0.04215246499833386
Ni 7.993407038702572 9.173847886016723 6.803211328002309 0.9584414382864527 -1.2536305635646345 1.4749171851263954
Ni 7.031700905543591 0.8120953213820681 0.5783147247848849 -0.6051716068154546 0.1772845049491979 -1.9404231257866904
Ni 1.9276795094264028 6.535640689160454 8.946082199609974 -0.7477135660771446 0.1277537452089219 0.565755052691045
Ni 0.24611664376587308 5.005657365483767 1.403867716895781 -0.48969847874609856 -0.5135431465741801 -0.11800617890385484
Ni 6.327895711503241 1.8735371637447846 7.021792022767155 0.35996549832361874 1.446300035610335 0.8965238748460496
Ni 3.5086523112650947 4.498045694826188 0.5643034902472975 -0.4069338966533573 -0.754192746043585 -0.6768344225680796
Ni 6.010896626320153 5.548693495916301 4.683439740957873 -0.422165368891131 0.6066903574528262 0.500016572842655
Ni 5.422343236064251 2.7869446280903944 9.565013649616624 -0.9908820753136612 0.2601118219590746 -1.9084118629874167
P 0.11786197945226519 5.650273813818292 12.387229624088059 0.44244648773767026 -0.8950766008765617 -0.3074617719979479
P 4.109309813607784 5.993673634496065 12.366543913970878 -1.6170238566228796 0.6928338833201294 -1.1343843416060915
P 2.277548144497862 8.33254867623604 1.3753052739580518 1.0596521428995234 1.6919712566640475 0.28705492620682177
P 6.533248858628334 7.685603817118353 5.986769035827397 -1.0770297149460226 1.2762989516964278 -1.297955353623939
P 4.949467467907229 0.9993412241833184 12.794197777135395 -0.7135988837816226 0.22278223227068084 -0.4251784446858419
P 4.033894672132919 6.139647776668459 8.203618138597825 -0.0893967426972783 0.6295256101797868 -2.066558875776215
P 4.868326429097896 0.8923847235625398 3.8560321741881705 0.32621488423573497 -0.5457302728296859 -0.7063632852651318
P 9.470924110062953 5.6533632615889475 3.6610807718885576 -0.4377246567819687 -1.6269326310961594 -0.24070847773179838
Ni 1.5888096708170387 1.0131757894202378 2.5918863182139664 -0.8101121829190241 -0.01788330803832404 -0.9472352851579879
Ni 1.785220633339093 6.563518198809439 4.994483711713831 1.6866539582161921 0.7927546654771831 -0.2322660033914
Ni 5.937818955592587 5.684656377717513 9.266593832888905 0.19978474293424303 0.14087768418538962 -0.7119500353242899
Ni 8.698861146215823 2.6607483876286713 10.292679165207694 0.1292313581957129 -0.4123445261459673 -0.20722680103458505
Ni 2.478171990343536 5.151096969772089 6.968379910194964 0.008746892954694612 -0.25767955836849815 -0.19170350858800533
Ni 0.3839558441398196 9.206010758702424 9.266116372778896 0.37789560043947823 0.4553603675858609 0.05809356170862253
Ni 1.5008736589050935 1.104273728815932 11.369285575542614 -0.9303583068969912 0.20988994968904498 0.12982065504027965
Ni 3.8051215177141553 6.949545150750935 1.522797866119777 2.3381709850654055 -0.039343534794629015 0.7718953055296707
Ni 5.565599388995602 7.908859453377796 8.020813430216442 0.05291793104495403 0.15624491067007928 0.19161454841862485
Ni 4.990219186594632 2.6097589094666653 5.036797368218421 1.3591373244498979 1.0218543553254593 0.7453774617448002
Ni 0.8072192486836332 7.637051469309152 7.035012322435597 -0.05458811965852534 -0.31420140471462665 -0.1230581395054655
Ni 5.173094562696281 4.306037874874627 7.3859165114078955 -0.8665134445268883 -0.4027741088487128 -0.4936937159484207
Ni 8.26418218685962 7.218245567120651 9.033930329869792 -0.9850934936563422 0.7818529309630148 0.20378795055636517
Ni 4.639163696221249 0.2638488055744512 10.722733012872052 -0.28556445770422434 0.7326461302210608 -1.5269943654376088
Ni 8.293590830447727 7.104352757956726 4.818800135143987 -0.07102286817578089 0.6429637379625637 1.00235228073679
Ni 7.060076713220102 5.97248237838005 6.999183788260141 -0.10231165098673348 -0.9206433936020725 -0.019269132642257138
Ni 2.388940403560026 5.111686125776936 2.654142767776518 -1.0533022894220956 0.7365395517381961 0.38602979951083843
Ni 2.193372017702696 5.145425432222442 11.242982427504076 0.2352276571228852 0.8576109998309358 0.7980675930496642
Ni 1.3088205391328482 3.106534863016612 3.7826763625616047 -1.5168557343417102 0.7517800228370343 -0.17504635964729853
Ni 3.7348886757255504 2.5522009573054674 2.702011994289804 -0.09913325325875184 0.375565666754721 -0.6615080766236542
Ni 1.122846655296407 3.3315390723544605 8.149224831909619 -0.1957727935613725 0.4059172824633848 -0.06121230984326232
Ni 3.53049588479896 2.2680351821542044 7.242574288817246 0.9880885717289241 1.2822824229733725 -1.4537348946218254
Ni 4.263764082212239 7.030659009667858 6.124463276775154 -0.46094763186565135 -0.8222580742529388 -0.844196526197243
Ni 0.8823897711268034 7.346045421234592 11.176350015263443 -0.2869711082437638 0.1050125948576643 0.10890164549942534
P -0.029062552958081363 5.658935139533089 7.773816157936472 2.1467243296832126 -0.3308541827799592 -0.7356085552834944
P 8.375402306603185 1.8096100567954043 8.080471482064556 1.0279460700454943 -0.0013948234649975978 0.06182037574090644
P 1.937708889725859 3.1288676746138657 10.317794291791365 -0.8159390740134465 0.8303683620648991 0.41679484860783705
P 4.093699495400048 6.403093413838822 3.807671897618669 -1.1070630280833194 -0.18054106421328261 0.7190267396654133
P 7.029916092608638 4.15591426912757 10.341224265045588 0.23080613101642183 -1.1331622962735324 0.2836181326111309
P 6.350237583064632 7.777200054541573 10.068635312068348 0.4955102003318692 -0.5515373664297663 1.86830908142926
P 2.495703020948277 8.726385317263473 5.921409548547985 -0.10207870904032097 -1.1662572790552883 -0.963362529737154
P 6.79466506383205 4.291061754156469 1.764995169400063 -0.15914640058759041 -0.7075763317366266 -0.7843692696269653
Ni 5.383068291531151 2.909788681821495 0.5609993213266005 0.09559335842629343 0.01611361773241096 0.14652176984504442
Ni 1.2884718596815574 1.0784709509542776 7.066505663771587 -0.22575854129018535 0.7681036996977223 -0.21148531920062288
Ni 6.894043810448795 0.6736844372710885 9.219626072807234 -0.1712519256018728 -0.16852089982395493 0.522200822249178
Ni 2.7088477372310322 1.511582536514811 9.149890622849739 -0.3694060749112283 -0.10796010752176245 1.9594459467460965
Ni 6.476669382593912 2.0691146095662516 2.845871540832665 -0.3020066624206476 0.45089307584312666 -0.6460943131717453
Ni 4.07590572583534 7.004312633957993 10.195030871741082 -0.22520961076525084 0.21498150527933943 1.2549148295936967
Ni 7.966091246830069 7.066654247183431 0.19680507096200586 0.20968914653214857 0.1883605602577014 0.3016351380138418
Ni 7.605359714758566 3.904735823398457 8.16011219081283 0.04423531566929156 -0.6687678435098612 -0.32904849702978817
Ni 3.080424046374305 8.422341980796032 12.494637310922851 0.6825139894513601 -1.2413933980684944 -1.2233118579764353
Ni 9.038709460951964 5.110653289865339 9.840507227096124 0.5743893313272753 -0.4660119337624361 1.6383282745276109
Ni 8.427623939887797 2.480926219441129 5.719537239644258 0.34069559435041324 -0.3905708819143015 0.11269942197896073
Ni 3.5792747317115827 2.4847857641634126 11.703230417647205 -0.09327936558113614 0.19743372620356323 -0.48568601515259574
Ni 1.0423579339049251 3.5488151322836043 12.563496662348316 -0.3710600655748836 -1.0711529444502714 0.529960668700255
Ni 3.1134385556888664 8.544714916392019 7.992211123436512 0.5578787352667618 -0.7974775248741491 -0.03776564878454786
Ni 5.830295301216845 7.842658295430075 3.489600112681782 -1.0744627255497947 0.7288570954922737 0.4066778147784932
Ni 3.1124238397055426 8.499560055134124 3.6050168078135205 0.7801117799021919 -1.9180946374928192 -0.30440653011139185
Ni 3.4726027139647 4.57491949052708 9.433459346364385 0.645797607866933 -1.9508180958677697 -0.0894507358636653
Ni 6.883253393161846 5.986978320998957 11.435348116039043 1.3496224429809272 0.8921442577211153 0.16057721949684603
Ni 0.5262797267614906 -0.25178727531910683 0.40461437436458964 -0.9850379578280584 1.04547328029598 -1.2116663033177069
Ni 4.718393082597713 0.5746689952162298 1.6222889562918184 -0.23115091595035028 -1.339652219142093 0.2219975315858564
Ni 5.744588040482557 5.676366510532325 0.3679776913881293 0.9703402466065676 0.21732892246559346 0.8800986394104907
Ni 8.008799917771023 -0.27163675074645904 11.592375414458354 -0.27618173093774373 0.21695636961752313 -0.6636266656285539
Ni 0.3015527523262285 4.66779318289359 5.714166492903952 0.09972255010331858 0.5981468387581892 0.43429531938544563
Ni 7.956650764199506 8.937953599786422 2.44886210036452 0.3630073704737361 -0.683179905170133 1.0444381541632466
P 8.527482864603794 1.6404967662175793 3.6059318641913394 0.3844100045192283 0.4942537022169488 0.18943759537196406
P 1.946170896229646 3.198602218574945 1.4955219380894758 -0.7135729156396937 -0.4753854045575362 -0.28379193918483386
P 4.791126474688078 1.0122426131141458 8.479748631556147 0.688654298021143 -0.40033644594149764 -0.6214443758335491
P 8.592596826855097 1.742566322182959 12.33900252899137 -0.5649335852310141 -0.29084936025224745 1.2103946356941346
P 6.285712518482222 7.78551710161917 1.3036808214780318 -0.4271049722845935 0.08518219039529847 0.788459637646255
P 2.0488384098280554 3.0570221590089073 5.939550314739133 -2.2535117570531122 0.7470556207781716 0.9972895215019019
P 6.69800430645635 3.880264860264915 5.894293075886492 0.42136009938101626 -0.11225590668363891 -0.2531140504850028
P 2.384854359734322 8.586109892533136 10.128054180863248 0.06146504928401673 -0.7991518272527786 0.5031690024287077
