# total energy = -340858.5424330313 ev
CRYSTAL
PRIMVEC
9.26893293994413 0.00000000000000 0.00000000000000
0.00000000000000 9.26893293994413 0.00000000000000
0.00000000000000 0.00000000000000 13.56602027570317
PRIMCOORD
 96 1
Ni 5.490007578247321 8.43206888382971 6.462241722138858 -0.16622027671523631 0.17539422990502052 -0.20358329074472684
Ni 4.84614114453116 5.410600628882226 0.795822248889071 -1.3962547981274858 -0.5578867056865617 -1.2313444984729245
Ni 2.666866683585228 6.318474082414662 4.831619507135303 -1.4647759829273355 -1.4962077190740555 0.24587305265187331
Ni 7.233910985308825 3.5217681847864486 6.215489748072329 -2.382597847920213 -1.1687815881390387 -0.6272157310996875
Ni 7.822061862513538 5.557346376792602 2.5332642827274614 -0.3750542743359412 2.147672038308462 1.2217676534177668
Ni 7.976222756856979 6.893555764031095 0.6048460793987605 1.5626766493305668 0.7878461724319722 -0.28026541408881406
Ni 6.36632031477402 4.942797578286175 11.974142520229806 0.7880274352048428 -0.20966420683148404 0.2829056799251386
Ni 3.7123652549153685 3.482783052414604 2.87111225761751 -1.108774354347471 -1.2715879193740036 -0.4816984912597575
Ni 5.801647644963003 8.740891194900827 3.6268751047952468 1.127297352852323 -2.592956252605244 2.373068825383855
Ni 0.8655005261339841 7.807973084290712 9.094999659025286 0.646673582713983 -0.9810915715858007 -0.34167415621359865
Ni 8.264115817120766 4.922785951849938 7.732509139041399 -1.3204723037795323 0.4837492031411991 -2.232726187766329
Ni 6.734871630363483 1.7622651634163826 1.8813496344515104 -0.4462812881027282 -0.3132274708371315 -0.04489891739521945
Ni 5.249849523146397 8.710822776114746 11.83095326192739 0.29774454471018397 2.2241399887592146 -1.1774716597138688
Ni 4.540201471635898 3.6430058289670773 10.352134851594867 -0.011654553519792832 0.9659354326706525 -0.3454161397545341
Ni 9.089458690853178 7.198188517367529 11.04270002375987 2.131517282925471 0.36884968818712605 2.2972338805314116
Ni 3.1424278311368745 9.031611279742222 12.737068398861886 -0.22829467744847778 -0.4668783955277895 -0.2368086284567599
Ni 2.3096420041722734 3.8786128379447082 5.088193769545733 -0.6810158076392787 -0.4595301826928344 0.14985211976985804
Ni 5.908944813849468 7.106824644379115 13.210278944994249 -0.40524545320734084 -0.31939760420358543 -0.19385757881653065
Ni 4.502504720956798 4.409296330293159 4.824660392207872 1.3624141954289568 1.8135569253890442 0.0069540627203299584
Ni 0.05792805082841572 0.4126380687072567 1.7304134019131479 -0.46480017284252206 -0.637715859300063 -0.25221750681266236
Ni 8.888628718646626 4.526603946864263 0.7601146112406418 -0.28343918383110545 0.9856907609207087 -0.04406767974317572
Ni 5.723149051035958 4.582115586848803 2.656783011329562 0.6138627068315493 -0.1924632695721653 1.4033009063409896
Ni 5.842903665929974 5.195932139644966 6.994938426743886 -0.5770298542739158 1.4176301784794683 -0.27993939820796304
Ni 3.9815443393687056 8.35073399639202 1.964020175140459 -2.2372698412729535 1.3467880588559256 -0.044118844696085305
P 1.0113518220058717 6.304366766325754 1.4915974883166074 -0.3479147378066718 -1.4943842927120716 -2.618813065767348
P 8.686130338492635 5.30517578447011 11.75677491769091 -1.8007240352904346 1.2004400955845842 2.6668893524492843
P 7.059126714948418 7.529886555184654 7.743647615877169 -0.28310236931697697 -0.28665769076840303 0.25898747854664433
P 6.2364625628649515 1.4648529089191469 11.2564193742537 -1.1102748501523974 -0.9101118979431294 -0.5185346862515006
P 0.3939250197901106 7.584128351342533 4.926201553675669 0.05991364563649682 -1.035353675363475 -1.2792510923462161
P 6.410338477787309 4.019945528958946 0.6081773339338153 1.181756660242468 -1.1971832792101833 -0.23212227872468413
P 3.284613263990915 9.092267177564702 9.131016879037297 -1.833806676777016 -0.7838195677710823 0.3527712945680247
P 0.1792797028854532 3.2166534469318653 9.73901903013663 1.770571422966454 -2.292916226992664 -0.5860904218142874
Ni 3.7771736347403655 6.576595329749689 7.967662897193309 -0.14924405387221393 0.25938471398506296 -2.441628319620808
Ni 5.831187734565729 7.183951436216042 2.0325973031400615 0.6853967103157939 -3.8095580455513556 -0.012550068750868709
Ni 7.002994056450109 0.9399717686545701 5.631350465087905 0.03540100520711322 0.18405936177918622 -0.36343134538503213
Ni 2.7535219385886456 8.708125516599717 7.044549463954314 0.12000264050859331 -0.33724285991512243 -0.5993709409732775
Ni -0.02544600187837011 2.5990551694548394 5.543618160065084 0.9013709185257056 -0.37207847953706885 -0.8409139987912293
Ni 2.98769226294487 6.770816552697771 0.40125025757267563 -0.7033029011722534 1.2546870298536068 -0.5182374667260559
Ni 3.9801725372785883 5.649562991620819 12.110372663604792 -0.10882708350774804 -1.3188591936561416 1.8073371697315777
Ni 6.92662731712257 1.8421170215674623 13.104083852246399 -2.9473206026920016 0.34183844970560484 -0.5257232335801398
Ni 1.2517230625667473 0.977687057199752 3.6503041868438224 0.17780155379493248 0.4256839235673508 0.009964824522195742
Ni 6.446774653572786 4.950639095639143 9.455964352920418 -1.1564444067299244 2.0739487404823826 -0.2678791246093193
Ni 8.68901297666849 2.2613137872947657 0.45369295382723074 2.2413080158980687 -0.6425495332432805 3.4417349988565307
Ni 7.846392811747035 8.01615332039904 3.0794324546147624 2.12246134337079 0.21892609174938427 0.462880587222306
Ni 4.526576140065139 0.9285895188798137 7.881179117451156 -0.08991276310174838 1.3301386232247028 -2.0801384142328625
Ni 4.902236727297304 1.2151385838526079 3.446040074945458 -4.622177054052633 2.1090450699648837 -0.8164368395854713
Ni 2.2911041380896084 1.9469486542649326 6.522664969742 -0.7868655536862578 -1.1202206485111998 -0.0022116629393381265
Ni 7.388767049630367 6.574463475150182 5.73196936771809 0.22595265957886246 -0.10077464551691677 -1.1810439504461594
Ni 7.665602272775844 8.18630312423878 9.75771261429439 -2.2467602972618916 -0.8045832826809949 -1.2135573496928325
Ni 0.9000532547254634 5.432901681779672 3.47052674225405 -0.7415904838985421 -1.2236054779574541 0.44628308787494103
Ni 3.824760336974566 6.262378499648517 10.042422722951784 -0.02680452178735384 0.835283282868013 -0.10541780071588296
Ni 1.0581877406637248 0.752269386314458 8.352544219014991 -0.9431392607117434 0.1719756911417748 -0.48432950112470136
Ni 6.20313147964832 2.6565132853780598 4.126674512249977 1.4227872972003754 2.301479543181643 1.063128274373582
Ni 3.1636073431363188 8.34378229661102 4.3148218033760735 1.0518061644925434 2.756862022254691 0.1676490387419629
Ni 7.623030063317005 8.735978660388922 12.369592279505216 0.8776612336135917 0.7914850547361402 0.46883089126847
Ni 7.317998745859793 3.037540584841156 10.24728375413801 0.4566433480633426 -0.09556507629151928 1.0206032565271779
P 1.3644610951484746 3.116465549688102 3.3184652612444694 0.7025287420103902 0.40218738310730734 -0.9685345608563964
P 8.419982195143815 0.43108046477959594 7.166888257380253 0.30956442016324753 -0.15635392544411783 0.40700280221807966
P 4.2610212084309635 4.427954692505361 8.195870516924044 -2.3373598020180197 1.9189549286105854 3.299777194233085
P 5.653446674565138 6.888253934331453 10.87495643493766 1.395909241862609 -1.2888418213584447 0.525751515714914
P 8.225918544057436 4.483364374226447 4.727785211633081 0.8914158641955229 1.8776280448373404 -0.4824081157322724
P 2.327243708017764 7.102236522523655 11.449015753239633 -0.2803680011049494 0.35017293771322916 1.0352744853861073
P 2.8229555160012674 3.4165472569012416 11.941652129240024 0.7963218140031512 1.1947139917340843 -0.3292989224776974
P 4.376975560778033 6.674697717059152 5.8926453950962845 -0.0878895620241325 -0.3834432697305848 -0.179242142896201
Ni 2.36123288548033 4.581503837268076 9.58645517295621 -1.105389239925322 -0.8311924006280912 -0.28336179362595065
Ni 4.298690152310939 2.956483765394703 0.0513851109945391 0.09719541280609066 1.4895832717790023 -0.30484336053849437
Ni 9.20411539257446 7.427483382944013 7.010362858217968 -0.6095165140477116 1.914475038462361 0.23663919275843118
Ni 4.773787853210519 0.8002351879100496 0.36928448819303217 0.15469864922888196 -0.17021782791040363 0.41413427105653844
Ni 1.6969747990732365 2.1188595553825267 13.256864602459988 3.81612592857686 0.2656129542829619 1.8102836539544114
Ni 3.153253944929151 5.791702079809654 2.440757550295051 0.3373377336217738 0.41728155843626846 1.3644433100438438
Ni 5.224017006760203 8.335885165659805 9.18019413018139 0.5607799680739568 -1.8900544435261513 0.06961236098149946
Ni 2.2183986273133964 4.0489572893783174 1.0132584415324737 -0.2433579995395035 0.4149788784450208 0.6039981553326437
Ni 8.686491826881248 0.8154668255768712 10.292607909816823 0.8453830903061763 1.7289254652908932 0.566946759006301
Ni 1.1968139032298937 7.81213483522627 2.882887510153219 0.5423986373532916 1.3090576341846876 0.6251241386779814
Ni 2.8054743082853144 1.8986018995213423 9.366984449510236 -0.5933126505943395 1.5458680624136605 -0.4296395657809891
Ni 6.327390796000423 1.065556542431584 9.216577473048533 1.341336034602419 0.8392129569397224 -0.6185559985421605
Ni 4.206473537482721 3.061269053426967 6.729641171448259 1.5421690162955182 -0.48564333484011846 -1.0636995734960195
Ni 4.034840704356367 1.597862098062268 11.258020118989938 0.213912954805509 -1.0573245232076114 1.5102747386900828
Ni 1.0046318455509056 8.181789153847651 -0.39220748649755166 -1.6722092435457716 -0.23885419813187894 0.18500115686716526
Ni 1.1023078619404674 3.6604314230847823 7.525071344469682 0.2109502726327593 -0.413387622698501 1.04276565155683
Ni 1.476012704300911 5.4142803952996355 12.719229410330536 -0.5493005066794476 -0.13522125723056067 -0.6816806949167873
Ni 8.265747149336041 2.4643034208999475 7.957420726182637 0.5859934912251069 -1.1690165869679805 1.008186885140696
Ni 0.7041515742169886 5.4358584714198575 6.004632644101664 -0.44789774066022864 -0.2010993479806085 -2.207989604251597
Ni -0.0999209519721726 3.41646383650387 12.285550863619456 0.8057528775090639 -0.47792745425309946 -2.8787734497502226
Ni 8.857892936681568 5.2087881497732935 9.740877451211418 0.6616708274537637 1.2069102766899602 0.594765323880466
Ni 8.208678328600557 3.4307287244544806 2.8993435738748006 1.331202545712843 -2.2175386813926132 -0.43986972814942954
Ni 0.8225297525543667 0.2706843591792495 5.798307121494907 -0.34563674040577247 -0.7710085320493432 0.2853816522694569
Ni 1.8056901147150255 9.108636113315693 10.715012653269731 -0.133562381470899 0.9890226535074192 0.8988568938546003
P 3.9868554380013888 1.2002156016560626 5.4776474560367046 0.6267809575551141 -1.4169709476289145 -0.4028607550252481
P 0.34007622639318524 1.0928813570374323 12.313958289604532 -2.8406321627938116 -3.1409511530993908 -1.775148243703859
P 0.9290715033979631 5.860774168833663 8.053793530586587 1.8779584315935658 -0.14856502552731835 1.5668798887786368
P 6.101738621109184 3.149592716377825 8.13954413772517 1.0311036418378694 -1.3920728988356543 0.3598464562472512
P 2.1786627113652037 0.19429722819902012 1.0846329335239504 0.08566221535551054 -0.1349993710277417 0.6840710495258348
P 8.041559465865332 1.1929116824194927 3.6293443485574577 0.2766730687518654 -0.4374374645588531 0.24747253592850932
P 5.8644724731171545 6.524327816329615 4.147702013747544 0.46783638856568466 -0.4811248781444746 -0.7457888382506058
P 6.36847997617265 8.926056670267528 1.1415154487053039 1.3241140142971775 0.6950229205516483 -0.9938249599920692
