# total energy = -340869.7917117761 ev
CRYSTAL
PRIMVEC
9.23223243252421 0.00000000000000 0.00000000000000

0.00000000000000 9.23223243252421 0.00000000000000

0.00000000000000 0.00000000000000 13.51230537335467

PRIMCOORD
 96 1
Ni 0.6317136613549789 1.3522912532732363 0.2768100266044816 1.100777966405556 1.445679885527833 -0.1292169600180097
Ni 6.681163540442186 0.9560807639373482 11.148949196607253 0.22901175812016042 1.1038380933881182 -1.3970071029124778
Ni 0.40383723659193194 5.534852626146789 8.808901389739864 0.6417730600885722 -1.4933733349490539 -0.17825792460606074
Ni 4.095566046165284 4.353228422595411 0.3621232405539428 -0.6444158970280578 0.1344003039911621 -0.6934954281635283
Ni 7.291090979578532 1.6039896075179076 13.289811587605927 -0.060689090349940654 2.5738627263089024 0.4748750405800209
Ni 2.222170662496045 6.969744663465328 10.796143125077398 1.7850179374090873 -0.08558662492256873 -0.6365812314749876
Ni 4.626234769415979 7.548254815454457 7.013967057069553 0.0175421226488214 -0.04777161095732418 -0.39799417096156614
Ni 6.549373421715608 4.060520491651372 12.47306090666584 1.4510159530287654 0.36410317464107617 0.2958149317876389
Ni 4.649887749043125 8.160813440849092 12.374961050724343 0.06882277520066857 0.23084752577731857 -0.14715220434019172
Ni 0.5809400755792391 3.2787165803376044 6.027920312931663 -0.9907249809105066 0.5074799710992358 0.07492426011271612
Ni 7.615687041526535 0.3305425428917358 2.1590775856920215 0.5799501132445043 -0.1391804989886248 -0.040341894152156325
Ni 9.24183400700898 7.9671027388441145 5.818465884869633 -1.8619196329631482 1.8605880586359185 0.4036433988275436
Ni 2.8467034934240165 3.563595578134172 11.740355854154991 -0.26669693137576 -0.7370650852243629 -0.09784487346463148
Ni 2.6986184843610177 0.3598742687205421 2.1462401664213173 -0.6066204234468392 1.3083850335976952 0.8413546858730736
Ni 3.604411277951349 7.560552149124775 2.4991551782944974 1.1699822933153592 -0.09851644561035937 1.506994011056282
Ni 0.5652960576330265 1.6901632655349919 2.662167784062855 0.89810844572435 0.37859314072713507 1.6060470458964018
Ni 1.4447151326828171 0.517541411879955 11.532428437346017 1.3766964163795838 0.24675828347030404 -0.4279817184625919
Ni 5.326324191003027 6.1559418343577725 12.990676176405676 1.8324077395469602 -0.560312541519235 0.38679367426005645
Ni 8.825672663272522 2.605797618954572 8.708221124818747 2.9016367275016415 0.22191062829900493 0.4842608526702951
Ni 5.444626018068692 6.253775802003695 8.96677902779994 -0.09025600537378003 -0.768768844085547 0.12807307622155362
Ni 5.406635381391993 8.872083095975746 3.3190143519123603 -0.041522030503186556 -1.1414672165948019 1.046206816027895
Ni 2.2819124389079315 5.57044288237733 12.780789679863338 -0.28712280333027973 0.9993862561299305 0.5468186207978583
Ni 7.723805716160998 6.642508183026551 8.948200083146675 -1.3992285360438288 0.09176164338502905 -0.19402855717675616
Ni 3.553301638913147 2.650075405953708 1.838862218058258 0.04214192347537258 -0.49990241586229384 -0.28187235356461776
P 3.1106622524090652 1.7677417151083321 13.161580494502404 -2.0529631393696515 -1.131773900566438 1.0232772038149152
P 0.6118855956464626 8.967830579080008 1.614072128615021 -0.3473997458434662 -0.7795911315120315 -0.04805648918759466
P 5.699592582613133 3.030757280249449 0.7682962319646365 0.9505990594238983 -0.10414021955504 1.6150384507617346
P 3.6708556551475087 8.65232826612995 4.709578748176342 -0.43136194778873455 -2.002687531043551 0.4235635347902383
P 3.238676388049186 5.043910199280014 6.737451538681349 -1.4763726866259994 -0.7158982213387606 -0.8942769877934018
P 4.774218223921641 2.1676266329733394 9.894507605775164 0.15498558434168144 0.23641756366592837 -0.520910899793161
P 7.4751447664039645 4.046847555340755 7.770710996525429 -0.17702559486085642 0.596381005107018 -0.2740325458052248
P 6.520688875384016 5.8234614458673875 11.12853211446618 -0.3591805405284782 -0.9966354328576705 -0.7794366082120383
Ni 5.026978284902112 6.491828916635204 4.476585820169984 1.268039282790797 0.3867954740322693 0.5112090991243647
Ni 2.4213837750622154 8.355078076803181 13.56973287655793 -0.21556128904220942 0.07243234692879784 -0.7715430643965745
Ni 7.937965813120746 9.058786533524438 8.58967833648522 1.1255407751725326 -0.40369662066298223 0.37589425373873325
Ni 9.09340740534403 4.980900212568359 1.7592212877477185 0.42047923943795973 0.2066760707374376 -0.9633023659231796
Ni 4.257268598143988 5.340984976189564 11.045214909180023 0.053188153987205174 0.14503747199003408 -0.893175784309423
Ni 4.328606058557317 3.5676023670327597 4.803908160370874 1.0504825605851134 2.7998758068120555 -1.9233764547170487
Ni 0.09259190604081204 7.728237187753905 10.259839047117723 -0.227201444384299 1.450031220517993 0.1800497263991609
Ni 7.756423193531294 5.227151549646748 5.8691102193905795 -0.38027721329777736 0.46357967017185964 0.07166770084863142
Ni 4.131193231325765 1.4523224922506421 4.260645748787083 -0.7570551551930446 -1.592302956837432 -0.20419932706217092
Ni 6.241672345215565 0.20402956825371252 6.758084655062578 0.4593877435776991 -2.3667179434651624 -0.9490867365444299
Ni 8.72430275058476 3.996347243646578 3.8662216964370866 0.23515566623436923 0.4621984735536168 0.43020752246931715
Ni 4.006401144822988 0.9047643228914771 7.955910503402277 -0.46135438038576676 1.4712114541400338 -0.573069069853955
Ni 2.725004204803789 6.265556130654841 8.375858908904174 0.01580097158799859 0.21409833134343773 0.14035960689839053
Ni 6.813729166697522 7.891933901949418 10.992706586920312 0.4389880968754246 -0.02967284447408438 0.13377089793727928
Ni 1.5146769904558472 3.507334353369215 0.4008736899641749 0.9201137463508477 0.3341873609182503 0.27129046428371345
Ni 2.2723201493557834 7.897159345536054 6.328906786745202 0.48000156317330883 1.5724010757071822 0.5663052687675602
Ni 8.515432722839044 1.2473946277761174 6.643473874544505 1.2404150933156248 -0.8166227303440324 -0.39790212546839215
Ni 4.725139676030188 0.11663356265558475 0.8594322149425286 -0.005437626075803539 1.0790171776896964 -0.1038694823921566
Ni 7.956347187998828 2.7842105117315326 1.820782737182443 -1.4366427150262289 0.7734983883507324 0.030922914831101583
Ni 3.916802328553885 0.3914171142295596 10.896701524529712 -0.5582698000575934 0.7817845396189246 -1.0536697000638433
Ni 2.8799487626033087 6.29737963603141 4.79836789765649 -0.7325736251119125 -0.6344875821707524 -0.1173549184731011
Ni 2.886208216228291 2.6527619856069085 6.0571338661846585 -1.4139858968586616 -1.1485758026151254 2.388754868660544
Ni 6.850141091619246 1.9198704419998587 8.115166513772397 -3.5153189428912683 0.5424153495238401 0.7338470925076974
Ni 0.7663777740542069 5.982671295075082 6.213160441631447 1.620791294085112 -3.0279385707553854 0.208826284311221
P 0.42605922018386694 7.381622251328642 7.891996681130317 0.5938489827137837 1.7917316019838367 0.7215744457879315
P 3.946890174223231 7.602697290419824 9.601344525769605 0.5203069476605748 1.1100745612161333 0.5035230433340167
P 6.789374537401501 6.9742315284531475 6.948514221642306 -1.0542034610801265 0.26537872678496877 0.028660601159486127
P 5.193666242422839 1.8844648304190232 6.161746138921233 -1.7933172013034018 0.6110812874316701 0.01752746736080207
P 9.088043478270114 0.9461099528533059 10.179874065446953 -0.8934393223834548 -0.21866538188882986 0.3260883859601996
P 2.3700248657469127 2.6229418746796336 3.653997598629489 -0.9092058411890923 -0.0022466299423316146 0.800238632559054
P 3.690317201226361 6.481682693133943 0.7540241237657281 -1.021201295122493 -0.03229202726448632 -0.12835846867245637
P 1.2593134399145418 4.204090939029097 10.485765624379889 1.3799506616508235 -1.3362208248630407 -1.4229189376822333
Ni 8.51197986788957 3.099408161009577 11.11473638946351 0.8053803246609936 -2.6488998578503993 1.3559514705227487
Ni 6.737627874321818 5.374830340480395 1.3455766505867328 0.10770582541911129 -1.7074827220360853 0.5335093052834619
Ni 7.002205192883377 2.9257221712650514 5.7477432911398205 -0.2848466057015933 1.2004166985458165 0.9233471656864808
Ni 4.297558060709507 4.045915099859748 8.477336838712015 0.16195815900477267 -0.9849027178017746 1.208122037609874
Ni 5.644356135654036 9.051225335119039 9.081606765781416 -0.1782617812608027 -0.9048750750242223 1.1068663386914808
Ni 4.615183787131166 5.335325617676121 2.5855661046864515 -0.5702280008607341 -0.14778932370355838 -0.861312359941923
Ni 5.63833672007367 1.7133730980028459 2.6153335918885605 1.3995483812770928 0.8062161902987277 -1.5049232445701823
Ni 2.249701179766984 4.669136953774817 2.59647029447475 0.42426775994611454 -0.5325849936969796 -0.07059092284468488
Ni 1.7572354345401466 3.822430448089922 8.09877560821813 0.7731548889683846 0.13029913733859494 -0.8479570216809397
Ni 8.813532277554453 9.028606365530239 12.711539627214917 -0.6693358001981892 -1.9495698252829647 -1.3669226248222717
Ni 1.5059156018273696 6.978404497536469 1.8512666456254052 -0.1662418739817911 -1.3471891509490863 -0.5873695456370271
Ni 1.251244468722456 0.9850699739409526 5.172280699094065 0.774593164076808 0.5930815084201398 0.39032071357670844
Ni 8.85802240590075 5.293549765680481 11.018582688129898 -1.6916832931099834 2.8138818912831605 1.2020742887538975
Ni 6.303223639194557 7.613868291726946 1.5283093049435297 -0.6665117004858327 0.20778575886184858 -0.4656386095834174
Ni 6.154261568045461 3.8123673146810275 3.4266123286346555 1.3428982368832163 0.8840285705925163 0.19068226641234257
Ni 2.1921659069190658 8.77023310719875 8.889880993760762 -0.9624433603569942 0.2083776268095766 -0.29744398275062967
Ni 8.519679549782246 7.310570990122356 2.547150785315433 -1.0592957880013691 -1.2057571369221234 -0.05588061321770376
Ni 7.858587078212787 6.906937785868347 13.22985746984688 -0.02051483212390015 -0.908573606921732 -0.21497816284522978
Ni 5.2600275295266306 4.852055176004567 6.402738796376037 2.219063345567256 1.2007884800629385 0.626748818765598
Ni 7.053601031128621 7.563164870918093 4.745089607207509 0.8635862435777644 2.0473483642860355 1.0043441143558378
Ni 0.9951054106523916 8.41135776603311 3.7309639511890587 1.0814746380912539 -0.28309928399318335 0.2024833728123287
Ni 6.690488095252262 3.812598120493158 9.901547183045148 -1.5089606478643498 0.663464943239709 -0.8593284967426749
Ni 4.879004062628938 2.43247168627697 12.256877104345328 0.6133220038367309 -0.7944767903746124 -0.9493854987317715
Ni 2.36044180842725 2.2809984478918945 9.679810192884776 0.26046149198900953 -1.2337646778786429 0.20758032771926185
P 6.6935993575997825 8.926239371734072 13.202549449378836 -1.4068356589671256 -2.972539268049474 -0.12473655564915291
P 8.650915734559712 3.402733159311623 13.406868909732584 0.7909924313704377 1.025572427606995 -0.6638395529703083
P 7.108486653253279 5.870158077777653 3.56654619963645 -0.3510615109657696 -1.6808882593770083 -1.2458902574975834
P 0.9936097889897851 5.693213109965843 3.989534779295731 -1.1659718866043856 0.6867851060228881 -0.7667387010293956
P 0.769285004063804 7.07556451221097 12.293144083217037 -1.68163130819062 0.8973366005553322 1.2334682296841468
P 7.6478890684349965 2.0801512301758387 3.972698880135676 -1.051915436376898 1.7436092925553133 -2.5632404707083665
P 8.358004694500998 0.27422777117836433 4.538066949182087 1.1409931051718607 -2.7521764438535636 0.8155739773645436
P 1.5408688340164287 1.3593077499620068 7.49557292722402 0.12192428301133841 1.0237885962336948 -0.2129847865642848
