# total energy = -381161.31470786623 ev
CRYSTAL
PRIMVEC
9.31088981908652 0.00000000000000 0.00000000000000

0.00000000000000 9.31088981908652 0.00000000000000

0.00000000000000 0.00000000000000 13.62742840940431

PRIMCOORD
 96 1
Ni 6.228724647984061 7.215362408679993 7.3446115270302235 -1.165365363368638 -0.24231104633222783 1.3605552878433471
Ni 4.236212828028528 2.524675733027424 8.718570204018757 1.1150930974766473 0.21241040211805354 0.8507168438142639
Ni 9.052987574905302 6.012283701028078 2.0950126137589544 0.8275121235630265 2.2823387085871336 1.8583547984300253
Ni 4.078644638002885 4.106279359269569 5.45029048993662 -1.0889704322476665 -0.5746536407322556 0.02235754175959375
Ni 0.30463928276150765 8.617554497156723 4.795764723784365 0.07910307408075408 -0.3343459979833016 0.125772453112835
Ni 4.082750740455245 8.716082334233562 6.743342189011791 0.6617289343852087 -0.8960273948256052 -0.3648297683944556
Ni 8.882831061715052 4.291957125947545 0.7199180082008328 0.04058152096678817 -2.7685286599593417 0.0240225881668425
Ni 6.10473152699065 4.826523248617415 1.2361947498113544 0.27183219571979633 -0.4493869236112454 0.14270830963622522
Ni 7.501504677537054 8.67786113113392 6.206993962012256 0.5533505083791052 1.4376732131732726 -0.24548635873641594
Ni 8.837189079353431 9.00771802814027 2.581321325090179 -0.2278964135687946 -0.3780421533196715 -1.2442452656949927
Ni 2.2888867568287963 7.534809730761762 8.414296839230897 0.8353781565746645 -2.937784123956476 1.0964186609955955
Ni 7.799676616163846 0.7466262959210099 12.317259881968175 0.4584603466674233 0.673022505021157 -0.5430118454572584
Ni 8.145492378483906 8.051079954749342 8.533836561578129 -0.7740372915733379 -0.9733417524370526 0.8629907760856104
Ni 8.131758815859795 7.66672641907254 11.20144655895234 0.6269542499081848 1.429438741078622 1.188266693446844
Ni 3.375160350501411 0.2521994196732005 11.762187455350277 -0.18500835595601686 0.26595336834151617 0.453472920755161
Ni 2.8433130076866187 2.63118300276112 12.995115944979572 -1.2972483002545854 -1.2347895195987315 -1.2282853999316268
Ni 3.555605397047352 2.3596308984003165 3.4373822345340512 -2.4802470604342703 2.8616527309095363 -1.7282158408183785
Ni 7.975298621733996 2.4070885042952934 7.806172824057297 -0.5135768280255929 0.26875895611111134 -0.13418253155340115
Ni 1.9880146601267568 8.69772125932187 0.9802123155658312 0.3491313838225923 -2.056931122878464 -0.5616803684010391
Ni 6.718505390164459 6.619614428380948 10.030101226307538 -0.6670868562630125 -0.6994758141166793 -0.7533180567481156
Ni 8.017458331267537 6.040886754845887 6.616702913104637 -0.6926384794798717 -1.6945876112409717 0.46504545608410874
Ni 6.411441551669176 4.395894590064795 5.468754915726365 -1.397525180199477 -0.6469443198768665 1.62641789624327
Ni 5.341704098484983 5.9007671725203 12.220478767839325 -0.8260972454933707 -0.8001915813712025 -0.5992228454311873
Ni 5.0676566756270525 7.960326710751238 2.2876502706481308 -1.4439215080758294 0.6417074969579594 0.19709228370374443
P 1.2623890764082428 7.586159288641063 2.979569501786616 0.34433601931647795 -0.3184784348234257 0.022901844298837976
Ni 0.6858522552700984 6.105262247715785 0.10914225157954169 1.9266733803007658 0.5840687633985683 -1.9048627121835777
P 6.37651640359932 7.70249885812463 12.845705025608154 0.4599387309851627 0.7658064190231133 0.05814704065437728
Ni 0.38096902719282694 0.6054471343231363 13.587922615154577 -0.4499474241004057 0.8585828768259021 1.912413785057958
P 6.635461563015684 1.494826132237596 4.946130009372033 -0.749073936759781 -0.7163576774736824 1.299217251055498
P 5.34015849075915 3.990759148098492 7.526306095002711 -2.5798521111231185 -0.5852609839344566 -2.2496340192652613
P 1.8393756135292647 0.9548783151970566 10.603325232814049 -1.5093398855806393 0.8195213920480661 -1.1812761210616236
Ni 2.3347522005483685 3.5969085047087446 8.48344230100407 -0.7142791976780989 1.0231761594606765 -0.06797713937092163
Ni 8.497285732129175 5.076753415073667 11.620912391586282 -1.8891244755127146 0.4825538972815173 -1.098990792598146
Ni 0.48796139429107566 2.487562525827624 9.421199751826066 2.4039156355613827 0.00023088506388347334 -1.478043903680835
Ni 7.49789205225017 5.045645731868817 3.6719654504887314 -0.1566226057244722 -1.0789099626878709 -2.8149514701982548
Ni 3.57073559315866 0.23529922338911702 8.944335076135273 0.10682985057206117 0.7215690464712928 1.0019010521319842
Ni 2.674311044845784 5.382318200292691 10.089284966961026 -0.5015826317781942 0.3900684883565863 0.13734370289020217
Ni 2.545988360042061 5.313855226750261 3.5246252730343333 0.9519404039431413 -0.79941870776092 -0.9875941485910088
Ni 1.2200710817461526 8.04156422525657 12.313744089936403 0.14770601996113272 1.6046745910289075 -0.09623613421661491
Ni 3.019828858688576 0.14391842541076402 2.84130557982102 0.5825101606621967 -1.2470025167251557 1.2498520703588087
Ni 3.9791019139253487 5.978466548858066 7.36495768367172 -0.3184331834077871 -0.570449887063553 1.8401094790665924
Ni 7.135260822744248 3.628863478895828 12.96773820427453 -0.40119802261084453 0.40833283388341285 -2.4455523372655623
Ni 4.432048775603387 1.3763450580736591 5.034503389907954 2.199558956985741 -1.358653442834944 1.258258549254949
Ni 5.895692737516815 3.2719677575773316 3.2857227352482457 -0.8330587644128685 0.1403074135042164 0.386522937097173
Ni 5.625919013129711 0.2633492103459953 12.187063846113624 -0.5819663723435848 -0.6730795835113377 0.08586019029892955
Ni 2.724273280127803 6.895291256973943 5.181897570523857 0.5581080776687485 1.309058662625952 0.8990864933669032
Ni 3.099595252587393 7.004805944150069 12.799085399805495 1.2594111748021537 -1.5222031146965525 0.047290814666163715
Ni 0.6287224969317815 2.147193634107634 12.06344967833974 0.71249793740796 -1.1143708745986423 -0.18291984885810433
Ni 0.41295100296066245 4.066633590012985 7.019951968774233 1.9537905482325322 -0.16531884794688947 2.6370491291594007
Ni 0.3195748812735997 5.3986774338727335 9.096676132562829 -0.056073960175432466 0.34311500242518334 0.0743511612180655
Ni 4.9897710814909955 5.195495194155214 9.464194648184952 -1.7989723427066504 -0.18817389816819205 0.9826776851259977
Ni 8.484995357441834 0.6644195177755629 10.015096727210079 -1.7156323477264133 -0.18303040629403963 0.09277748624405312
Ni 5.813645175588909 1.7431382553714294 10.325910992162981 0.5359989044745349 1.1061983660901789 1.0226807078814968
Ni 7.451700727383584 5.998522205734224 13.414513808117139 0.10840542258929718 -1.0687019118066177 0.4818499292359572
Ni 0.6937301992268848 5.9154783785854494 4.732069856967227 -1.2067531822868056 0.0116165011930058 0.3772947336306857
Ni 3.314155399780616 6.62826424511166 1.4760144102540345 -0.8792054381722599 -0.6066008830628133 0.5097906215102833
P 1.92892775272838 3.1463452308488575 5.122114208559864 0.13519708886084458 -0.3893267250945553 -0.8720289750284789
Ni 0.13197441582824943 1.9032017638941987 5.6137506111002535 0.1620563751455338 -1.1697354674118758 1.2804309715869302
P 3.0925469089220026 4.585436376057351 12.464382184598572 2.0808976609963907 2.984137257299719 0.4978175083088072
Ni 8.23334062482864 2.7634907484483135 10.823053854998895 -2.89488269660726 1.3321371417119703 0.7447334004028981
P 9.036740072004235 2.131607204390508 1.689338071266592 1.7089248537992505 -0.2866440639216482 -1.5128412138656784
P 5.070868932647608 7.700832208829907 9.115155455776437 -0.18882772970210704 0.10689258548919656 -0.5758399477308729
P 3.9479290544910963 0.5938001421288991 0.15473395513562288 0.15978506261285386 0.4434240211595912 1.4916856628339858
Ni 2.0747828432413917 4.371583856497642 1.1991495121079314 -0.3348393926799524 0.06564823412742887 -0.4567528770580134
Ni 4.182470371441161 3.4182139054667586 1.0889281283872818 0.23728428254159778 0.9078022759733463 2.7718340701834907
Ni 3.0583014558159154 1.6165567069817461 7.062578153892498 -1.3487294988530127 0.7456335436196642 -0.880031276507665
Ni 6.89120377630141 4.664010976047093 8.490896599469739 4.757050955246104 0.30571650717206705 0.4933805555833761
Ni 0.7370239751520301 8.40061076214535 10.032158932978675 1.3429067215236485 -0.2571923343194345 -1.1023540526434241
Ni 5.20377257528934 1.1536937475446043 2.3343378659471665 -0.10384659957402116 -0.2747737948466235 -0.7393716218703524
Ni 3.4152995969234725 7.685161981103549 10.374193542904399 0.15454515437015318 -0.9896034657115539 1.6959528670196145
Ni 5.583209961091206 1.8054094871206168 7.088674716145282 1.175264110539589 -0.12692944953541366 -1.6313271606194293
Ni 0.9320293913465024 1.569518091132928 3.4923285891873825 1.811465075857022 -0.03582318034619637 -0.6650117189015385
Ni 8.553514196323752 3.945508223113287 5.3944856712331575 -1.154855979196882 -0.017138459452499515 -3.052983172428839
Ni 7.046630461646684 7.030997477479983 1.9173924912131188 0.08391283676457162 0.11763131206293935 0.14227867829797433
Ni 8.58361630341782 7.902990250656815 13.557233921995888 -0.801576120423555 1.4663181306034747 1.3969559379595684
Ni 0.4123141380905003 7.314104396224869 6.971629381206185 1.2322667531768778 0.2940956351036871 -0.6143432460123935
Ni 5.103987768074022 2.4673485838229166 13.022738562089367 1.6063005566681046 -1.125979662482164 -1.4213857888671586
Ni 0.4938738093868792 4.106270048379655 3.087661484983785 -0.12228320901265392 -1.6954859546855252 0.620030526205158
Ni 1.2169984880743179 4.270253441556492 11.702445061301908 0.5890788150186501 -0.1522285904218346 -0.4214351755933259
Ni 5.056260146371519 6.348686153644428 5.57075664583036 1.4385671857424513 1.1004295819272016 -3.2211243203158717
Ni 2.1334321388137796 1.6743959551315595 1.2462281647833826 -0.3798756069839844 0.9461153126209318 1.2213601335667028
Ni 4.990683548702631 5.643283822820536 2.999261102867112 -0.32824374174030563 -0.028023996016751738 1.1532978906811429
Ni 8.00591282777337 2.085183107276057 3.5239846838082047 -0.5325112030362507 0.4247459851341136 0.6359276570513887
Ni 3.854317367289193 3.280859657445824 10.779132525093502 -0.1119067508743363 0.274510770993224 1.2727552002092275
Ni 0.05318845863744513 0.5308864589756007 7.831560827587577 0.06797996758439906 0.43977793976657165 -0.654109470166738
Ni 6.648962353391929 8.66663219789685 3.838887360522633 -0.24190686891527372 1.8582187870727933 0.2982335685314606
Ni 6.733170041780035 0.0962289783569119 0.8650021570289113 0.29264527581040567 -0.8825707551000672 -0.12104547995081089
Ni 7.85681754757006 6.908205461285563 4.572247500493248 0.153295084013136 1.5410814396582944 -0.09879618163430727
P 0.73494578452308 6.4371116751638695 11.055305624118947 0.5365802308993017 -0.6054811676360733 -0.6358813771944855
Ni 2.3547613029749543 0.3867622628977229 5.147747088494899 -0.34175334619096626 -0.3297668632530514 -0.015766004585005107
P 4.503435368579018 8.31467124823312 4.513499509487764 -0.46767749439031714 0.062285488302783056 -0.40324436361691196
Ni 7.002170962304223 2.5601036691526717 1.2185143009524233 -0.555515634351224 -1.0222749878026458 1.0393370854912551
P 1.9368792527154923 5.557037049541122 7.347814473160864 -1.2672430121417466 0.28018879521460777 0.14914506640050443
P 1.829859884036491 8.97775558439492 7.178738954289704 0.7349961185104761 2.592078992206613 -2.401453804284451
P 6.491533826715006 4.035963518634124 10.755598319745229 -0.6840322258680994 0.3676443550251153 0.23245626502533515
Ni 6.22151801919012 0.2420142371955635 8.687009080475065 0.42949584111427325 -1.0260182568951621 -0.38153808228807196
