# total energy = -340860.6189002641 ev
CRYSTAL
PRIMVEC
9.37204929298092 0.00000000000000 0.00000000000000
0.00000000000000 9.37204929298092 0.00000000000000
0.00000000000000 0.00000000000000 13.71694148153733
PRIMCOORD
 96 1
Ni 3.899934535274188 3.719616311719009 2.3923992099605593 0.28951264371869495 -0.7798047901847344 0.8935182552505063
Ni 6.721371155068345 7.758322777148162 4.18560115048824 -1.03174050409092 -1.5092059311059363 -2.0115195275128843
Ni 3.2131132933293984 9.242911577589 4.261085507876915 -1.3028108819440272 2.476695081416954 0.49572822987994625
Ni 7.334031372949094 0.2514042783287591 1.6406287309544527 -0.16875872686637386 1.5408724089712817 1.3590105690640464
Ni 5.8130040458355685 2.581390327698585 1.9417976524877671 1.6166258498535127 -0.023343302711630768 0.7223887141591108
Ni 8.730504168303352 2.608662990408854 4.884122458456225 0.03393161975043833 -0.206282949064077 -0.9330042291602707
Ni 2.4890756446414897 7.328904862123488 6.472791612320643 2.0953164075248814 1.5044612173320995 0.7614327154354499
Ni 5.240390593508419 5.851907421406127 3.3348215337948153 1.9704317563336389 -2.078064819533285 -1.4204740756861667
Ni 6.157979798997865 6.440603309888196 9.756503613873472 -1.3235432293953722 -0.008662303660688308 0.5549744171357732
Ni 2.2573798482417424 1.7175498234611644 10.493391279001948 -2.371159267065968 1.5445534573672948 -0.6526154021197148
Ni 4.15231444390815 7.620525540093495 8.698488311573266 0.9302891442219525 0.015535119521121634 -0.7799703692283213
Ni 8.731113351491038 6.139891744348099 10.20667968031979 0.10680259687855155 -0.6270727777639201 0.013824307477601999
Ni 1.6438761459472733 6.835710153372565 1.1430797682189284 0.20560417782949755 -0.022091175472084536 -0.5045522559294794
Ni 4.620570130160094 2.9674531438580707 13.584353033946273 -0.2552904893110313 0.7657920208454101 -0.6059161982909629
Ni 3.665005381955182 8.293747938879315 13.269672429310075 -0.7541153558384303 0.7310253067881862 0.12115552316611392
Ni 1.797587122274118 7.076515581440485 8.985528869176777 -0.25432426874302005 -0.012248478350049873 -1.1507743529283407
Ni 0.05655000671047795 2.8580907035947964 11.918046763028388 -0.6063993085749686 -0.9747890264065404 -3.6096532320994803
Ni 4.4123700607069605 1.673426216574585 5.484760211826757 -0.6779186567711937 0.9998775939440523 -1.7955301497943206
Ni 6.253096724718318 8.196550418271688 0.07337002312495196 -2.4468186055724956 -0.7490271426822455 -0.9092870880489888
Ni 8.915705229409065 4.313232525947777 6.19974164952603 0.6312644472477644 0.5316293146519295 3.392651868176635
Ni 1.3818149106536182 3.166000002798635 2.7815763580164785 -1.043473219146816 -2.353835688185856 1.285962957148753
Ni 7.213075708021696 4.982593640528569 8.323850960400065 3.0714094974548263 0.24428899599420512 0.1080215568873172
Ni 7.135465769910447 5.103689886191588 1.6027281646313163 -0.9996194551866591 1.3474650303182922 -0.3444851432998325
Ni 7.345596481466095 7.5141527834744055 8.132047290744737 -2.4037860519620535 -0.11804268856874509 0.5523079260472037
P 4.933737148876119 0.6031429020792792 12.305824664162435 0.35132890569454334 0.1526836756813822 -2.014738548670814
P 8.719107756669096 1.3336894388263913 3.154745109104903 0.21663549594299467 -0.6290712962511876 -0.842545106636749
P 3.5709287536783165 2.566460653575747 8.906724932017662 0.12069221037645021 -0.2916823976765041 -1.5107365088178497
P 7.753289986812969 2.929037114837661 7.650528280689503 -0.43573616559703027 2.372697043866733 1.9589443245193294
P 5.92256329912871 3.5156992686777624 4.192843869987379 -1.5892484862818244 -0.4656092990073788 -0.4951350763806376
P 1.458122133948123 9.235076544590449 8.069992142427383 0.17923288692482037 -0.6554644415327358 -0.2176513388020187
P 2.7191969368022937 6.443630481728546 12.467862706062501 -2.1134817655799987 -1.3644649073103983 1.3670493802081232
P 6.0708666031587075 8.93964144266062 8.994925285545614 -0.02426298631242273 -0.41815136263573144 -3.4869653314492397
Ni 2.867996959431482 9.018357282558746 10.203881186476048 0.3175865191367756 -1.3275335815016878 -0.43948611955776573
Ni 0.5130475202351708 6.541202884297827 6.08355916917538 1.2874372277014343 -2.2173376211254006 -1.2967744459419601
Ni 1.6506708815022373 0.2989711760331228 12.3081976669797 -0.6941541447934497 0.49894905081008917 1.047007200442003
Ni 2.018861200139907 4.434497468493539 11.042878263114712 0.519251509812867 0.04584251225541137 0.8793548192659307
Ni 5.112349659505776 0.7513262438815479 0.5948336433992365 -0.7273429728405926 0.27212144482544104 1.7334626910396147
Ni 4.377627874910751 7.039346034942572 4.838157243933025 -1.1749008136628991 1.7746687329642792 1.8363520689066892
Ni 2.713114476974471 5.5224142932601055 3.07447444627082 0.23631626220137364 0.8301133086312994 -0.016197949916101136
Ni 6.088935913710391 8.599726595980641 10.950508284968274 0.695622244698544 -0.33257733611865303 3.0196107676159802
Ni 6.745269880123735 1.4476629272179993 4.466715761482917 -0.3967124760356652 -0.2873457179743632 -0.7786436799970977
Ni 4.18213630395766 2.8746792303979496 10.818756956750168 -0.8221865975850551 1.3686789453917458 3.64343135699119
Ni 7.844658092916889 9.325216912269955 12.767015699847025 1.4159095962439356 2.445827702414136 -1.6278330314232414
Ni 8.153973199476928 1.1929868665689118 6.977657333742733 0.8101057551611208 -3.0538113247570893 -1.5211877860581609
Ni 4.02330818885425 4.649164251785191 5.075076083263506 -0.08778928900084235 -0.9575045282944802 -0.7783415753756466
Ni 1.1495567913113913 7.557423533898223 11.10165506867741 0.33567860075179606 0.1271783323214261 1.7175493622434677
Ni 5.1165764536234155 1.098975842635336 9.95187428539393 -2.6556837135414524 0.3838803572680034 1.379723633241682
Ni 6.70892507394146 2.3436308155690977 11.662485980949798 -0.3076042111130831 0.5606460135992538 0.8485365483334936
Ni 2.6349047277245763 2.0179146231867326 1.0993525990067974 0.7688014970956952 0.1042057826856528 -0.5095831334851676
Ni 7.293844026659874 1.2682631644688704 9.647878753869751 2.9682457828804427 0.34094370580547734 -1.2281159642332977
Ni 8.357740289733513 7.810431369817954 0.6982841951272397 3.324801998412197 -1.7578812290932953 -0.38057340438195747
Ni 2.434099204965051 1.8214858473295081 7.158103017164874 -0.5212055482154443 0.05091992677831875 0.4711428272310983
Ni 0.18842504597592918 2.596141932889638 8.812339026122432 0.03742857716010328 -0.6155187543777334 0.557617254075259
Ni 1.6156006739895823 4.636718170658305 8.67200102657266 -0.4522303065973115 0.15707254877769722 -0.6556637020277353
Ni 6.642992708935707 8.901000484463218 5.99677212064286 -1.2485472355044562 0.7800531587501146 2.2579659361697244
Ni 0.4015932386258723 5.587493801803098 12.665660738284666 1.057905592522062 0.75447865271512 -0.10560471991570845
P 2.8394496980515926 2.07478421676952 3.6439604458328767 2.2576337496412857 -1.6055122564388542 1.2786522824199527
P 3.013957251201147 8.087525371773902 2.5126004249401306 1.5543097654231102 -1.0207549516136936 -1.6170104868864408
P 0.05961654115680095 0.9171937050199012 10.608874604494114 0.19025134952251105 0.5351198443036913 -0.059962239486245114
P 5.3106903333674325 5.697634122136802 7.574042051258309 -0.8900418666661317 0.01628099654821067 0.15456752296765636
P 1.8590021596419501 3.7828307825027765 5.942055286724867 -0.1129894424155538 -0.10022597210229835 -0.06593619768149289
P 8.642706812884178 6.9404053132132555 4.32222219538822 1.511878849952409 -0.7228535696106713 -0.16767629243547252
P 8.027188120045823 2.5145301298377407 13.611197394015354 -0.7097843951315389 -0.878417909273958 0.5526090022273902
P 1.9615604923012187 9.352705132108175 0.9964934235733024 0.7367192718491699 -0.6632474279122642 -1.6975718906802764
Ni 5.739246019880305 3.658669876803243 9.375487646122743 0.34588279497830754 -0.9233471656864808 -0.1042716029265817
Ni 5.148638233393804 9.210390567415587 3.049632893081872 0.7380235924828903 -0.19462042512448416 -1.0798461013488951
Ni 3.6247524313226718 4.059606134791319 7.3123369538282255 0.48045561999159186 0.1412371244073374 0.5554151042176176
Ni 0.4386175183636444 5.023530750741097 4.210442703677188 1.8957887749067674 0.0485146597709358 -1.3797853397175528
Ni 4.931262927929208 4.817401904126096 11.730741676912897 0.13538683627414747 0.611194673081083 -0.3923554846185501
Ni 0.26064886750312655 1.2838582540736427 0.9232574207496413 -1.2596628858016434 -0.5137907438086119 0.5995092663233547
Ni 8.383475936401004 3.4286048169366876 2.3633327370637804 0.528251142208316 -1.2941472927317583 -0.2103488916033345
Ni 0.5935206193285464 8.593222393945958 2.5027653966761596 -1.3430309058063385 0.7323075159347195 0.00394458647004482
Ni 1.0690321459482883 0.9984043843728294 5.230063532669778 1.0663871476305118 0.5212567131683539 -0.11612850226516776
Ni 7.52687065402349 6.334792876211586 6.253511906490848 -1.522379749483733 -0.22626093484790064 -1.2785926328266108
Ni 3.928088170594342 5.376566466078937 9.490367411656647 -0.502262174343722 -0.48784239937396623 -0.3528576836342439
Ni 2.9194120204722154 4.810457215786471 0.43678059675154385 -0.028112956186132226 0.22614137855090086 -1.033214260422969
Ni 7.505849148023788 4.879697914103813 4.267751846360013 -0.6440993942289036 0.5895680959502427 -0.8822197995185516
Ni 8.9756019948322 8.545743593502582 9.317204747544523 1.1183475998582029 1.2499780544137118 0.9652011256077894
Ni 4.63943606488029 6.892467282366856 1.3338618845287518 -0.6024035571520141 -0.4421834638842707 -0.09776362660473487
Ni 7.591818953879903 4.538527212852296 12.797494540534334 0.35567201315458746 -0.4810523730353264 0.4979036402647103
Ni 0.653861619876242 3.5277329796468293 0.12909154070017637 1.2970564959587532 0.777870549276499 2.7477618597256357
Ni 6.577304017205028 6.637050829843504 12.003338969738815 0.37533478169083745 -1.016735031821023 1.0610719060651854
Ni 1.8383180474077359 7.4564490775269405 4.097511387138976 -1.8156444040456925 -1.4757216833055617 1.6674097652745992
Ni 4.155257267307127 7.120414259150072 11.23634172265526 0.8006512946164405 0.2432937219604713 -1.8442283863309723
Ni 6.39431475967307 3.9614901533776403 6.401024209581758 -1.62976907210369 -0.4742183808326284 -1.3650907138198554
Ni 8.966098737104293 8.28144243848805 6.912652801592071 1.4683048220162003 2.9494543612055524 -0.3787227243264639
Ni 5.201224800564704 1.339846875046545 7.588802091293499 0.41684704200201117 -0.4014250510199861 0.30284587049249134
Ni 8.666896071459849 9.07351179116697 4.584421199802782 -0.11515636815988556 0.20792099888813223 0.2723021933776794
P 0.9839526847510993 4.826680232677012 1.8683292228478814 -0.7475533863501963 3.7528410524752847 -1.6426207312553776
P 5.667353031684267 5.030850321042375 13.674418425233451 -1.0623885679940799 0.20120142077611153 1.3998312026248345
P 4.256522257198692 8.93957583831733 6.0250016695602495 1.3086912519842042 -0.3790577390683794 1.894349214246763
P 9.194280015113542 6.242178287585169 8.053888150559667 0.6147463949880833 -0.5516520376307595 0.5815213143863663
P 7.572662485639426 4.347459249046712 10.666924139051206 -1.1781486311762355 -0.4831275103968002 -0.6948491139779454
P 6.814435602048747 7.365408993139465 1.9855679331254883 -1.7461531420230896 -0.4120766171965613 1.465049034083064
P 8.606727516614514 7.355390272714285 12.209256945250385 0.1385174114833292 0.22483628658623217 -0.003638110973219541
P 2.4921684208251285 2.60546712168576 12.562070543025946 -0.12888245949672644 0.8325211467418436 0.10958067384432096
