# total energy = -340866.08563394874 ev
CRYSTAL
PRIMVEC
9.34620070886618 0.00000000000000 0.00000000000000
0.00000000000000 9.34620070886618 0.00000000000000
0.00000000000000 0.00000000000000 13.67910946587109
PRIMCOORD
 96 1
Ni 6.850139028626663 5.101586349938876 11.745950074420039 -0.23201506372285846 0.0313592310375718 0.845078414581564
Ni 2.639740968472309 4.938953108923487 6.329050011737052 -1.6190617129885148 -1.2116261941083908 1.1091209390536123
Ni 9.147995969954387 4.927681590696685 11.647980393235304 1.417475655179475 1.132633934573888 -1.2432255661812266
Ni -0.08532987915329038 1.952991476111536 0.1536319149753964 0.33437787966250154 -0.34033975367289127 0.20322205075056618
Ni 9.308311353158626 0.12382594584016403 9.912088078220835 0.09620759497152463 -0.7597818100955882 2.1507095395832057
Ni 5.117708546407559 9.447607130648045 11.609309552592507 -0.9612094879498928 -0.44710352689370736 0.15888466228577153
Ni 0.41355536837362616 1.0974682887759963 8.086597474124236 0.9633892692100312 1.9820279458116705 -2.854353111924329
Ni 7.10268272183262 6.120125972524712 6.43619859677796 -0.06796351252416682 -1.8645347019884924 1.1554514466890358
Ni 5.039873385717014 5.109446504854912 7.008245904569715 -0.032571249067801976 -0.45858890182548767 0.548209587608114
Ni 6.72094649425762 0.9832670605726147 1.931804573401474 0.15397231258581873 0.1778869144198872 0.24290419983153647
Ni 8.991559260103482 8.405832852745602 1.807475801955504 -0.004622072153043652 -0.4539819991810956 -0.15342389628151643
Ni 0.7103991189951818 1.7177195620789858 5.0509290067041475 -0.06383277818524491 -0.8435622350473537 -0.1724667718455804
Ni 5.5319508605437635 0.39517793363949816 7.9881623521371 1.2278737663155046 0.7691223707702237 0.33567371565578963
Ni 6.283506909608215 8.435469655645424 5.932411266904478 0.13160062975883788 0.5152796696493126 0.519971161587711
Ni 7.668137219543792 1.6744466521369565 6.493049667316918 -0.19995623551510078 -0.34794019172796853 -0.008890103400778237
Ni 4.699251095687367 2.913622038222035 7.939916328722035 1.3429774268605836 -0.8102492227175208 -0.19404886889173031
Ni 7.441239501474105 0.4091037729080994 11.460412422968435 -0.3581199604744478 -0.20769962690594554 -0.39408506571514706
Ni 3.516975380385675 2.217199227980052 1.898906881024595 -0.40823333219107116 -2.0860619788061494 -1.712005549607103
Ni 6.193811420037231 1.533870445130895 13.284152483645563 0.7944238256494899 0.9444932036364766 0.44557963405001333
Ni 4.846182719272387 7.488475200577133 7.8031384177419865 -1.155611369305668 -0.4768915567894174 -0.370591096358265
Ni 2.7053045674449523 6.352042600451607 11.723858459467563 -1.1359851104343082 -0.323529624094088 -0.4412090157861434
Ni 4.00213666658238 9.47919728952581 5.970411984946228 1.4345385241990327 -1.229286073281999 0.6325749385290719
Ni 4.249614718926872 4.732252530893697 11.410634557233825 0.23241127072001264 -0.2902592920767324 -0.02818057619927405
Ni 5.290650646962053 3.747172307355909 1.9581234749990453 1.1991429740397155 0.7339239684922199 0.6622030458081498
P 3.914422571591895 3.1429778071156425 3.717434565486892 -0.2648444515480536 -0.24455844760550788 1.1184098205547062
P 6.057319502803236 6.002775074634405 3.19836713184144 -0.6014422216800093 0.9431624006401951 -0.056673027212012075
P 7.990637226122553 0.21585144328340472 0.11019357727829705 -0.1754147987303108 0.19082136309336814 0.3736355396115436
P 3.461449601127446 8.04051790006653 9.411884081753783 -0.29302734174017275 -0.2668072317013792 -0.35532285734528485
P 9.185352734757473 2.6439467588554435 3.0922587789552947 -0.4211209867870167 1.1508545713469729 0.049912311449410815
P 6.091778945342385 3.818016509809598 13.49501585953457 0.6362310472244204 -0.40112448906043174 -0.3966659390684459
P 0.51312418452404 6.379698008770929 5.705980858877362 -0.44886524677982054 0.06926089117935169 0.41029201449231273
P 3.888514902831786 6.612231485954017 5.931001859816085 1.25978861274623 2.3379609259371286 0.14267745639828977
Ni 2.7707933968107836 8.866264091489475 11.373714260010498 0.0998359357527313 -0.05983419854881307 -0.7158241735677155
Ni 1.637903006807942 6.183353021284503 2.86656672079544 -0.8999550120147857 0.6512380621562139 -0.24351972192834834
Ni 3.0448800829792404 8.922574951619223 1.7522257356223925 0.1849872729100943 0.08460909150064784 0.07973530834811429
Ni 0.2468126028438714 0.008954595035736155 12.230464603517829 0.6167323150698604 5.070818357747106 -0.22785064793252371
Ni 8.287874451799953 0.27924391979826496 4.1517188727288605 0.475253249855046 -0.47750527911401636 -0.7959551746923518
Ni 3.1685863974485065 2.2477426123624604 6.107161857323722 -0.4628595041763835 1.1439187634590882 -0.4725276233937669
Ni 3.9445079921325843 2.7354647575924527 10.258210607451536 -0.3919510500912798 -0.7205280068012881 0.12772597729478002
Ni 3.9740513330238927 7.517046536579893 13.34885529751979 0.2668496549035404 1.4256131966849448 -0.09105279024346254
Ni 4.017969130824669 2.757998447845203 12.885967877192167 1.4452615670434916 -0.37022471415778174 0.952272076250947
Ni 4.498167584369276 5.265257019248772 0.15333283654815133 -0.16493395380364498 -0.3955770768796413 -0.25925358772383733
Ni 8.628122893795544 4.072167749561998 5.9352011078586235 -0.5234982009043629 0.2818551271734372 -1.3326374783871564
Ni 5.868928132241359 4.844042439277415 9.576101503813488 -0.36522957493603553 0.36580138827910547 -1.3402502577374078
Ni 2.3126613234763562 2.8667508409522124 8.451897472881948 -1.6882799238553892 -0.8645542639179884 -1.551875959170637
Ni 4.589162195858606 7.924307238680094 4.061190636662015 -1.6320977202368663 0.33613831399703403 2.4335910511386283
Ni 7.579208118442622 3.0644697199637965 9.369383168002082 -3.11065841565312 0.17607891467687095 -0.8602569220942152
Ni 3.0518990798186496 0.8500014518725263 3.9782001115818333 -0.4013173217975282 0.3019374997456091 -0.6278507935805251
Ni 8.877928150152036 8.898022481982567 6.328078941468591 0.8343188620722147 -0.9703762420508255 0.9914405189202925
Ni 1.6445107708098894 4.190957962383422 10.219539766808742 0.12345203250977449 -1.2006794652888997 2.017347961269203
Ni 6.092479910406241 2.9344079889155714 11.12225192224305 -0.7682032013900641 0.6660288473121433 2.242785885995176
Ni 6.0620112956306444 8.337474739718386 0.2632535047615872 0.748818111995233 0.9275851150272284 0.5291944799581918
Ni 7.9162881983495845 7.162376906670578 4.8362215384049545 1.8417598701858215 0.36318529081249706 -2.439366263059508
Ni 8.596327118499046 7.571647041953832 12.877308622103335 -2.274974040691946 -2.8892794914878692 1.3440022685806723
Ni 4.988824436666611 6.964003793599395 10.657790601692048 -1.59526641034113 0.032656609692756654 -1.940949944824438
Ni 8.50636058910337 4.774871206776128 13.792646560267816 -0.3346992675576623 0.5545488995625805 -1.847841300493211
P 5.930033593407879 1.297757373021718 9.94831021424056 -0.648414990885122 -0.8737912091352241 -1.093128163169782
P 0.07947541893996701 2.5244555809701636 9.868670302165608 2.8477572038743664 -0.8686824271537492 1.1760446974593552
P 2.0436122395668095 0.22273959331089405 6.76247259926052 -0.8108930269491066 0.3728153577030934 0.20579032569837458
P 2.1096805333854287 3.322163169838879 12.425870297818687 -1.659206660638517 0.6356191246720344 0.03330298502750394
P 8.885657458256151 6.156529424840955 1.60882791057929 1.280792725801723 0.8035296446055001 1.0820978734975493
P 4.374853810335769 0.5953212171519378 0.24589947902068865 -0.5998321968804122 -0.38326380672992705 0.25397279894087227
P 7.851145178415255 -0.09014036873151123 8.451282492865925 -1.316480923231952 -0.7000440279153234 -2.0346720543699477
P 6.0375335956008005 0.6308180879855938 4.378983896492008 -0.6395806804229436 -0.15431221242374069 0.11882867480515019
Ni 1.1347128991688662 3.836484602691985 0.9250168637662003 -0.5607352308789505 -0.42489742311031337 -1.2061430595066325
Ni 8.302949873773278 2.7273242166508744 11.883575685817311 0.4580160600411531 -0.010010333048150502 -0.5988852595861106
Ni 1.9316727919694692 6.3027507371612685 9.51256229194526 0.44165407374336196 1.2761845376057506 -0.8082262787502209
Ni 1.7499826474180538 1.627687609277351 11.066823343473677 -0.29156129871760755 0.9003674169618558 -0.33362763176003835
Ni 2.959754885624596 4.461483746027491 1.833780684251798 1.7585468877017518 1.8531508856315828 0.7524096860012333
Ni 7.769048150136467 3.296545233305164 1.4919938575960663 -1.1145724490864868 -1.2374382700754882 1.4506937938026565
Ni 6.34849104412807 4.608910718257636 4.765337147287604 -1.2870942425397187 -0.7173421528741387 1.1623731135095337
Ni 3.858831368927707 5.282687683836652 4.325444184914704 0.16828821498785854 -0.39134864062059055 -2.130218104498073
Ni 7.0326329464513 7.216996104446219 8.353544597462301 -0.2155893140666674 1.276329804934363 -0.03825930059151476
Ni 8.138372622980794 4.985132687330304 3.449584599146581 1.5056691215972715 -0.02003583560495259 -1.2981720976204352
Ni 6.794173977928419 6.199185485526792 1.0943709578138392 -0.8731538326615415 -0.18025541465206377 0.4520037924088022
Ni 7.266175813326339 2.427984095781907 4.046676921359861 -0.3677423140555602 0.607443947789399 -0.24115970633660405
Ni 2.0668188562808614 7.883884919997746 4.986678548951128 0.38728655473607493 -0.2063138023020124 -0.40819990784997445
Ni 2.2419292754328835 7.371638343733652 7.211325764389668 0.6890394492747036 0.24510557835822946 1.4032808517363318
Ni 1.572330061634448 7.992609274502201 13.248709820776845 0.5387389291135174 -0.24359299836844497 1.6474253517328723
Ni 0.11828271411519262 6.678542780994772 7.954881465525313 -0.6051867763241061 0.19711748051472502 -0.9416081687791976
Ni 7.697316058601894 7.334281578930566 10.551777580054587 1.4344418507201684 -0.23873181362140175 0.08584656345217474
Ni 6.508049385063346 8.276247777940798 3.079769450757555 1.5103526431158698 -1.1535614287551745 -1.220356889113169
Ni 3.2205325817806445 0.7998114186803681 8.866497746510762 0.03990480661473773 -1.1789670133124728 -0.35744298901208116
Ni 4.062952395522507 6.800034045862254 2.2627984073139973 0.31396229212062704 -1.384634440279738 -1.872916498294284
Ni -0.05274995760535941 3.980126363577309 8.191789899326945 1.631855008098441 0.26370853817139744 -0.24132579960082307
Ni 2.239826380241316 1.0255305808226918 13.517723389123157 -0.03928594208381621 0.4077818464759493 -0.2554414130665988
Ni 1.2712982784113755 1.3215995313936655 2.234290625477026 0.012425370247546343 0.03751110957158056 -0.45642146186052357
Ni 1.6780916704690065 3.751957562191831 3.7932444044529356 0.0028953192699240457 -0.22266807529031976 0.5427562778030265
P 3.4652535048739703 4.544253700767579 8.80852606648972 1.080387318564346 1.5222072284616106 0.5956685524210257
P 6.722180192770007 3.513891134104709 7.075109560080789 -0.5913763528035751 0.6121092144755522 -0.17767582685034564
P 6.300404840747564 7.148927723645397 12.122044000541043 0.8660542455022827 1.2165249169615888 2.937665853211057
P 8.053929698288304 5.478275629054114 9.049429066535243 -0.9818451619223735 -0.2327246881953734 1.585624773486308
P 1.0636443878947428 8.941734663364613 3.511071385307839 -0.6332295413939353 0.25201310411134015 -0.8036520291159773
P 0.7162255406059509 7.735906521917367 11.002285957354518 0.3419626339882949 -2.509802148383568 -0.302069397337783
P 1.199136261637637 3.120444116862892 6.526536170347435 0.03514235222908786 0.8957623140896767 0.21844272435506248
P 2.295025042469745 6.1835305991006795 0.14485209389558165 1.0867495133369476 -2.3911807044932174 2.42092142609076
