# total energy = -381166.00947717606 ev
CRYSTAL
PRIMVEC
9.24521739647216 0.00000000000000 0.00000000000000

0.00000000000000 9.24521739647216 0.00000000000000

0.00000000000000 0.00000000000000 13.53131018062840

PRIMCOORD
 96 1
Ni 2.0292605105840136 1.7031539559794027 5.487230697572745 0.8951866440918649 -0.94671977897415 -0.34304532552951245
Ni 4.102269390073111 1.6849223871964725 10.203879918065267 -2.3825489969601485 2.0472900002442738 2.500962952825383
Ni 2.165285394713451 3.37296041266873 9.218773340131987 0.6861197045247474 0.8129787058335418 0.2374622028803588
Ni 3.582327606714488 6.719969499995835 12.406235861130096 -0.28871200219427057 -1.7362258556070485 -0.6853023508297746
Ni 4.636199187411742 6.306236774536958 3.732800916652223 0.5305905889747701 0.10530107263236058 1.98758204286068
Ni 2.7495554009887213 3.5990244694031146 2.855444574365198 1.4059627694438692 -0.5880015227940713 0.027768942583152177
Ni 3.8372737227175713 5.948844404130401 9.916068903122245 0.8410237848962161 0.49140594835550855 0.8546246635091025
Ni 4.838364357075196 8.148004275527756 10.752615006605208 -0.9456666551192875 0.19066632557274257 -0.14235144051743873
Ni 8.775662087228122 6.354922089552632 10.636557018571356 1.7087651882929344 0.8387355030826716 -1.1313918346366707
Ni 5.551170621357098 4.18453333481475 2.469612990605107 0.337348018034419 0.8299330742996932 0.04148989171367048
Ni 7.575910220615121 2.413537973293187 2.4408991942937357 1.281163993098213 0.4581929519386496 -0.21067207927070816
Ni 7.325623694199562 1.2653559295357557 13.015145296392886 1.1450809020879893 0.124536780933521 -0.5077003146401579
Ni 1.194805675284975 7.413850804187138 12.003422661984361 2.128852591609114 -0.4056084929737144 -0.4113855046668076
Ni 7.20471474057727 1.5144590681195633 4.71980183963805 0.5131441113635485 0.9235916775971191 -0.36449475365254
Ni 6.482025338856752 8.4746655431785 12.52969557024286 -1.930426419585295 0.3524491353419156 0.41950736244299364
Ni 5.379736554449455 2.044071348915786 3.159831339648441 -0.12082179397577901 -0.014977447245438725 1.3800951576484877
Ni 7.013246287486761 0.15051491341619516 1.4531540313043456 0.7037019363828848 0.010205993998724358 -1.098729054296327
Ni 0.5025247182317666 6.324264948536306 4.079243251528098 -0.8204374761044321 0.3759132799021268 -0.6328464470229037
Ni 6.558880831398587 2.1246803997364587 7.209211614337927 0.00037460973059935486 0.08693593986161158 -0.024404654096609586
Ni 2.899734713012006 1.6656923349305015 12.710014291106079 -0.2681074385700415 1.219650349964448 -0.2557802844632563
Ni 9.069576794722105 2.964395763756333 0.16870672776415233 1.3435407555632215 -0.18931083998611267 0.015128113890690076
Ni 2.4669753300707407 5.666846781910861 3.430620060249105 -0.00018614786887709875 0.6685544419474744 -0.12895830703998434
Ni 0.45715104010151075 4.3548949564998685 2.0916296719260647 -0.1794411462808845 -0.3845832968722989 0.3132691227083444
Ni 8.321500025923529 3.824469096569316 6.366008029779616 1.0157078761080893 -0.6633523289212447 -0.5655604201817357
P 1.1505303289860642 3.3423957238267588 7.234082173761335 0.6475780968061234 0.1450331011146599 -1.357953588554442
Ni 7.449537343488412 3.4289217138061923 12.252465706654839 1.6030792215173295 1.7403349926794156 -1.8896520658814102
P 2.3545534860542956 0.7053592416375558 3.497329851177153 1.1911830957626903 -0.5183971322323717 -0.8408368656963906
Ni 1.6886482098230045 2.1252351127825926 1.6452040085715507 -1.0465477443070814 -1.8108480110983136 -0.5634233192340748
P 6.532421019098005 6.451248010013762 13.500932472979308 -0.04901396800485752 0.16795885667289784 -0.92734060311659
P 4.801882729074466 0.7377997850972026 13.025699636617324 0.9767114402402339 -1.1503755748280253 0.17036052413585498
P 6.203522408827854 2.3997533540967626 9.670732266121686 0.9310669029282417 -0.2474172572105416 0.22398396588826586
Ni 5.175879509995292 7.010509703125835 6.175595380520249 -0.45437049286876585 -0.5235179983987048 0.05843114755369937
Ni 7.474296035780849 0.048351562666250555 8.45717728987739 0.8359764522802957 0.3573301175833007 -0.24930444693092552
Ni 6.1448337685469 7.312245864570302 8.49256151056852 -0.16883354596836728 -0.07068168278627827 -0.7694848963159651
Ni 2.1021405596285563 3.946422759761827 0.09651267385332851 0.8014311102052585 0.7155434091025031 0.12938613860602233
Ni 4.004390273082807 1.0579024954991592 1.606193813602193 -2.4498414515592195 0.2379633108864934 -1.0059551675967
Ni 6.312162958913154 6.880290815545931 2.171261503263799 0.8776627762754884 0.3636385762998318 -0.2267173056590289
Ni 9.181841470042144 1.3742923265789937 6.229625355735422 -1.3787869803600252 -0.24690072258543927 -0.7126241785731792
Ni 0.8813558233496495 8.728206386131378 4.725796438623269 1.241039100052869 -1.9145822534641868 0.18836544535370786
Ni 4.793552788165023 7.786682687711084 0.5650602934876577 1.6682870256732303 0.5807692667116902 0.9521610045943794
Ni 9.114721191459958 1.9944800025914262 8.41719172446858 -0.26533553225185913 0.36710442336124516 1.084732740017235
Ni 4.503659750255512 1.9399239745041692 5.447962561036935 1.197360685328312 0.8866269274473118 -0.8687299925622329
Ni 7.64527708703415 6.055127423769632 5.066041704252087 -0.4320882844317978 0.7136559622718033 0.1886562371212493
Ni 0.517863458479109 0.37343467170074496 12.268879665689937 0.2765270300923044 0.7619597915835135 0.9200821217819637
Ni 4.231517529822281 5.739736076172839 1.513599262898056 -2.2129284363141113 -0.1698478461654946 -1.5664016635906377
Ni 2.367949806118426 1.4099696206628312 7.987221623627624 0.7127735596668499 0.6419828621065331 -0.24925456752959657
Ni 1.6734583175763744 5.133323774139396 10.699342214698008 0.11070733124959643 -0.0212113439702925 1.1969536796978806
Ni 1.889546784697787 6.994977737834089 9.584862686580179 -1.2142384349202573 0.320026753147152 -0.683089659449172
Ni 8.831133391841501 3.990393013885364 10.199373799087175 0.21500850186253295 -0.03336237751052964 0.8552106179195593
Ni 6.322656280702518 -0.016351091556536593 6.0705382767129725 -0.809959973611876 0.29974743407282567 1.559551987658656
Ni 1.2128800753715006 2.87138887635457 11.474402075104015 -0.24290934203785905 0.03280547656579511 1.1666696840023585
Ni 1.5225763690279874 8.850788724109506 6.973563965209839 -0.6178761988663165 -1.3225199303371804 0.1302680269903434
Ni 4.402406128901227 9.07208224864714 4.568616647957777 -1.80692193657103 -0.7197962708415861 0.4110741440739759
Ni 5.755129363203052 2.4779309127318827 0.8257865194314549 0.43555490282415954 -0.1597675791113571 0.790553029840174
Ni 8.46174997442102 7.546602881344387 12.998149813181088 -0.46562086897160454 -0.08401336689817789 0.8546876555365537
Ni 7.113584632314925 7.844150959290544 10.502028935144736 0.8965277315007913 1.5032885371802367 -0.40867221950070265
P 4.1530163885769165 7.801114472127999 8.111952550137778 -1.2121959505689317 -1.1333998662056353 0.854642147010599
Ni 0.4189941787014555 3.3975526910473275 4.346946843070516 -0.6141876942711357 0.3952847424502031 -0.3376043570195992
P 6.997889981326292 5.7846123616050615 9.762650991431284 -1.5743628274192434 -1.7254228514542735 0.22721301434852484
Ni 2.972642497708855 8.700415262520076 13.357825752294229 -1.623606909157036 0.5454885891325251 -0.5692306699444712
P 6.407231529803047 7.806818771285741 4.52355730722033 0.1496312620083036 -0.1515685882403325 -1.2372289822781595
P 9.003834053537815 1.0544078033085165 0.9935326691040524 -0.04812873718642679 -1.09885503835123 0.7394284432502168
P 4.389019054054531 3.9809998729708327 0.16165355138256135 -0.6469021537850214 0.13050791091529138 -0.7911919489757535
Ni 5.34747074559934 9.024903904073463 2.702825449460669 0.5021549593418966 -2.3175167991501637 0.18194617209092534
Ni 2.5691534731685826 7.07052965471751 5.663759803809127 0.7912418283770825 0.05960382770556187 -0.858859013305424
Ni 5.172181423021067 0.7098579644417008 8.750942224848915 1.6399133596265434 -2.322781389983213 -2.7031511629947964
Ni 5.989736000847896 4.647617030944661 6.760336892884733 -0.9966166638045934 0.3376714628121088 -0.3211534105524275
Ni 8.489319212813868 8.349411337361493 2.7837562338480994 -0.43127273050903797 0.49014019426920746 1.919866641791577
Ni 5.005564114397352 4.183257494808642 9.053298740383308 0.39024435181281825 -0.5648461677235305 0.36849873260561056
Ni 0.9341275244718428 5.280905180063288 8.37115886233517 -0.11152288517235631 -0.8713386338296735 0.27745494122321246
Ni 1.1923741830994221 8.625149947377158 1.3335837851667232 -1.0281108777581327 1.2859611573765402 -0.7592742743315505
Ni 8.383415247089495 8.214495879324325 6.258636848048218 0.07713952259648005 -0.46241238933663587 0.6194705399366299
Ni 7.454770136556941 3.988747365181834 8.468989904194808 -1.78028119405505 -2.920806101341241 2.029466341799292
Ni 2.5163910172638246 3.9224776466037192 5.211164806859861 0.21496170778499754 1.5435394142804835 0.8450228787532801
Ni 8.306171455415367 1.5619979761732277 10.821354122760363 -0.9147774217395988 0.475117238497814 -1.0716928761141413
Ni 2.956056577629455 7.846554715823791 2.4936172731548023 0.996723621696103 0.2635948954116686 0.8509086481100958
Ni 0.49142491017862966 6.166763424304055 6.327930677249506 1.180577295222386 0.402082739208643 -0.694834715800242
Ni 0.11650453203598979 5.31011082194223 12.459265503818742 0.20737592501793964 -1.7865695981669232 2.236825040426051
Ni 7.973103252081776 5.811562170429728 7.632376310624565 -0.5319152213234645 3.6344790328939087 -0.3747318579995159
Ni 2.853194288441382 8.875593642489122 9.598705550646446 0.9096992358857429 1.7332906842381244 -0.009001689277978045
Ni 3.527475731669293 3.924853667484659 11.260417819470938 0.3943460326860176 -0.4711317714875048 1.1102082585805202
Ni 0.07885153498617266 6.6391015830869655 1.71356499533359 0.30416973151023746 -1.3524318874052643 -1.2745367175896825
Ni 7.473824529691635 4.5767247036487655 0.6917123761809213 -0.4018821931620627 1.0015189862022171 0.6204329038498992
Ni 6.791998989036306 4.026606530580464 4.504085954779291 -0.0517719903659689 -1.3900008467979739 -0.5394696366319547
Ni 0.35973233493949713 8.962138122903427 9.756048057138806 -0.9854897006534964 -0.38080917454184743 1.6743753979591551
Ni 3.8338529922664133 3.26144459996097 7.157197096523707 -0.22072252152817473 0.36406332254207624 0.730846872228793
Ni 3.40786110848798 5.742315491837362 7.595976965059012 -0.052004675202065274 -0.06925369209050009 -0.3103606908122977
Ni 5.693112444645295 4.964709498549599 11.492412683190237 0.12408015301207663 1.1853166096795844 0.20109137756080853
P 1.8293419287574009 6.170933017367494 0.34172912302722536 -0.3743783313148391 0.7623660258829966 -0.3110204358834837
Ni 5.511240527252902 2.5818748923599166 12.108722915010192 -2.395282642476733 -0.5643658856530022 -2.228305947211446
P 7.574865511044902 5.316961528061982 2.7483174663741 1.9250548708607362 -1.4147070912954023 1.586106598218733
Ni 3.927849117933781 0.08048516490703664 6.717619365723714 -1.0337994435024778 0.20522879676794978 0.8157107600527242
P 1.488063972341031 1.4153965632975065 9.990193358433615 0.6736855925264525 0.48919659940901555 0.7156935615271223
P 4.662936356235389 4.283817724855261 5.070195580445885 -0.30742706210527054 0.23503019640009845 -0.4030258198482026
P 0.17889865546511688 7.619908210390966 8.246832876348693 -0.6664245400886653 -1.7393343193290431 -2.187536221493252
Ni 9.472279975780353 1.1839240543633176 3.602359219332122 -1.0813522535807765 1.7479781110469703 -1.45995413605866
