# total energy = -340887.2717843536 ev
CRYSTAL
PRIMVEC
9.09691618244992 0.00000000000000 0.00000000000000

0.00000000000000 9.09691618244992 0.00000000000000

0.00000000000000 0.00000000000000 13.31425636339282

PRIMCOORD
 96 1
Ni 6.6084728598794635 2.173216857182256 11.219830602279625 -0.8235130297059623 0.09324234169561361 0.9892085442659804
Ni 4.816016520973865 0.4169425921822769 6.363349179322812 -0.42914977062876414 -0.5858338257187911 -1.6171097314684666
Ni 2.8075902980753837 1.435029410302574 4.8110796246323915 -0.762564515047048 -0.03402957878088333 1.0011078668067277
Ni 3.3997631454028236 4.175402595668998 4.9435170769768755 -0.18696496546175545 -0.23447843766168647 -0.6430125889226281
Ni 5.024044797253267 4.441833073002875 2.7339625886245096 0.8505576925285804 -0.6640598965112307 -1.3592255132883302
Ni 7.182597425759539 6.0106963122639305 2.7196895273387662 0.6041786467745659 0.2588571236163671 -1.9602866974798365
Ni 5.3206497451319565 4.548066858659287 11.493677795270777 -0.8865312824097118 0.4116125330759492 0.5977532028641963
Ni 5.76236869787373 8.044866807589852 12.349944122198313 -1.2440426627658832 0.05046407018782277 0.9918331263730209
Ni 1.9750860255675387 5.8812017122623 0.34104884094282484 -0.6227561526664371 1.1144922306678549 1.795766948395475
Ni 3.0894127573694123 1.6939458349774172 0.04177849666087012 0.6496272660256683 -0.443573659363578 2.380817358981022
Ni 0.7138240863089504 -0.20128291302676976 4.700851383137501 0.23948000464133593 1.934668225580784 -0.44018186007320964
Ni 8.78974958468388 1.975686422026977 1.6109446632264601 -1.440318106995287 1.4108373239273508 -0.9495330800532292
Ni 6.867016310996171 0.6275607604617106 4.959347530290738 -0.1641004021587561 0.6603945318445014 -0.4396424426299719
Ni 0.930205150907389 7.514734927737727 1.9361857931455526 0.057671643679855514 -0.8300348899848803 1.0329995733090014
Ni 8.036333900332984 3.9790547596004915 3.713852365933648 -2.400163881828434 -0.9042770364289071 0.8737091909443792
Ni 7.504482703347012 4.124095989135159 12.576287219565403 1.8653646540889552 -0.8117283783662086 0.3281730364033703
Ni 8.087831542103917 9.114291161758565 6.9310285801799765 -1.4632009251307316 0.7878759972286431 0.6844747127221567
Ni 6.860894086493108 0.8039135750477029 0.6014098558867416 1.9400328323268075 -1.0009410022115601 -0.11596112344936803
Ni 1.9869211133513196 6.304053661112021 9.307809856934869 -0.12793680775400548 0.8190981884677183 -0.7900035850946072
Ni 0.09056980590630342 4.531428599199999 1.6612333248540692 0.7414930390887294 1.200923720089222 -0.23093160085069261
Ni 6.439324802806733 2.471104470224292 6.9844720522944534 -0.36634131994297553 -0.6515031428921425 0.044231459014549626
Ni 3.687152917320737 4.269482901479806 0.68233693077782 -0.0503815377763455 -0.5274708123988658 -0.35868200362550484
Ni 5.844031713273423 5.470894410648424 4.604682425401132 2.2291199584723094 -0.15966910586027985 2.6028105196915043
Ni 5.252786751383297 3.030510225932071 9.126616573317554 1.4693432905830437 -0.4603940733550264 0.7375402250885684
P 0.11250338019951944 5.627070265430861 12.726923962163717 -0.10063863415968476 -0.33676540605807165 -0.9143992124645737
P 4.087471805109408 6.116293313796696 12.749745395463618 0.25036862652938174 0.49017901792694296 -0.09127493355659765
P 2.580331141261845 8.761894827732352 1.1407578213912477 0.008574886153204588 -0.34631396897845523 0.2267263045200934
P 6.575942288077157 7.746451573416795 5.8944340863516835 -0.7757313914463092 0.6398583595643625 -0.6688650312093577
P 5.196576907097378 1.1019913136352275 12.793575246694235 -2.414952095881202 0.356079018785019 -2.5823422245348238
P 3.9278846068074347 6.349092492485963 8.046710752473613 -0.6979699189951142 -0.19131424356938664 1.43127450873578
P 4.67275828698541 0.7790926395995507 3.9762092442593953 1.7317179404343657 -0.31015577389034327 -0.29028603154960975
P 0.2584097264507414 5.734923302144548 3.4806656586205618 0.3861064183850447 0.20868358808576964 -0.6781006908750128
Ni 1.3819307113064716 1.000915479380355 2.645130293684157 1.6354015877991188 -0.432604561946584 0.029557401942142642
Ni 1.6336605723001567 6.529648082288024 4.93809804408464 2.945739374247811 0.890932496801201 -1.3157268186747468
Ni 5.707414228003 5.454128794364406 9.150835292923057 1.2926439687133544 1.8333068543224622 0.30029147950175383
Ni 8.867482732349066 2.738253603926285 10.556554439705769 0.094558746514192 0.2277308345252078 -0.8688991711502455
Ni 2.458668985981072 5.064262263119597 6.82547342446105 -1.0513544216671054 0.9362399624887489 1.3201653140620746
Ni 0.05830304466950806 0.2869221904328355 9.322615997501265 1.1222055401517126 0.5940842386530414 0.24851717514293975
Ni 1.6279840966836472 1.438713661303674 11.68590927682571 -0.7945783489494832 -0.4861141038289499 -1.831353587250833
Ni 3.9087083077696096 6.788837414444432 1.7414781310412402 0.5250776295763409 0.5911760638673109 -0.610731103181103
Ni 5.808144379447892 7.910296128431152 7.952711409215668 -1.149202894676163 -0.16439762168420075 0.30238101504093085
Ni 5.109928781701134 2.702338979352598 4.911323091068496 1.1877954102373802 -0.0548035781034411 0.373536295029518
Ni 0.6498109074335398 7.744905097687939 6.760792531947415 0.9943080702760747 -2.204381832295681 1.5734529140104645
Ni 4.955062882830199 4.765401280059986 7.002313833747435 0.7113278283592588 -1.2729670591097173 -0.8505939450831546
Ni 8.026618393989342 7.402715503472179 9.077047477749666 -0.4896948792016728 -0.0694390686284288 0.3976506715792184
Ni 4.485934922023451 0.16574672016085001 10.392801763543538 -0.46956854076544297 0.8183021749289842 0.20949888489821336
Ni 8.306321271843231 7.291414735574747 4.548496233096947 -1.0262414286495616 -0.5687575869627947 0.7628753614192474
Ni 7.158936347108029 6.102038446343056 7.08108039107614 0.9096655544343301 0.010948785702019853 0.19820942802732316
Ni 2.453138061021396 5.052972990298941 2.8414754006778478 -1.3814830391349497 0.4204185614033534 -0.8393106588598512
Ni 2.5788665377774573 4.8388042956843735 11.78751000313679 0.014234912652459356 0.13223466379841098 -1.0604165318693737
Ni 1.088455102549704 3.2124940315543125 3.731773290556283 1.0562744846765422 -0.672456605215358 0.9171338377869173
Ni 3.9346072277699355 2.386694186176865 2.702274391248628 -1.0230185508368896 0.3537066618981005 -0.4677422861899816
Ni 1.2544647235844597 3.3698251946753657 8.23101972983877 -0.8460706032915041 0.23690350216341136 -0.013613734128692684
Ni 3.5135109837182705 2.7773430522021547 7.348670725206659 0.08612192860074845 0.7062283023491643 -1.4518163374428739
Ni 4.202456824007941 6.876513491354562 5.932672972976682 0.10415667461527221 0.9348970753076092 -0.41333722907653975
Ni 0.4144827860817893 7.515471777937948 11.242344559816964 0.7644694453792447 -0.28022659043107867 0.1921598793991336
P 0.1279435758147472 5.900077813070406 8.106557543797162 0.9905645440732425 -0.2030094205191278 -0.9815998786807869
P 8.301627263160348 1.8221850605638579 8.14871083339938 0.22142880356657996 0.678135143657374 -0.27420789504082455
P 1.8353846857554534 3.588724285637025 10.323834404186155 -0.44646537908907624 -1.5398694216280642 0.09870002237607518
P 4.056933457922511 5.986571290893764 3.8445450297793395 -1.6193846435455723 1.9424704952340226 -0.3600696280016508
P 7.097886943482392 4.302723032734176 10.368090900779617 0.4558013117780214 -1.0258889304061494 -0.7613203582273017
P 6.111963181755897 7.731550824923457 10.176326091018158 0.15969250289904754 -0.03497960139897847 -0.05840903606651231
P 2.556024181570636 8.37153706302073 5.810594178940723 -0.19622890726218464 1.299976754929342 0.860628703611337
P 7.170289298341049 3.902913572244423 1.5694709132533355 -0.879235262968931 -0.1243182371648117 1.256438722437391
Ni 5.5924746936847285 2.8454789534323766 0.6663309069841515 -0.7986517476879085 0.36426489702992104 -0.47037740981998344
Ni 1.3621540158092085 1.1246062469407458 7.013617661633773 0.26565100660974894 -0.5764683253434911 0.28780208878549146
Ni 6.634917594842915 0.7252425353375451 9.269851155324274 -0.03574219059661586 0.535093104830814 -0.8936984895821124
Ni 2.6169280345394395 1.678035328802296 9.300380405595119 0.04060954599124619 -0.6940921812072627 0.9075050564479016
Ni 6.423641719532915 1.8688340460790218 2.827735418672757 0.4921094021804363 0.40631451790180345 -0.004481432810121314
Ni 3.9660825573101985 6.862267720816975 10.584700297970961 0.8764286467580712 -0.3394198129617832 -0.18132730756000384
Ni 8.133106893295214 7.302176387264381 0.14498573834674955 -0.18083416997366922 1.1114480445248924 1.200877440232319
Ni 7.998063174501803 3.9941101556667156 8.054339426274904 -0.3405205022251297 0.5129867598500778 0.8194907959204466
Ni 2.65628129338082 7.935703814964663 12.288312515945341 0.20670846663726983 0.6852766397981618 0.4814341818547774
Ni 9.118930588945137 5.3033201200527085 10.274251663244188 0.25319015513857684 -1.3265588762932443 0.30861439754515235
Ni 8.680859499540254 2.364079252871347 5.838115079073138 -0.13074008153075548 0.737285428765285 -0.1201777326338769
Ni 3.8626324279657283 2.677686336851409 11.391557635053125 0.3151573408699927 -0.3502595838897645 -0.487447992149025
Ni 0.9449330579957372 3.3714626395647436 13.184841793319464 0.7469170383177781 0.06336072364483282 -1.5431419217317488
Ni 3.028818199546381 8.483365452049183 8.239035022572276 0.41211775484714186 -0.19527425665839918 -0.3865121384638956
Ni 5.988654484669695 7.785786638426072 3.7390826626041447 -1.6185492921284705 0.7622313000773453 -0.3994422162620024
Ni 2.9887826720010926 8.437353250657665 3.5463453925167165 0.6148389547018895 -0.9877425012434149 -0.1466058449184185
Ni 3.637083491369984 4.491629591472065 9.566253241975003 -1.4088889419517283 0.3464381532611453 -0.8285174248990893
Ni 7.298937885149834 6.3848888571509725 11.493611387783599 -0.5603199977184027 -0.9382292250046357 -0.9920997497708464
Ni 0.6615932331042185 0.08130004844921447 0.20458964201170776 -0.3628297072452913 0.07590307908621767 -0.35432089844333176
Ni 4.611954500093179 0.2511631231236393 1.7384024637240254 0.5353880103634134 -0.7120649636355995 -0.4587578233031841
Ni 5.966539881747041 5.4409837506691225 0.45424540614551423 -0.548205988063688 1.787491081539928 0.46885531674850217
Ni 7.736790648569466 9.077039290525219 11.304842192478096 0.3618562875884284 0.41013106343441624 0.9090405192558215
Ni 9.29468300707169 5.015184401018522 5.595529438095023 -1.1330717934422552 -1.5660784759232642 1.7620106778806364
Ni 8.030921235281983 8.799346831118843 2.544780393330242 0.10721577315657019 -0.1860519667291828 -0.006779999036310905
P 8.512666618652995 1.5530709929946112 3.7937105531886046 0.009095791653681108 -0.2853726534083924 -0.3185938773553675
P 2.1100205813683237 3.1250544744615363 1.7290690278545717 -0.6467620286627312 -0.5015211824126395 -0.2266777106703451
P 4.615838883247426 1.2189139756528566 8.244360357229175 0.30463484407211405 -1.1156150314183886 1.652459314612354
P 8.618727562904416 1.7758635640265694 12.577551690896646 -0.5712818960465451 -0.42766084478806343 -0.16598116412123673
P 6.321456061519686 7.814632959227277 1.2852304936726588 -0.04179251055575383 -0.9228720258222751 1.3640373328546767
P 1.7136952397265244 3.060921216294238 5.993132896442143 0.3287564197106661 0.48995893149633685 -0.48585725062313745
P 7.154769959556168 4.336763692601131 5.946160060715524 -0.6369437570207289 -2.114179562977972 -0.6880909693185053
P 1.9481864448014816 8.772529122597255 10.214963422566237 1.1791390201139629 -0.46692441827437653 0.5261248398939325
