# total energy = -340858.3758411297 ev
CRYSTAL
PRIMVEC
9.35677571766336 0.00000000000000 0.00000000000000

0.00000000000000 9.35677571766336 0.00000000000000

0.00000000000000 0.00000000000000 13.69458706018603

PRIMCOORD
 96 1
Ni 9.016385777230273 6.388254554365227 13.314452613136059 -0.32143674612080125 0.42245718909993696 0.9523106427983664
Ni 5.338302657073304 3.7562683398175385 11.732659700699255 0.08966542297763268 0.28363921565705347 -0.19202001138715963
Ni 5.594285332931826 6.175406615538205 11.356839181455777 -0.9604253014857009 -0.9689477371344152 1.2429797687190078
Ni 7.466342276874878 4.096059657669803 2.0057091313092017 1.48090528438903 -0.5175643519184312 0.007957821394495971
Ni 5.531576220657398 2.742892079631067 9.738988061622381 -0.5691751341161875 -0.3865147095670569 -0.27079938357990785
Ni 3.0926015799677984 3.9930415546943543 12.699195940586446 1.4086873674638836 0.829810689789216 -1.5736709435585414
Ni 7.394126680256847 7.083201016144752 6.808099640031029 0.2108489711682046 0.127615934079477 0.05717310677688218
Ni 8.296335085633935 4.254011392122897 13.169893232069773 0.6218475248092387 -2.533608763884862 2.1005982247491115
Ni 4.256640646158873 6.3153091292247545 -0.033422403617466345 2.7379621000263943 -0.8788061458513123 1.1510504894078628
Ni 1.4825062917017364 9.171914106717823 10.82260002464036 0.4323628782494231 1.0605134624585542 -1.8837156457923172
Ni 5.352431388725704 7.961437361592402 10.109783056514532 1.7813050073338739 0.7742887454625116 0.0360131848698154
Ni 8.708725627917309 7.5933137262279065 11.278027057807984 -0.3266386020367149 2.011428510460975 -0.9177768706875549
Ni 2.2957972554279893 4.1961584465554855 3.0382536826632935 1.210821181708592 -1.1126983719922259 -2.518576809252404
Ni 5.965197287523087 5.358522649855315 6.608761014289924 -2.7307516983208844 -1.0175400442208218 -1.946915161268937
Ni 2.560930858144822 8.997793863459863 0.47049424944567586 0.8747792840801063 1.5035325348702429 0.25772275290160773
Ni 0.6764846071945234 4.245075671110948 9.03537348262247 -0.04672568619131307 0.8223953711617514 0.3438871047045174
Ni 2.7250674214868136 8.987127138901098 7.203900618592744 3.0341027905845683 1.1937035481916989 -1.5584469275199353
Ni 3.4183203068232357 8.517978393833975 9.434009564290593 -2.0730699374218555 1.3379460350842634 -0.015195733903831896
Ni 4.276130810418443 5.209834123571676 4.160320123393218 -0.046217121986010724 0.47981618663538006 0.5771524958947093
Ni 0.7235417046953525 8.932221577751239 8.24555211995828 -1.6334892012677544 -1.6112848972565734 0.7175308718461771
Ni 0.060158455156253676 9.069943962646393 3.565345198346744 0.7183335702531306 -0.6130088434716862 0.26376227422746834
Ni 5.944032260372272 0.39031697218987876 0.021763860810253843 -2.5953216675136273 -2.384975861234086 1.00615108565759
Ni 7.891345753110196 4.715291088633947 7.305747253221915 3.068505179323838 -0.986582419497043 0.0679282884108572
Ni 7.102064276417095 5.7337667917015835 4.187818752170197 1.042065797276328 -0.3168172450709189 1.3783172398124586
P 7.3681616270545875 0.8176718062160897 5.443529894845528 -2.0528965477977743 2.0640276247139293 -0.2595073556058563
P 9.27614859056401 2.540954141536958 8.080518241804722 -0.5294531329362172 0.746494863178695 -1.5267503677476029
P 1.7999910557398804 1.55276632215066 12.626163497429836 0.44727604791582964 -0.49019598720780744 0.03583552164137054
P 1.2503366105818619 4.882459247376851 12.68750090635311 -2.2776816694310966 1.5013352701086078 -0.41436052813473156
P 3.6183120355241667 4.426269636971036 10.429168181743803 0.26289761223432784 -0.9346376509986355 0.6766845272537766
P 3.702382667243913 4.333506560413489 1.200338678406629 1.4224728512837501 0.8690745203858452 -0.2675662213545908
P 1.4020099483867692 9.364822756040697 5.636719247446265 0.7200232992507277 -0.9414932404678882 -1.649801565274533
P 4.014300149604456 1.2122077486722382 2.0076815396749805 -0.8068700218326427 -1.2141690151349025 0.0057872961057384206
Ni 4.019886144833915 7.947130851197356 2.13126115775384 -0.5633209893282557 0.16708391026711222 -0.03584272073022214
Ni 5.862085616788351 5.672498622920181 2.214387690782377 -2.5486417469585847 -0.2462630890014404 -1.2760125308042602
Ni 2.1944727288956423 6.527548877616409 0.6579404129813498 -1.772163450043922 0.31975035955731385 0.4656982591767592
Ni 6.010418585586698 3.5820171016965765 3.8721173896240715 -0.9098447603246718 -0.4643911103295615 -0.19697555562022206
Ni 8.420490145432412 6.214461798264773 9.235411059525452 -0.7443521058040794 -0.525221868463689 -0.5545964649710642
Ni 0.3921574500150623 6.247725136691452 7.143726256917412 0.8518681838098877 0.5211852365004702 -0.036454900392924316
Ni 2.72345805602707 7.559835181954868 4.921369400076525 0.2788862743531003 0.7317596138510494 -0.8465136043661937
Ni 5.362321500882384 9.515841119530592 4.21474193922756 -1.1286579806452757 0.14357939938726885 -0.1431399978570051
Ni 8.168278250273172 8.714433261233841 13.754843307386194 -0.7133075777934489 -0.6700603370690396 -0.9443805893180124
Ni 3.073579254504666 1.972155732828733 6.599695234092567 0.48870371893299713 0.9286696063406586 -0.6603680494819401
Ni 6.826048743295136 0.6569354952466028 10.10785181796284 0.8904360167807568 -0.020170304300287843 -0.4378915213771362
Ni 7.677814769640375 1.6557095709186793 0.4453413643940317 1.7352853460706503 3.230244537449585 0.25441759978777473
Ni 8.678830728824979 8.75802648028585 6.11720746926143 2.7254074032898354 -1.1705589917544357 -0.20664136084476026
Ni 7.9466630124009185 0.6526257642538243 7.856982057834298 -0.9793954148303003 1.533136730889921 -0.3078996308663149
Ni 9.412729448795856 3.793124680200853 4.211948005935237 -0.7154379938728904 1.0774290072669703 -0.4295452062949699
Ni 1.9022606166410305 5.221080968238025 4.946977960115899 -1.2025316880062902 1.9078421065268754 -0.11538133968649807
Ni 7.49674244186736 0.25955789994089534 2.20076141799735 -0.9707899325494765 -1.279570680469164 0.580071469313717
Ni 3.883005869772348 6.176884986134946 9.301624284385195 -2.9676346316590054 -0.5247652405422446 1.0759606502515597
Ni 3.1007981156813766 1.9766750556023154 10.728189219841761 0.5686745403306851 0.8348112283276011 -0.672774393566093
Ni 0.5457685761148122 5.085276722408263 1.6445965281481125 -0.701494644318921 -0.09687659601409122 0.007524590511819298
Ni 0.5433068083679602 1.195431049432004 0.8033390968484427 0.5335147046001005 -3.3035934826553817 -0.00973933877495097
Ni 7.722792791529838 5.397643330013385 11.431063677865708 -0.1731033769883148 0.3642780096560436 -1.6514046480955944
Ni 3.7955106580626823 4.049500340648383 8.064701547774778 -0.3138514775743756 -0.4794572606340646 0.608853683652732
Ni 5.822394173298627 3.277173341938163 0.22191839741234498 -0.15330433998451662 0.8567759055241502 0.9357630228523304
P 6.048903004981613 7.819869341790536 2.499481167910402 -1.700684211057013 1.9702319816180067 1.0304657511435544
P 7.744425657477089 8.197836305432068 9.00786175435919 -0.8344839268951693 0.5588688670941729 0.19001275114914373
P 6.708705416372782 1.643162134398236 12.308735809724855 -0.7360677543081001 0.5321358219747029 -2.3325762645864474
P 6.176370363458865 2.187342865637941 2.0917390719084272 0.32340029760507527 -0.28512839860807027 0.7781371726743244
P 3.3941611113752237 8.64052408817271 11.951882410966531 -0.8669525889468359 -1.024538844136158 0.5862392886873259
P 6.406696759720777 6.6744128325939425 13.481376560027224 1.0663249269340087 0.17988826112063214 -0.9245306444716207
P 2.5149797315587703 6.374453309870333 2.7997073587479817 0.3789178710564055 0.2092057791378268 1.6223141584875413
P 9.057583661644525 6.814231135297134 5.063367831571114 -0.7369655835320211 -0.623761711112816 -0.2678999505449257
Ni 5.666014377201562 9.18562178345343 7.679499924985142 -0.739450554737404 0.8631964643385134 0.2722026916853376
Ni 1.8304473613879357 1.5461604383449683 8.504790953840006 0.4871430593140965 1.0053632996489716 1.1615598735796189
Ni 4.1021977026790575 1.8319725158643205 13.15662251677004 -0.6610632757767518 -0.6187115502834184 0.4166552377061792
Ni 2.2854205909230143 2.758957663900717 0.6980856601036171 -0.6914987094484736 -0.25845551730257427 2.5826924087853906
Ni 1.9310514161737695 1.0986913431047405 2.8783005338390426 0.8598437458161966 0.7512359774081062 0.2833273408435895
Ni 3.908156883468807 1.9592901659267128 4.369627458208805 -0.2302461447478938 1.3930231785640657 -1.015554895469993
Ni 4.831904587033859 0.6087378067600601 11.263017853540688 1.1556828459735515 -0.07875623226429662 0.44664484208973404
Ni 3.0341591575168763 6.458477157710436 11.824167097927166 -0.5490904475511704 -0.11486480506139572 -1.5386054673139762
Ni 6.799391288674149 8.308695386635803 11.77646906127522 -1.4001837008682465 0.5241456046803747 2.066611840501338
Ni 9.079908929010504 1.4186275824362151 9.796341355355196 0.27329721030109705 -0.9039253095164431 0.15589601197109282
Ni 7.444297712786762 3.2087565963472016 5.591664499994186 -0.19396916469373046 -0.19349659593268612 1.3181994485849555
Ni 7.180399204492523 8.299928087590573 4.310193217509435 1.4042162190664076 -1.8025166084144828 0.272969137537717
Ni 5.493559640058919 6.902315823890311 8.210151693909479 2.1060114253448825 -0.2804636461425492 -1.4031708085210286
Ni 1.2447693289042605 7.996384919686252 12.623985239993624 -0.39593343177779555 -0.709542711434378 0.7710512123618205
Ni 5.888481081683332 2.525487390926747 7.450321605129686 0.46950966250304943 -0.7397449460493711 -0.14898514378387245
Ni 3.4282010622039873 5.956832329842792 6.543630368405138 0.40272448655769993 0.1265864643736981 1.2262390589255592
Ni 7.755981275749085 2.988404523225328 11.087877721706496 0.03328447308474267 0.5426007260617687 -0.7626192795443834
Ni 9.174739853048303 0.8139833651449797 12.060959962033433 -1.3656386159035254 0.3042409510678051 0.7003258208218003
Ni 0.11260131288166672 1.6169818753496161 6.0225917510699905 0.3499317682367006 2.207357112873921 -0.38255932446373475
Ni 1.036992762630616 2.840202549289984 11.038892192686752 -0.8005060272878277 1.5465188086237815 0.8478791172551526
Ni 7.988871428615473 2.107566994069487 3.6821870020793166 -0.14343850293403038 -1.4950916031917414 -1.3515841946929883
Ni 1.497037364719073 4.033865168071455 6.791118027397956 -0.3758826837745075 -1.5491529038125191 0.39592906090242136
Ni 0.8321710661952683 6.241418669715479 10.718232674575987 2.704728020563613 -2.343384925166177 0.1398171041313592
Ni 7.806133594727143 6.957586299301391 2.254033286070049 3.4360844854389727 -0.9120325120046099 -1.1113248886834666
P 2.1669450941132835 7.2416393029461394 8.057552970965219 -0.24550898444423522 -2.710893011723744 0.9336536898188114
P 0.21725498028946 7.990742783801222 1.3440484642185844 2.1312362613499425 -0.04724504902989282 0.7403836080746347
P 6.887419836611754 4.369118449598281 9.012846108896431 -0.8261823490080095 -0.09448315608125019 1.9332230084938253
P 4.081977709897047 1.2060322765592686 8.727601987675953 0.6505091544099894 0.5119817156243313 -0.6893613513904967
P 4.703276988341443 3.650424490511609 6.09468009553539 -0.6621318262505822 -0.29248329631124464 -1.976238335713087
P 0.019881277493390956 2.9859717614838552 1.4909021267425966 -0.835099191881665 2.019470921149477 0.9271896793610226
P 4.92612732063629 7.622974705922019 6.210016394021028 0.010796062174239472 -0.03899077944090059 -0.784490625696178
P 1.826161958012572 2.80928776162142 4.621703680117077 0.6376821778486501 -1.0832394433011603 1.6034152647005095
