# total energy = -340856.7248422514 ev
CRYSTAL
PRIMVEC
9.38366088357026 0.00000000000000 0.00000000000000

0.00000000000000 9.38366088357026 0.00000000000000

0.00000000000000 0.00000000000000 13.73393621808238

PRIMCOORD
 96 1
Ni 3.6243076037929067 8.482819958577615 10.144860523929166 -1.3628278859276077 1.459512420535551 0.6696240208625693
Ni 8.235269603624527 7.516255980262056 10.039177982796396 2.222396780815863 0.5566042394297124 0.5463735628406396
Ni 0.4074760855723008 8.561811614996822 12.689291753696118 1.4295811801937575 -1.7692419055217528 2.0484770785738395
Ni 7.116568333134509 2.9018220259430145 4.600689706379245 -0.23543360248610423 -0.6646522786795908 0.41352800493110714
Ni 1.8098923396492415 1.9515762337183316 9.652182675235565 1.0223778319290973 -0.5715274363984479 1.1090036967494579
Ni 0.5334198270543659 3.6568970576707764 13.45863933346541 -0.6098235037651691 -0.23846416178231186 0.11833759410134459
Ni 8.33617210795759 4.079349465842869 11.709980072215258 -0.3827434154500827 0.5035081309356813 -0.21233789700890526
Ni 2.005475981220342 3.4529994926514194 4.433163210530813 -0.20276182328469594 0.17849960830322162 0.9018645703326728
Ni 1.3497176151543624 9.119107228531709 9.286997810418281 -1.1232159836940978 -1.3539159281499586 0.833697683548448
Ni 8.253211163029793 0.5421147271301603 3.510531655240134 0.20262504059651557 2.0977227029735293 -0.7152996685228132
Ni 5.026048234293917 8.20364666680667 5.7860252904114855 1.1770098895861019 -1.6737179668808142 -0.49464708100062554
Ni 2.0426352778965193 1.786057841276138 6.50601293776259 0.46081264894968377 0.975621806720481 0.97105269929256
Ni 3.352369114480884 1.5307002805567427 2.3258970306679214 -1.2383566681246996 0.5477390757295986 3.9682814996689144
Ni 9.457416350518125 7.217142409340384 4.205509969888879 -2.557447261065357 -3.627746856376397 1.0179015413252985
Ni 0.12944103185358302 5.413208694284419 9.272096557104703 -1.8323419193060313 1.2087640420692471 -1.0559281570807169
Ni 1.4630816209990327 8.412517572037737 5.594216695570897 1.0670144968018656 -0.6873792879634613 0.8959908851607149
Ni 0.6715379300282673 1.4155815301468084 12.377544960270622 0.822998294853073 2.156441042750344 -1.0199730791423467
Ni 4.171149819222425 0.7896313009044511 6.3481957157199265 -0.33122056498044244 0.8469069831498706 1.595068178287395
Ni 6.091215720052221 6.268604443377082 7.120070315336416 0.21347998103314844 1.1582500924800956 -0.3469785991456476
Ni 6.779957653748696 5.962697102052998 9.490177525388212 -1.0701957227433245 -0.955988862980902 0.23534875608178177
Ni 1.0841412478490184 3.390982878577467 2.2323963579556074 -5.7271091518358785 -2.203509971213689 0.037074022034161956
Ni 5.120438478047873 8.53246890774773 1.949079241585622 -0.6299727250195344 -2.0044585069010448 -0.6633741832981156
Ni 5.859063952433882 1.7864801060110946 12.58321040698033 0.7090691142320692 0.7809041938965002 0.05035505541378425
Ni 8.811107330854396 1.3737773213861093 0.5921465296599684 -0.2208266512062068 -2.237206077914553 0.6848374953782141
P 9.178956216966219 2.738818454589006 4.176064042371241 -0.5281475267509163 1.8619592279518318 -1.3531762217704566
P 3.772090877366925 6.195289901727846 6.907318328008059 -0.08649705255198006 0.5729063190238456 -0.38480981106080825
P 3.7659164285757822 2.1012268557869356 4.7415863113091605 -0.5150608687702871 -1.288218328841833 -1.9894504635279868
P 4.842973012538307 7.6357944348978695 13.719144770486965 0.42239599684469836 -0.6035404989699348 -0.14388613199441028
P 6.5031584281542845 0.6500268260635026 1.2602997732460397 2.043349270428971 0.8861142494769513 0.16803264733362674
P 3.3304770338885805 1.7203815994992282 8.200286377882493 0.3823664917266383 -0.05744435816039784 0.829168942440159
P 7.2699067338884005 7.878024254190504 8.189738204803279 -0.7019044781628299 -1.0225668080114518 -0.005470793306584127
P 1.7290333347354494 5.959506657388882 3.9411178205735684 -1.2829439678167711 -1.7958224842237587 0.3804782735649899
Ni 3.0302374236736918 4.58985814674457 8.195822570450964 -2.414521693212003 0.3196585711744559 0.5784568165284295
Ni 2.847809674511682 4.282974904699698 2.36447607521963 4.462623647834611 2.639974016115679 -0.1566647718163173
Ni 3.355831685307528 9.265464185667652 4.44747423158153 -0.2997710882219095 -0.21557800121275777 -1.7332408048367955
Ni 4.729609006693637 9.204245182759728 12.369057439097997 -1.4917273147051986 -0.6875425530142031 -1.1830219001081368
Ni 2.800356501963342 8.412695861592496 0.7764256750932431 -0.29555987835403935 0.5170742996558901 -0.23787100828300323
Ni 0.2511771398433254 6.0780316766608 13.154020368765984 0.3444884857339422 0.05575720026596204 -0.9996906747442267
Ni 5.380084371742272 8.942225222888796 8.144718215494366 -0.4683696353613353 -0.06833452271034038 0.49338672623096314
Ni 7.785576428217348 7.849901422842397 2.6916589906229804 -0.8394433277829737 -1.2785990605845141 -1.4594036628718285
Ni 7.301783029547232 3.534215076674731 8.901966503058038 1.6718549455301466 -0.4817236880707381 -0.4055048775163145
Ni 1.6747863917846968 5.469332369390533 6.107810724136014 -0.14006135893168137 -0.007254367569568152 0.26382912290966176
Ni 8.208939051484792 6.4175700582089785 5.765808193267843 -1.3974894418655353 -0.9722996843257835 1.4734321159404367
Ni 8.915444255031774 2.1186335465279225 6.459084311851674 -1.4667750156352353 1.0513798755884023 1.0126027548202043
Ni 2.432479464869189 7.136564914249896 12.005946363312386 0.12381635782772869 3.287741346114473 0.7193972356309547
Ni 6.4559679981076945 0.8784382664962035 6.221789359761565 0.6631386702485418 0.5319483885542451 -0.7845083663079909
Ni 1.0050276038397132 3.4952822681117364 8.073013910034431 -0.5219843353629978 -0.7457353593048511 -0.17204253982396825
Ni 4.08087900254949 3.605934395991908 6.194280219828261 0.16661751215365497 0.30491252321353296 0.8239586018838132
Ni 4.307954209687573 6.683728212482485 8.941011915550355 0.5608835835313566 -0.5332354827967849 -0.08772475431149408
Ni 1.6300920155047396 4.273863370085413 10.31216744211542 1.0750659063514325 -1.0086000614187145 1.3233218574131855
Ni 5.354147933355162 2.113500684083006 8.176430297089603 1.4338885493198597 0.2752908436923581 -0.885693874110081
Ni 1.1687255660912053 8.55351645887012 3.2906921889270513 2.9559728790503605 3.0533343851206705 -2.658513983901396
Ni 8.30061741727425 8.88739649296988 6.639136118104995 -1.4767552667763986 -0.42749680840637344 -2.5013105659727892
Ni 6.536151379445556 6.054459920789447 0.9505864191108808 1.2568485562812999 1.6700379469260656 0.21791410554510213
Ni 5.933964332754399 3.971944084591475 10.928848491242444 -0.5930185163926883 -0.5531350499341893 -0.3504912402845964
Ni 3.046114577708058 6.928716828043502 2.763542524003751 0.2851363690278702 1.615938851088817 -2.87635224190324
P 7.064817443950389 1.4739479001785813 10.862321151433076 -0.47386408281700326 -0.1988653164437672 -1.1298414594304156
P 7.383355192680062 6.408374070647702 11.751621005278443 -0.6738326596272782 -1.199710416507411 -0.6279418106324347
P 3.898770297853892 4.567618870703525 10.276541435610177 0.7817122916200925 0.26281456560221833 -0.7315544398187789
P 0.7169961362954572 0.14623872301015486 7.266090399050471 1.6279932111501898 1.1905786294094722 0.9360993231458264
P 1.2195568565191979 0.5254380851976093 1.7577510901768059 0.4570076733812968 0.5493784111052346 -0.9296666801466054
P 2.5330910757181715 0.41872146464723276 12.037657506541548 0.14033569563899057 -0.9553046924296837 -0.03433939671181828
P 0.9902577217770105 7.017870989083997 10.546852798143501 -0.7703377312345636 0.5087212997055045 -0.8705845292724683
P 9.054613328012676 4.696315778257507 7.05447758814042 -0.4330447348077961 1.4428892101565731 -0.22269455765288096
Ni 3.3621562726710987 2.448957173193272 11.719676208895939 0.0030601269825624717 0.8729563719387546 0.744153616640028
Ni 5.346143670712541 6.989616786485014 3.5271632556009562 2.84206940946097 -0.25918031128374075 -0.5751714609089384
Ni 4.258117587301922 5.730254440950579 0.7001599721297004 -1.7633167982865696 -0.5908024825779761 0.0274624670863269
Ni 4.79978002198264 6.683615608553163 11.255565038705187 0.23457022604454442 -1.6689218310437515 1.2325701433499094
Ni 8.800485026855045 0.12083715328732375 10.969061231135397 -0.7827127078601488 1.8608510824893179 -2.0027384388861447
Ni 6.567567875726325 2.8252325866826715 2.2617728463834963 0.28279460826857106 0.1412859753674018 -0.4296927876164277
Ni 2.8974210890386893 8.284796565204543 7.792882546498174 0.5776057813820439 0.03875449506037842 -1.1761830228094325
Ni 6.045789418231672 4.99922034813301 5.078232648605926 1.8313399604040783 1.6987407141773971 1.3197076576993658
Ni 6.075066439855327 3.9945587070635926 13.392730376901236 0.4718285404442132 0.33806355604420485 0.4087251842258251
Ni 0.78241620413316 1.1481284306861022 4.8922203410271745 0.9174086887148587 -2.0771829311489647 -2.10942122235738
Ni 7.5920759593386995 0.6972013038867715 8.57886172662829 -0.24282449563353667 0.5225165537173839 1.2174160613172904
Ni 7.421274565879161 8.450521398183827 12.648446555066808 -1.1940897278865243 0.1675423379607695 0.10613025340187529
Ni 5.440740355003586 0.912705518920967 3.2247006561480402 0.6827204490352113 1.1219078064056356 2.3475783944222344
Ni 3.7537552042090336 6.242555401060651 4.70105734204803 -0.6455780356569591 -1.584763196816961 3.830675030035628
Ni 2.93074246845715 5.10799574385782 12.060057243181875 0.2892681318080567 -2.5513879422451544 2.092293304427842
Ni 0.09510434033907116 6.040984983913944 1.8574046292604758 1.0016940783275006 0.21737211699870307 -0.10183471135031494
Ni 4.520907007356553 0.8977123057317762 0.6503749598783224 -0.252342719536617 1.1137101010861916 -1.5152349109088357
Ni 5.177753878072643 4.507863718876783 8.287496244410033 1.8700414907393341 -1.129432396917455 0.7626311066189253
Ni 5.945975418548718 8.473811644231876 10.552428569377081 2.144022100260701 0.4780752926848735 -1.1618689201796055
Ni 4.824346445896334 1.2718332307068196 10.2867865164463 0.1820659854982413 -0.08589592863287142 -0.12827285093718555
Ni 2.132727805014695 2.0749338382903075 0.598721660766281 0.2117905091458675 0.2529638980603837 -2.584264638368517
Ni 8.27724271827921 4.927078764080877 3.49192197918756 -0.5494624861786085 -0.8259890020502807 0.6891397222979938
Ni 0.46672451971709417 7.306427941631754 7.43073235757611 0.11843812423495088 -1.273744046485058 1.4358754978429014
Ni 4.668493224054258 3.927118337060642 3.884849637091491 -2.1475694512923273 -2.5576233816319047 0.06797893914313453
P 7.13031539617254 8.56187730062226 4.621263382632406 -1.4561553311378599 -0.7737683541826674 1.7179319423938673
P 9.288848268323468 2.6082072802365546 10.308225366223082 -0.8161609602162653 0.5340392096450027 0.10325550295724152
P 6.5452159957559575 3.5583780031750227 6.673882875595453 -0.29184951938198767 -0.5900015839432355 0.5570251290172149
P 1.9534341985521404 5.012329322238218 0.5533075577047419 -0.7565815579907357 1.4617325681153213 -0.132960486220842
P 8.317827051138924 7.4397979122525895 0.5756575609429537 0.7932197780390597 -0.08959420342006505 0.22562407259485012
P 3.918579205753743 3.658848859112353 13.646945007738015 0.08316310308274065 -1.598781879693556 -0.5868648380864667
P 5.613897047318105 4.7818759972204825 2.3854607558148158 0.9664594234949226 1.811942015493441 -1.3156993078709212
P 7.939064967543668 3.2026997250907265 0.6109166663118263 -0.3923914800628081 2.0445479187227624 -0.9588695269628067
