# total energy = -340897.62271885265 ev
CRYSTAL
PRIMVEC
9.01934839726334 0.00000000000000 0.00000000000000

0.00000000000000 9.01934839726334 0.00000000000000

0.00000000000000 0.00000000000000 13.20072806910981

PRIMCOORD
 96 1
Ni 6.3253500657728186 1.8701708683163338 11.253462393759248 0.5387965218243301 -0.10919989346613451 0.46309270323311214
Ni 4.642565175629439 0.427994228130697 6.04091680291835 -0.8305748216487503 -0.44992248439974125 0.2780828046151985
Ni 2.7213989125985365 1.538258854609908 4.798042503745583 -0.21398160325991536 -0.3163657593557971 1.0710166759827233
Ni 3.2847744591242014 4.245822087071877 4.87723328286362 1.0228941094438837 1.172477291823071 -0.37598964166601695
Ni 5.1499756665831375 4.598424485545763 2.74163291834715 -0.5158131735552793 -0.368035934036579 0.0031146343695817326
Ni 7.335219425519214 5.986249631552153 2.6284229616938437 -0.5643257764436862 0.8025549393970565 -0.27401171986961836
Ni 5.278311972100222 4.29127960199254 11.479009234160243 -1.1583400810907405 0.12792420934851517 -0.244480800290037
Ni 5.625728245359945 7.862355230983129 12.367286956972423 0.4911966605581799 -0.8517360291073975 0.5437263550257797
Ni 1.8205464145279437 6.379105381036142 0.36908164956744616 0.29082904853727337 0.3787813454785412 0.3378576106809859
Ni 2.8441342028843253 1.691353270931997 0.29622606062406587 -0.20852803634451184 -1.2334026665535338 0.8589402601653207
Ni 0.7122407904774565 -0.043624783366718475 4.577180312798912 -0.3289114572312916 -0.8541582653956451 0.6872620456593067
Ni 8.501917211741896 2.3569631292881605 1.396979784427912 -0.14804874801253212 0.02375416499680425 0.24838784865392705
Ni 6.621193706033266 0.8718038833275412 4.784563989797679 0.7935792182610075 -0.001022013506611143 -0.8256879258700941
Ni 0.8032270731695502 7.269188777357672 2.483571327690404 -0.16151541504039926 0.2554984915567793 0.006637817031491794
Ni 7.70567111407802 3.8843356306224255 3.80159844379272 -0.4829341634390715 -1.0708672948890525 -0.0018164843834484845
Ni 7.487826797038583 3.7860066965618966 12.63079984168037 0.47881474195405926 -0.8417002421379504 -0.2309028044952862
Ni 8.222804462389748 9.119011996138092 6.501252609819386 -1.11159896828046 -0.7559858333882657 0.6919126570574406
Ni 6.7448940665762995 0.7036760174281189 0.3696498685039544 0.5595268123931461 0.00844144589913385 0.09703137642440064
Ni 1.8023273311668846 6.592665507681271 9.199046084312693 0.42739602116245096 -0.1589903346257004 0.22591383592112707
Ni 0.06119808139676195 4.913785995307861 1.3785785102332422 0.17460412990355734 -0.9790174626655913 -0.38930847026211013
Ni 6.373468288412052 1.98301193362832 6.982947135189395 0.388016490923564 0.44766351316223546 0.5527352433926094
Ni 2.9554149209579634 4.073814097577442 0.1765212713329875 0.7658897227655391 0.46058844875401966 0.4701362403434548
Ni 5.986880985926051 5.706334160210335 4.856244357670789 -0.16633906168128773 0.012936505556009977 -0.7582969980199458
Ni 5.302691270280887 2.971983463598689 9.188075851098803 0.17887781757824678 -0.45430364418657243 -0.4156892742484841
P 0.04181910985736994 5.417615805026737 12.308926362518923 0.4051204975937022 1.2272335616283445 0.5781166595801914
P 4.0590133471836305 5.7572303420947195 12.543780268325996 -0.07039140523936908 1.5592511685887855 1.1040877475050792
P 2.345409344245825 8.591596590880021 1.3786181953653156 -0.25758288488963377 -0.6573917404624355 -0.7315330996625401
P 6.382208036816442 7.907569223502431 5.709287996745357 0.10695352063411903 -0.491190747020909 0.3357889010774152
P 4.759681411987535 0.9583598621845102 12.564927934047121 0.05012391323958464 0.49066907018948397 -0.1764244709417478
P 3.9790478060553376 6.242678720184962 8.173032993225721 -0.41253710177274755 -0.2893624912940758 0.20535452371253662
P 4.471414024213864 1.0849824915438717 3.6663307691850533 1.3465484320412937 -0.214556759037095 -0.02909408915247893
P 0.3198071464891596 5.388573503827425 3.6034163058261086 0.2520038481399596 0.40822279066810985 -0.23473709063971185
Ni 1.4044117273435124 1.1885787249523503 2.7698562627300345 0.14402368601353907 -0.2043296819924481 -2.0201378653095143
Ni 1.8807956604942186 6.500632078663326 4.72018388235647 0.4352116605521279 -0.11534791534540136 0.18326103424760695
Ni 5.961275056390384 5.6262423482072625 9.123221325942351 -0.07978827307323677 0.14299267364586343 0.11868906390349236
Ni 8.742138531661922 2.324529553166195 10.19440692054691 -0.04212366864292746 0.34680890633700273 -0.11603542833072919
Ni 2.2457004499109194 5.328892476797658 7.004834387462802 1.6255699464206779 -0.10356326400564744 0.39359809877639956
Ni 0.5761902364461565 0.011466297364809213 9.188855122783158 0.47245331851240574 0.046232034384346185 0.1787217516163567
Ni 1.6004021636978774 1.0973570372722745 11.531178948010261 -0.8555505177574814 -0.3022617158542472 -0.5775667006139924
Ni 4.093782934489018 6.797143150690466 1.6575361267963755 0.25023081539993675 0.12028263364285736 -0.9670530912148636
Ni 5.6763989435393665 7.8749191830237 7.901308893917821 -0.5139282978277407 0.4318982799081788 0.27223585891611823
Ni 5.249747696355432 2.862127802540421 4.75525832363097 -0.08379328046757181 0.5589531992778631 0.5074537458469907
Ni 0.7173231931873361 7.353131851041524 6.778785169367149 0.37274928035184834 0.19135666677154786 0.5681353799977634
Ni 5.1204914173220955 4.66393201151179 7.019737958426076 -0.28791393177300734 -0.07553849665794733 -0.0991409665682357
Ni 8.11938861594524 7.1464444677236845 9.041376152649482 0.17386416641373928 -0.041599677818657387 0.038152856920637516
Ni 4.618068625922192 0.009527137502122215 10.464982856829137 -0.25750060958847265 1.7091747650265277 -1.2147300298446952
Ni 8.316605683654608 6.956469936617749 4.764723227630522 -0.43043686487130384 0.7491976068218387 -0.32768401258209373
Ni 7.267141385316603 6.2155395014555435 6.864866730508875 0.34548607376052115 -0.2031336048018179 0.4028314444492095
Ni 2.457086913640199 5.08812999598572 2.4693279730152633 -0.7890669322129508 0.10674397572647422 0.48553791961050574
Ni 2.2815523590001323 5.341690931891392 11.343411451408508 -0.9371223650937023 -0.6997504079343047 0.2190813863803259
Ni 1.1173709709248438 3.2778205416631234 3.9504763148319895 -0.5966545704833789 0.6147541082975672 -0.2485485426015074
Ni 3.3606091387775603 2.8217572000037374 2.8370873861368024 1.0122672258576566 -0.15452509976549517 -0.8899423649737899
Ni 1.220877010851337 3.3269579506487923 8.135859749625423 -0.8724560352635684 0.254492161779452 0.557931185771252
Ni 3.7439224178674895 2.7406732596988252 7.158952499805426 -0.26441353465822204 -0.09175804384060327 -0.6922656695214852
Ni 4.106680602412936 6.914584083583709 5.996285460292674 -0.026155832459761406 0.31658404601419027 -0.14233832789131615
Ni 0.9161402932671248 7.368654149291218 11.596892115115214 -0.2194066309302286 0.3001230722446896 -0.545688363848157
P 0.26860430676602426 5.555314193973911 7.990387584465923 -0.43562355127856583 0.3267183062347147 -0.06562817952277084
P 8.590505249747997 1.655735864895946 8.046873056428947 -0.42610429893422097 -0.07570433281185027 -0.06994788994404727
P 1.789871611304695 3.2988446423139304 10.339100715956874 0.01205024629631473 -0.23323659483478543 0.6368493975347097
P 3.960089136141998 6.168729084305099 3.80643010862268 9.02457209611349e-05 -0.16601561690359795 0.05895436704702105
P 6.951058327698623 3.8081672350857194 10.292250613674359 0.9728301029079569 0.6762070733967258 -0.598394178882305
P 6.319712973148728 7.672840686635319 10.168098383786576 -0.017717986105053356 -0.6977254070844758 0.1776259474490167
P 2.461470316864691 8.517547742169974 5.8165307526305075 0.03275508294383391 -0.30201951793645404 0.2704602550729342
P 6.83274251803012 3.8872578994387537 1.559732118801002 0.3646274225756624 0.2902194399777324 0.39130313209463574
Ni 5.161258871179515 2.993954595810343 0.3417665535481551 0.04783563142604019 -0.47986015249943814 0.2142834507710503
Ni 1.5058974332735315 1.0837017440996786 7.065847572221495 0.32114081214693724 0.29971118151825155 -0.4607578844523484
Ni 7.057973681244166 0.5880705218932789 9.207586505121894 -1.0852734430120534 0.26330873162981744 -0.7639462258859231
Ni 2.8932896505663908 1.7044583838644816 9.230265656167132 -0.39127073619480357 -0.782045249479479 0.21149714627516478
Ni 6.140994588594575 2.002087855068241 2.4738033735913807 0.6095185709302405 0.10146730070856719 0.6003808702950306
Ni 4.141152551227773 6.679476734092258 10.492743508649436 0.13212667746563694 -0.1615210714673541 -0.39410074944443096
Ni 7.9553807883029135 7.190098113004638 0.1220380946700417 0.6734832467076595 -0.24639730058645948 0.40475205851069
Ni 7.593425325747137 4.023053205916035 8.080244644763559 0.5662348205409409 -0.6268490917888883 0.21856022376953327
Ni 3.2424376386802347 8.224842835082619 12.431851059116882 -0.6742805457979743 -0.0041358765452444895 0.885625739876307
Ni 0.11095692347331032 4.908437521826124 10.083824300023839 -0.48029801136780503 -0.7854087666350732 0.31343727285509243
Ni 8.693064258113644 2.378411139304298 5.957118940740496 -0.17766322844485533 0.9887233770994455 -0.8415922558051765
Ni 3.666148578351443 2.5801919972021286 11.352652675572736 0.049553899668727565 -0.11018616863880379 0.27486172657473956
Ni 0.8761809730082947 3.353032886290783 12.464034799293747 -0.022116372283065136 -0.3510118886747568 -0.25592966555692703
Ni 2.9426074465160306 8.462610892292641 8.135542268568834 1.3590802459597175 -0.4254646084676931 -0.4374202381676725
Ni 5.505238772775593 7.936340944255787 3.598135477455861 0.2523476046326235 -0.1309192874210971 0.29975103361725147
Ni 3.0536175841437125 8.302454326331093 3.4615870554040016 -0.14959860899815527 0.21834296555240462 0.37791462660287173
Ni 3.4706902835407925 4.379082956705368 9.50070900803084 0.2292002199818827 0.5580638546943744 -1.1956125922889538
Ni 7.036660961451005 5.890482192380011 11.352032144416675 1.0653471364017715 0.6988860030514803 -0.4637958999477238
Ni 0.3122345017416619 9.126498055142882 0.6164922919365313 0.6586330690687044 -0.12025152329460581 -0.49073951841610325
Ni 4.571384479646528 0.30089627912127204 1.5577649989588995 -0.3171607444532667 -0.5080438140225058 -0.2474594233023867
Ni 6.064726980227686 5.555350271366705 0.3602192380275566 -0.8816330737771461 0.7740444906621895 0.6684575113582939
Ni 8.026642658419611 8.651800740105303 11.216407303620349 -0.3805386944892801 0.5200675779562591 0.6304522357591142
Ni 0.23171246682951904 4.833387525466038 5.903959804393096 -1.2114724421393457 -0.5546579143366189 -0.7410109572459884
Ni 7.885065949747063 8.872386938997098 2.6952455086272176 -0.12037802157014107 -0.5327423452104503 -0.3578412528917643
P 8.454177801727003 1.6212278386883159 3.7282422810243205 -0.4195431007769355 0.7990404984858949 0.282334637913017
P 1.5910310609195901 3.0424696697703117 1.5729193078020933 0.06480954027621741 0.924033393120228 -0.3563453850725282
P 4.753854913051275 1.06058515466681 8.25638169186329 0.5360485267655478 -0.6597532987160767 -0.1547809245300431
P 8.445564324197392 1.5541419267875443 12.281851181161715 -0.23595990730321945 -0.264479354899151 0.8957283755279477
P 6.3445252000429235 7.697165868726792 1.5270865879963713 -0.369867330818363 -0.02997289221300645 -0.6966316597996648
P 1.884331244988048 3.2085880248910983 6.0387386303284005 -0.4655149395213596 -0.42402376225610844 0.7005263668683805
P 6.896085400428496 3.98386413799336 5.922070655575773 0.22078062845961974 -0.16204711917415318 -0.051154411386628025
P 2.4253748853741177 8.431629431230641 10.337569230632761 -0.1217720737041903 0.21906467420977757 -0.02638877440617391
