# total energy = -340897.3717207758 ev
CRYSTAL
PRIMVEC
8.99987448349209 0.00000000000000 0.00000000000000

0.00000000000000 8.99987448349209 0.00000000000000

0.00000000000000 0.00000000000000 13.17222602784992

PRIMCOORD
 96 1
Ni 6.291218255348687 2.1902454522879826 11.476301538142986 0.3975285441790573 -0.14588722158483905 0.12458588900390158
Ni 4.391227754827357 0.4112168646910436 6.088624780953053 0.17351501060443666 -1.3584205008885317 -0.38731380842958457
Ni 2.7197890666564706 1.6167554508469528 4.735467553658507 -0.19664876840842263 -0.8988286117198263 -0.07057883865982684
Ni 3.1872515468807032 4.077591129168739 4.775867090199554 0.1641148003364593 0.3821374064349677 -0.5083037525521116
Ni 5.098635888490265 4.428145239933146 2.6907428717685073 -0.009675061195918822 0.28058680198397484 -0.3432088476905702
Ni 7.335329692955473 6.146932267728985 2.560364390178542 0.5873440917157304 -0.677245284853253 0.33186694031518976
Ni 4.940679091539581 4.65960401173975 11.423717971534602 0.4847452485058813 -0.32822934356260247 -0.12372971165119336
Ni 5.684446718090687 7.984409640131151 12.447108098144907 -0.9857838348551474 0.08844517741728639 -0.571221475122255
Ni 1.8138797015227457 6.4134185510011505 0.36958794529639993 1.0291688867090019 0.5043851342239958 -0.35726275468047497
Ni 2.7099432039783298 1.6277622973326622 0.29833503907235204 0.19909980105207645 -0.48038002955865006 0.9990787521918406
Ni 0.44530298928628165 -0.026273333561514064 4.8141327565020395 1.2553799421555734 0.6737203024191301 -0.27342576545916136
Ni 8.634524572871715 2.4028764866881236 1.3564493813783338 0.0374314053735807 0.19479705991166452 0.517491846809283
Ni 6.793465250427594 0.6626409580380382 4.84191266905105 -1.0626217670508087 -0.7764384448156628 -0.7551229711673383
Ni 0.8420435558806255 7.461417934382121 2.44210423957223 0.1249360732544687 -0.8871876850467882 0.5358526087046578
Ni 7.466754859947146 3.912020438410278 3.744205178957185 1.373009197335984 -0.48217080291048564 0.009660405907899492
Ni 7.4846556102824495 4.055163441971365 12.593556755601497 0.6418201112764236 -0.7824959638636524 0.07480444670540021
Ni 7.941795234481246 8.81131810710334 6.779296748038018 -0.313432387759086 0.0156904141520633 0.8848317832201018
Ni 6.949460074742232 0.6634095473183977 0.5579967175283981 -0.29105170607104064 0.8838190256848714 -1.5712253102315263
Ni 1.9230121794342039 6.481493601547273 9.138482444088753 0.4837160359104185 -1.0030369655086404 0.3895108160809033
Ni 0.14166342419702266 4.956869865724202 1.2281291710813216 -0.737525055579917 -0.829374630693062 0.6756992805223718
Ni 6.221055233923837 1.9134993121117223 6.893170359824104 1.3808184089677575 0.38447376787762816 0.10212833133133378
Ni 3.453278836554527 4.0993348259058395 0.2628953333557316 -0.501983980981671 0.7534774651441153 0.2970863423008948
Ni 5.996373367598623 5.61189872992936 4.72420601072509 0.2662292477107221 0.12442648060790182 0.8557811457110488
Ni 5.430974253312665 2.933716082981339 9.07234416653014 -0.17480750416361507 0.7501088057821985 1.0537154657001144
P 0.1850995183867035 5.593727983359738 12.253634196557096 0.0023353330013959777 0.003546579700677763 0.8199229983618589
P 3.9778545202115576 6.143017322331371 12.638460729318421 0.0322855995065831 0.7968059527284213 0.6031280940228645
P 2.412560351625674 8.48284968830617 1.3839133983331915 0.7534080453587605 0.13583600799642415 0.2772821630907741
P 6.254408768736625 7.606369912713141 5.816169780927558 -0.15348200321296146 0.7543524115499008 -1.0559808646955233
P 4.675974783413917 1.0230877308278683 12.559125035826332 0.25546738120852774 0.4863038512422528 0.7288437257558351
P 3.946876952260771 6.089999061785734 8.101656404871322 0.03822407647820514 -0.02579587801718138 0.855413735069301
P 4.707438344586476 0.9067103539622023 3.869196335685052 0.5999165290641023 0.3964157707308528 -0.09093503371867566
P 0.27631144623900805 5.504944221641402 3.521265688330771 -0.42055200165742407 -0.40971505894292015 -0.16576724833821777
Ni 1.372003864437411 1.0019020263083587 2.7012286255219826 0.4628278796074996 0.3040164937618248 -0.872357047791859
Ni 1.8369733794314378 6.461558879580104 4.61317725926127 0.734889931949915 -0.013804252872943967 0.9515202856865871
Ni 5.99387140249394 5.783058342738209 9.111215524384948 -0.5831765906016022 -0.20500253968975662 0.17888013157109195
Ni 8.478079754833214 2.336619410786412 10.191167162122595 0.3109361036997935 0.5614057745834138 0.08847397377269278
Ni 2.4952511983228924 5.016413035265864 6.843301155358066 -1.3303545958902507 0.0016763592611584032 0.8984038654775817
Ni 0.573159706047714 9.121372782720004 9.150416277645622 0.18028241123525723 -0.4233663311777677 0.061653511145738985
Ni 1.4377659472428725 1.037937523715375 11.415722483048988 -0.4156429943915809 0.6872275928769455 -0.7931033070658534
Ni 3.9895543570320178 6.754459794443076 1.6932498839665666 0.11170106262143345 0.43827847240290974 -0.6894099452402449
Ni 5.406800590466698 7.876753141633966 7.867942264520712 0.030856837479856535 0.38682427038767575 0.3816237000233427
Ni 5.22998905648612 2.9270921753660635 4.784705866923688 -0.20347684707384955 -0.6559760910618315 -0.24656210829909794
Ni 0.7289304334878679 7.254915814501005 6.913245479833118 0.37472234491781914 0.1258740116877058 -0.052087978944490944
Ni 5.204546411338858 4.541372660731765 7.069520200244 -0.3244184544569445 -0.44594215959575456 -0.29140214743192394
Ni 8.18505284172756 7.175554921360379 9.153973028039042 0.18219814020073136 -0.10374246989598908 0.08054340607170644
Ni 4.844461433503015 0.49276652730454384 10.438053518758146 -0.9737176477192326 -0.6965331865485875 -0.3703530122055299
Ni 8.315866017254777 7.085808173072975 4.7651185401113425 -1.5155025627479253 -1.0607083520781797 -0.15433175280776645
Ni 7.351322469901595 6.25118681367376 7.006056685380035 0.17850063674448613 -1.1744431573001903 0.047664395955498554
Ni 2.3596860890716727 5.107437765729042 2.4880224991427435 -0.21172546023588698 0.14185650315889117 0.2584218358511614
Ni 2.482597374807841 5.214518272259681 11.3334753301635 -1.114798449054364 -0.4778487784963641 -0.306568313649401
Ni 1.0897948004534437 3.2985439946667077 3.6757890331683742 -0.966424456491929 0.021226770589260216 0.09916513493795179
Ni 3.726371027693013 2.5158699107503333 2.631494898109699 -1.128880381068727 -0.04278007128000374 -0.0368891597168655
Ni 0.9889692066845119 3.2845941892269286 8.262529161152644 -0.047752584793930665 0.5342438694566413 -0.2562991330812037
Ni 3.5595403545077335 2.509749996105785 6.94081479531936 0.5455806346256991 1.3184118217060778 0.3380432443292307
Ni 4.043391606155087 6.678329856239793 5.937262192031868 0.3298141715512191 1.0975723149840646 -0.31588059218926245
Ni 0.8133105566244717 7.389940931283588 11.280694666304061 -0.10036584011427231 -0.03360586097990342 0.02755914056519125
P 0.3410277436302099 5.511424131265041 8.042763926254366 -0.8771747808954765 -1.113946899687346 -0.5614461409030459
P 8.50423339006418 1.6254313298430474 7.942733921389226 -0.9129779066370148 0.24690586479176185 0.44881562448880774
P 1.73861375126928 3.13950721277875 10.531366017313445 0.13438410604124595 0.24565939397917047 -1.5194579478512475
P 3.9771615298768075 5.889679855670507 3.8323139500897243 -0.4296776181077761 1.1812074726072173 -0.19790218119954947
P 6.788119324988092 4.1639719244016415 10.434602966883558 0.699893104159756 -0.5192126861551315 -0.5670431753748492
P 6.257054731832945 7.775153558659989 10.038935185326904 0.41777572446386757 -0.06458688274245006 0.9341969639167911
P 2.2903150566008232 8.355852459557317 5.8505097019830545 0.6158884790123264 0.2421557517012862 -0.9556926718967218
P 6.916853529511058 3.966118683893189 1.6225288703241258 0.1988347203161479 0.26984139054201267 -0.9428404985244021
Ni 5.26234360523193 2.7412537672847757 0.783790968339004 0.12373202564403851 -0.18950495827478975 -1.8646750842210984
Ni 1.491270201010283 1.09648170719006 7.0417402876949895 -0.07187698864596008 -0.36955674155647966 -0.2449978491357716
Ni 6.855582384069758 0.6838671619926956 9.12503303166991 0.06173064424057756 0.27361062777645784 -0.9144496060865349
Ni 2.735205851636046 1.594678758754193 9.212273314915393 0.06750945570588374 -0.6409917018378574 0.07021631311408552
Ni 6.3358756325049335 1.8852667058765051 2.6068496418411247 1.1609299533051038 0.13110492106934196 1.434319466209691
Ni 4.150778108417954 6.973462739973129 10.48727833221161 0.07065597175466541 -0.11499618843293744 -0.4021796697978235
Ni 8.231294196791808 7.246707928977728 0.3806586908908981 -0.2931947205559725 -0.6770380539384534 -0.531020477423337
Ni 7.505877314299869 3.974416568161238 8.260105494955914 0.6835943669997324 -0.2752188528038421 -0.6252658064621683
Ni 2.890237689381615 8.393894928972767 12.346551600622844 1.420534753720773 -0.7781076049879696 0.3451867973525474
Ni 0.11507869497859483 4.8675641112861845 10.179733721586661 -0.2249969805338125 -0.4095299395153076 0.3025705053439176
Ni 8.669327087475345 2.0799609904434333 5.7030737582963065 -0.743865653085964 1.5431810024998003 0.17252924965239966
Ni 3.6829736329635847 2.6250653877831325 11.346542247917057 0.15600991184113774 -0.09292095380045287 -0.11952878619596834
Ni 0.9514577298632223 3.3142577755040326 12.542989160876022 0.12356053306318077 0.672874409479067 0.01241354317300443
Ni 2.885323757917022 8.295841296542836 7.986979104294414 1.1757469637132782 0.34641527044300985 -0.3736645930772661
Ni 5.582550139258959 7.600897989030956 3.369481905284051 -0.29454120728153793 0.7652636591457659 1.6430755594046091
Ni 3.1436201554148653 8.345079609808018 3.6809783607919724 -0.01639541063888789 -0.2749072351006943 -0.08656338701354124
Ni 3.253184627301233 4.0912979379976315 9.083514810731337 0.26143234054271103 0.6656946039011761 0.38338696257135263
Ni 7.100342970353777 6.208104414551037 11.468859541937727 0.6201498253918417 0.05018381994324261 -1.1145531658127772
Ni 0.5711725337631313 9.069443506986115 0.33834218108619046 0.2163832707228725 0.6444776035039288 0.04204242178303082
Ni 4.686036643079512 0.31340442889710424 1.7027213518664528 -0.9293044117111802 -0.37515351891796683 -0.8196923704082916
Ni 6.093437013836053 5.77584944328191 0.4715304234879616 -1.169725954330179 -0.3434808704050342 -0.022335173162090566
Ni 8.016134197663552 8.894377948654128 11.091502005005093 -0.6894469691257675 0.20667864184059892 1.107930518289937
Ni 0.13812737351490062 4.759484618688567 5.726849626690377 -0.576136395925369 -0.550799202712161 0.3655522483827769
Ni 7.91910655092403 8.734702175678283 2.525510576290392 0.10087260454736176 -0.25612455517655247 0.8254549839236817
P 8.416799609517435 1.5407875103842594 3.5425116920092785 -0.1638366069744082 1.0242161706894166 0.08733420374129475
P 1.7964919440326472 3.2644344703978283 1.5151090685256934 0.0822884137872712 -0.8661853717635082 0.0339205640068448
P 4.690581579690536 1.1662667338868644 8.242230844256595 -0.253656296141718 -1.6024590714348272 -0.17685333094905026
P 8.416961607258028 1.7001932871257857 12.380048233439823 -0.5153483181037188 -0.4547818693745716 -0.08218145589576169
P 6.340303570747754 7.7601777675298 1.3806077444376879 -0.5194392003436409 -0.5458698837313437 -0.07292214208102281
P 1.6654357718945427 3.0173159170007633 6.020142036093111 -0.1863892954639435 1.2137206147435742 -0.32750069292669404
P 6.870702173191583 3.791431120289247 5.85210357975298 0.8222629593489451 0.6421870076975391 1.033318904321633
P 2.457730721627126 8.37369021077128 10.148067663238363 -0.3051876312517905 1.3410115613834646 0.391185632680165
