# total energy = -340849.46366025234 ev
CRYSTAL
PRIMVEC
9.44937846280619 0.00000000000000 0.00000000000000

0.00000000000000 9.44937846280619 0.00000000000000

0.00000000000000 0.00000000000000 13.83012053812889

PRIMCOORD
 96 1
Ni 6.442614429414548 5.676931310954434 8.424244484216253 1.5975742325387001 0.7111432231522785 0.2667743215809148
Ni 4.228237684220651 5.108900837055967 8.11316339318575 -0.28997364251551355 1.4234390718517613 -1.577839216003618
Ni 4.914801158711042 0.2480452337562154 6.516268553012588 1.2399574369529163 0.034209041781541084 1.2585272295353034
Ni 8.084547841073782 9.136651063244182 2.12920193965057 -0.5536433570291756 -2.8959856998634512 0.4590131338470998
Ni 8.10648929733769 3.018207003592595 10.433276790964431 0.010343548017853156 -1.654584331375157 -0.2580510827753039
Ni 3.321550943723491 2.1991443474775236 5.492023987757455 1.00741889662642 -0.38721584939913956 1.4210582303244108
Ni 0.8593094478976859 6.2359470780157915 13.431936810738112 -0.4305865030752906 2.5312400065423697 0.8365037855386755
Ni 5.48210403048534 0.1684380018695182 11.490631032620554 0.2100889530737285 0.4105627516551961 0.7649224737562633
Ni 7.808011786998313 5.272025453543402 10.800839650524757 -0.15113098648228165 1.078526096985891 -0.4960902412050553
Ni 6.178523206475842 7.424556018182918 3.9435893389296073 -1.4896071830384023 1.1698287984566305 -1.2396139375705684
Ni 0.6445883914284191 4.941552348497055 11.803385608536647 -0.42797246249121135 -1.296617865759438 -2.512467353920557
Ni 1.6635252409284111 7.135376696027731 4.248336511728545 0.510773811359159 -0.767385333474459 1.1784291385311318
Ni 7.943204041420241 5.576909642326762 1.8202790866091605 0.04371955237513761 0.26889059659296916 -0.22575931262113375
Ni 1.6937254537705502 9.064968079946164 6.472773064992448 0.47684579115314657 0.56848427869675 -1.1483204920712093
Ni 0.9667375391867066 1.01076219238806 9.474573113153939 -1.4736434606202944 3.919362405370708 0.677835095918452
Ni 6.2707207899241375 3.1230100576076643 11.884789167226002 0.7363215221901189 -1.13432134957864 0.15040799227332804
Ni 3.0626190813016225 1.4917355445985967 7.807061179547776 -1.4396881867207723 -0.8355511918174191 0.07245394419535263
Ni 6.944990623329541 7.416297261604687 11.988958167961437 0.5841296985434908 0.24236761060177614 -0.30742757632590284
Ni 5.994213083983376 0.4982619346310552 1.6911051411857174 -0.48734103425751557 1.2677968277626874 -0.7272347293975023
Ni 4.770282367970219 8.34146698593139 0.6395490380151797 0.8491271307296409 0.9581722437854661 0.4176080885377517
Ni 6.939387142035615 5.463621046655796 3.808372516124266 -1.0162971729526562 -3.060787498964606 -0.6336825697709538
Ni 3.4235853299154244 7.832419530981807 6.7603705612309355 0.35316930133739177 -2.5181793167036695 0.7383238973321283
Ni 9.118886232160571 7.011372505437184 7.1873747345845915 0.5276083664179946 0.2223356316515655 0.5145343068428558
Ni 3.112303912066318 1.5793029327112693 13.362260875377412 0.892680075619927 0.6061329422874593 -0.7589017214834801
P 2.2539790893808194 4.242440099709303 13.838556785361146 1.0502426766601654 1.3505981766306354 -3.245279577405837
P 7.296800424432694 0.38816817374166934 6.766358632219065 -1.2885332889790906 2.888175974011045 0.7484087923719562
P 9.347258805367334 7.483482340862387 11.805390766598318 -1.9215394015083103 -0.29820785749984774 0.8512997129009274
P 8.438946771813589 1.4006907852950894 3.1699054319171034 0.5603757906570027 0.3121254960222044 -1.3134308235517185
P 5.5180305665384735 4.01832919608696 2.1492837582776394 -0.4405518418181187 1.0054118934987202 -1.320933559686667
P 5.2657510663947225 6.434573008535743 12.95815916005426 0.4542198262235145 0.0607094020649148 1.0198149562979275
P 3.7811403529860423 5.875991912873239 10.171832338869619 0.8951956429529293 -0.21770121820334762 1.520701847560678
P 2.8244569522424015 0.7067775844127648 1.4779555163170912 -0.41801046618249305 -0.11976172814238084 0.7108439467443048
Ni 7.204139821450837 2.697712441963424 0.8860587478080512 -1.0582511487869388 -0.5187313756433389 -1.2716190297222552
Ni 3.6990536042502287 8.53031280997712 12.533490873000536 -0.7186325895507881 0.47003750998206145 -0.741859935509845
Ni 2.9592712315348906 3.8300786828700972 11.695496387589714 1.012405551207734 0.8079725108682021 0.013455611284273599
Ni 1.3115453510170108 8.43915465813478 1.8547296297818359 -2.9200874780076616 1.486802880820388 3.5859522889381146
Ni 4.5140435783456 1.683444530249822 3.500154586699259 -1.9302366721719917 0.8636240387942353 -1.3589797158261112
Ni 7.055784583146212 4.040478538672058 5.918558527012783 -0.6242281092262734 -0.10378437887751803 -0.5758476610403567
Ni 4.7247458142511105 2.477088358910151 10.224884928037612 1.9353030309513055 -0.9199504813001059 0.5861125333014745
Ni 1.3673533788786105 3.8341230167550897 7.849478493511191 -0.3119614596405143 -0.04700233689146744 -1.5990065941098526
Ni 1.7650021138044218 7.71553072220294 11.059974674578699 1.6977999475306826 0.12292855590613667 0.08699481812400502
Ni 1.353576185410576 8.407329152236056 8.826603734192693 -0.5952764591889297 -3.0762889370343145 -1.5760294164883888
Ni 1.4029113891805407 9.363095963290808 13.606390286792644 0.32775163259523554 -0.3598652253003286 -0.6307024040967074
Ni 3.199143698054822 6.161230844304029 12.53802751949162 -0.0036440245104904984 -0.7145195958236792 -0.4805407235062305
Ni 7.073615559877475 4.982146877398754 13.060985404142366 -0.35750546681890044 0.9512618898188778 0.6276556468505835
Ni 3.51648216735318 4.600203009101113 2.670817621628225 -1.1669252516565902 -1.3057990180380736 -2.710564681850048
Ni 8.704871174130071 3.7910433013773326 3.7913891486207687 1.1624566743622755 2.009808972579681 -1.5511578500576897
Ni 8.479153876207613 2.0544176704155084 5.023030557274472 0.6441513305127615 -1.4890675084848486 4.3728877766303595
Ni 1.0896645006583543 2.6116002580990902 12.066157698273612 -1.2591913454818637 -1.360351142252341 0.1935865845433311
Ni 0.240351549996494 8.84429675000171 4.693417345647598 -0.6371373610887737 2.357742222329114 0.023376727052727482
Ni 1.480008866207766 3.6162203546337737 1.6795438269140162 -1.2050554828694084 -2.4764084034144704 2.8385819651330015
Ni 8.887026838384736 7.022343233569138 3.66170399183476 -1.0778195578371697 -0.7288565812716414 -0.8223256942660805
Ni 3.097251052536428 3.58514134961569 9.246555836568849 -1.3961043885925504 -0.30470246408525586 1.0796116167405858
Ni 4.483087415244584 5.671998735515261 4.227674501277787 1.8065321573317794 2.3992933062980226 0.25213008930517866
Ni 6.730669275559656 2.7697545016344094 3.178064970023858 0.06970209248182833 -0.9678231366116687 1.3936564412726902
Ni 6.1032967063393375 0.5031746663759326 9.304213107751227 -0.35453275734382167 1.9833322664453905 -1.2515747094768703
P 1.1254776441726557 4.8292653869191025 3.7705750031804124 -0.573074983391226 0.19370125574432448 -3.5792357961498875
P 2.9541874660439427 1.671538313672508 10.991488415937908 -0.6760322383817583 1.1585323996072048 2.727850979734322
P 5.452253444637932 1.3149849246949015 13.52845748472936 -0.85448402416618 0.9925820887239036 -0.7722776285697538
P 6.162374219070581 4.086667099489447 9.769749010737671 0.675281733368979 -1.5595573869752946 0.18008777872594792
P 2.8476457264334556 9.660382851972452 9.569571492311374 2.816827089954413 -2.869325416963446 -1.0720641434106313
P 8.64375259569986 1.8017129482511398 13.014751486309445 0.4925704009772549 0.8831384546780792 0.36846119449945575
P 2.1788848805396186 5.936108857210438 7.245931586575033 0.11437295302664173 0.542851408619994 0.7047581455615411
P 5.4166670862012944 7.631091078286371 7.497834056527168 1.5524503436168682 0.9018892529230209 -0.9812826045506843
Ni 4.605324572105006 7.785796298765564 9.285847296211807 -2.7726115717794637 0.6496810020817392 2.7091305205066827
Ni 6.110223100586299 1.8964807625796163 5.296466270350722 -0.6182981168950835 0.9503172665174215 1.9500789037088997
Ni 2.7883603273810214 4.512531677827845 4.848632832551533 0.21044273686872142 -1.6714605383052052 2.6417707030047857
Ni 4.809752420861837 3.9671230154262744 13.315888996622245 -0.9113550263216111 0.5952103818376846 1.8985989906620526
Ni 5.743861256999762 6.181953330775497 6.098239399107451 0.4914594273012633 -0.7383938313381154 -0.2474457964556319
Ni 1.8565476901544353 5.733996106121417 9.64436521092467 -2.531546482039195 -0.3895326704577743 -1.197903959426292
Ni 4.934578707358914 2.753293684747361 7.904467260279733 -0.7649425283609214 0.5568780619163893 -1.6598784898945607
Ni 8.503268689465791 4.251256369603458 7.622553565050178 0.5218110430099271 0.9912363733292863 0.9354228659040922
Ni 0.7520486106034419 5.380485416935791 5.7343693565617375 -1.6609640096492555 -0.35546401090883945 1.411879134928304
Ni 9.384423209969377 0.4598048550863314 7.303188204120205 -1.9704332989955353 1.1954495843485284 0.5653642450105295
Ni 3.525742558024424 9.09337291092347 4.829934402898208 -0.465199722273786 -0.0965940317766659 -2.325809892396891
Ni 6.8337525427357795 7.933452283080728 9.534318696926464 1.9861167711690633 -1.1199298567436584 0.48173911468970587
Ni 7.272439927340381 0.16832082957939226 13.37909210789131 0.5174332256572056 -0.5277114676547622 -0.08334590851750807
Ni 5.200418065271272 6.122866368666019 1.5752368652563344 -1.3376814685689673 -1.0731702319906162 0.984815300294291
Ni 6.792921779378183 7.298510761893403 0.6585167749482291 1.566598352982476 1.0405884413998532 -0.8484061934032163
Ni 0.22809570642444948 0.27947008601773526 11.652332572745655 -1.3284812901269378 -0.2135342313098516 -0.514080764245205
Ni 2.787944554738639 7.480874312469261 0.816859061110444 2.2331823014671413 -1.2504171988336594 -2.001717196710482
Ni 6.061388713862841 0.17686873713164478 3.8673999471508584 1.2604907810195773 -0.8014169691378714 0.9389043966947894
Ni 8.887348117244759 4.19394589060234 0.452670574518179 1.9507257932642792 -1.0821822056812396 -1.4654740374356245
Ni 0.010694806287463367 1.2834901470344355 1.328511709639683 1.514594192001043 1.418319491237009 -1.3894557729277812
Ni 7.062890515579657 2.4398956061733994 8.137795087433437 2.076964130269939 -0.7686875972256504 -0.0011274287362238646
Ni 1.749769716088049 1.9410629290968917 3.949716315777806 -1.4327410659789774 -0.22137738150335423 -1.0844815432383774
Ni 1.4734415483337715 5.926593333326823 1.7031653826282775 -0.9384269428377386 -0.5760224960553241 2.87232100925666
Ni 7.5190875980554965 8.207191321198351 5.610575887105852 0.17208959101181975 -0.8384092300915045 -0.6098564138856336
P 8.900123676619783 7.457118575584049 0.9695062070098438 1.194481049787672 -0.9930292035636511 0.32656146894187627
P 0.6136964840994075 3.3705459698769613 9.871815524815604 1.3259919480461808 1.0648200602537081 -0.1600542571138405
P 8.609092276330346 6.704570092871924 9.320049320736876 0.36493338385185536 -0.47469274936588574 -0.6975289748029536
P 1.0320894390666293 2.4202881463337755 6.038396486739094 0.7478066400115831 -0.6922507571231498 0.6087778361094741
P 3.2529295589739253 7.4325785403052524 3.049209468646967 2.07657023726563 -0.170728448998235 -1.0607795716357473
P 8.358504214890832 0.4343775231911775 9.58301512272768 -1.482614553770653 -0.06380012517509659 -0.30160608454811927
P 7.969671749859176 6.016107293356104 5.521495653537602 1.0803415529280749 0.02327131182311476 1.2479823641399217
P 4.835180697694815 3.8075891626685046 5.855105952158289 0.16456500050000045 0.4663544047035194 0.1730848650455535
