# total energy = -340870.3609966481 ev
CRYSTAL
PRIMVEC
9.21062395127630 0.00000000000000 0.00000000000000

0.00000000000000 9.21062395127630 0.00000000000000

0.00000000000000 0.00000000000000 13.48067917682847

PRIMCOORD
 96 1
Ni 1.8545038913604925 6.041275954858457 4.857479576086323 0.10063889127000088 0.7670060957581694 0.9905794564715779
Ni 3.281321664975072 8.368690128114677 8.420396729480098 -0.24845186912264308 1.182378352986867 -0.009632380883441474
Ni 4.8751464741017525 0.034483655429834253 6.86232664190396 0.48861038788824235 0.07468026242271009 0.5874582486960915
Ni 8.706922664959777 8.52003910271951 9.870445539106624 -0.5536695822814207 0.4723232206924446 0.9767703185026275
Ni 1.64337796658615 5.2090960707575125 1.7206062861680116 -0.41097644215384704 -0.5453194105445125 -0.6683783213809263
Ni 3.5016858456847024 2.8236641765278367 5.364434166644075 -2.7606068340091037 0.8268150974960018 0.2917932122227555
Ni 3.008014817150752 6.334505382531259 7.7304417757870825 -2.7660699140062035 -0.9005054852016169 -0.12334147507383918
Ni 4.8906755862721365 3.376089775960292 7.115439196469937 -2.331288913233591 0.7742792323808149 1.7177637922471192
Ni 4.116495001896523 6.993967644200981 4.825719502191948 0.9903082050880623 0.21421171699285044 0.3095677625973572
Ni 7.300948533599989 5.208828962659683 1.915685461699624 0.5137012694185992 0.049170548187379835 -0.9891095567942707
Ni 7.799888039098032 1.7756517387563069 4.686679605585038 0.5572922666356724 1.5026838137167022 1.5637277163029004
Ni 6.657862761514456 2.5397282685347013 1.1419359345301636 -0.12870093961353965 -0.29985284930243844 0.23481268107265366
Ni 4.6943603449912565 1.6771717462736584 9.17143193664755 0.9040543788951397 -1.383889077473281 0.005209826335713609
Ni 0.6865239962295117 0.9881894344817055 5.351115604248834 0.5279348965194779 -2.627675144143668 -0.6236691513990098
Ni 2.1958404085148575 4.6324465300391084 12.829670759532737 0.9804791348127825 -0.353915435474797 0.08990145024783872
Ni 6.3898520225264175 5.409279774144895 11.886858385560293 -1.521026063669316 -0.4588128449108356 -0.5729433429093681
Ni 5.745964926147394 5.063909003650892 5.386973484788882 -1.1091085977584383 0.9057392227967305 1.5743504861240694
Ni 0.7781918111550926 3.585695947764223 5.828142114038359 0.380648480594267 -0.36250137737159505 -1.9786677710901857
Ni 1.9794460067764228 4.010047819599294 7.874469225324159 2.189349620552907 0.9527760124705591 -1.2569755687774673
Ni 8.612559821433333 8.852911056359886 0.4582810476963071 -0.9559364124764117 0.3682071695071207 -1.198060282498498
Ni 6.226483183519241 8.908027430753467 4.891895993960498 0.37058878236541987 -0.4658844070456364 -0.8985894991258266
Ni 3.7484200430869836 3.835967024806734 1.5579079805926281 0.0858247090753038 1.0503365219255525 1.2828354672633648
Ni 8.26017055540325 5.379492615924835 6.253862684609207 1.0671780189629234 2.419467724363369 0.20992414536109008
Ni 6.528481125300112 5.030354700189025 8.884765078619706 -1.5326744465415216 -0.14340482148261754 -1.6035355923284578
P 3.4374141109724015 5.058354997340843 6.194547186705259 0.8477850148794496 -0.6407911557912771 -0.8709964199989064
P 6.9955426609157705 7.369254521651927 6.177575690806594 0.7029331765376604 -0.40999299519465515 -0.10441404204171695
P 3.9213495098716566 8.274511497069494 0.4637438688281308 -0.010419909781743345 -0.8210321722656376 -0.13836803038965845
P 6.9635541635446305 7.109026759997207 10.394250966387814 0.007441286769393635 -0.0600231746311676 -0.4411377962285758
P 0.780692495588224 5.824190756315289 11.481278686628222 0.09896844554611343 0.2691695612859687 2.4536006614913357
P 7.029078543129512 0.46873786919514276 12.584308945115858 -0.3481039709993424 -0.34194463626616595 -0.6061679092904528
P 0.5883074275950678 8.042348506935035 4.339754081749185 0.19645747833322297 -1.511058925154275 3.3176946979434545
P 0.2765849089283768 1.7893663579862604 7.1099257169057655 0.5018564542648712 0.9533208292304355 2.0727567770568105
Ni 5.244575394648568 6.912462831866623 7.338019453329148 0.5012010800690594 -0.7229949802845419 -0.33737809994140605
Ni 8.856880835331083 3.6313990643653176 7.8642371430524625 -1.6209951825658018 1.2209413008617294 1.9847558862657948
Ni 7.137671800833443 1.0271043211482964 10.306289506585223 -0.8398271934849535 0.006393819341485762 0.16721323675612493
Ni 0.6011138792923999 8.496846751328627 2.424015198429996 0.05524452229560163 0.12454423713268875 -1.508523560326931
Ni 3.9902633991117593 4.620620088742091 4.10961190253417 -3.094104367949181 0.5543848631808904 -1.5154426560442675
Ni 3.0720839181336648 6.766483651090576 11.688934969317996 -1.0331412410931884 1.2116925285699518 0.09510433460501687
Ni 6.213219884868379 6.97190819956986 0.7029410125595784 0.5810320334547735 0.71848038024364 0.24597178301326672
Ni 7.838102918335827 6.93272620480544 12.50039094927697 2.290406573196933 1.193641841715828 -0.20541237353366557
Ni 2.5407230159335157 8.244005910172513 6.104172543398137 -0.25284639864591296 -0.05018484838450712 0.7034296565581046
Ni 9.119134934279685 5.7201014937782135 3.3741463342829783 -0.4825029894389238 1.9253474624004907 0.5857674912572298
Ni 8.284164231087622 5.348637025313454 10.184167684257414 1.7074958346622076 -0.3109569296354 0.4347563181822642
Ni 7.824904094053407 0.4434795748269079 6.8289344454256025 -0.42985373867432425 -1.09104891204325 0.20986166755427085
Ni 6.163427251183268 8.598366249752099 8.931112017842812 -1.1589985406103458 0.6287244544347301 0.44774218891897083
Ni 3.6968681802058216 1.4330073129849816 1.9208084108035193 1.8802176599413878 -0.03171275772224861 1.4639120922651434
Ni 2.8566013681774765 1.52417406996153 7.636966836420321 -0.20137779845297576 0.3727022291639968 -1.3933463662314391
Ni 7.538776057533253 7.979393891463757 2.40921280449819 -0.37315577176164766 -0.5718709357807958 0.3955220552719898
Ni 7.732153109738006 2.4805223770571043 12.042102533081412 -1.0842655705728295 -0.2664840440340056 3.0794642494385034
Ni 5.97136731821954 3.412195422287638 10.512004189722495 -1.2220103655561922 -0.38811419284369286 0.3919106837716476
Ni 1.6755046233182374 2.003964688032391 3.69068600933467 0.690753603752333 2.030316348504413 -1.7310147437197543
Ni 7.825668575850645 7.117638693496204 8.289350733497551 0.27144190225991316 -1.4713027283022597 -1.3870193955721468
Ni 8.89091409124423 3.4491392354047257 2.8188507043924615 -0.44773293294759015 -1.1265049388580146 0.4520932667988149
Ni 4.262833397011031 6.023131025454153 0.3557023275055798 -1.6523582702581154 -0.3203226871210161 0.04032775308476926
Ni 4.966819815401771 1.3234745716266152 11.839393276575928 1.1230784296749692 -0.9757884142053324 0.22067238501652964
Ni 7.63032045009639 1.1364067969050857 2.6731782373977153 1.495983004657759 -1.402215386586295 -1.4944498558426842
P 7.5853541834203435 4.138554446527644 4.654918610628256 1.6812970647796526 -0.33121619410506825 -1.9784767381253026
P 0.2785587456650988 1.319256105805716 1.5165495153620971 0.13540894776133452 1.941886083485462 0.2775045635142253
P 8.059507899564588 2.9637761897756905 10.058892144250398 0.8654986301091288 1.2230730024927519 -2.189519827582184
P 5.620295171430479 1.1565227998588927 3.110639590461795 -1.416645960189328 -0.0918958549700482 -0.3354230330975642
P 8.912798534018153 6.6311335304833445 1.0407876242564356 -0.4207659174404431 -0.007187775997690847 0.8975937108714606
P 1.5914853106146534 4.348786940767866 3.627502970386627 0.7052394560733338 -2.2611600176269895 0.37284878204419014
P 4.148336129282654 8.809501385150504 10.190759727899373 1.791124307417141 0.4566150659285685 0.6078761502308111
P 2.7235262717138307 2.504764739591179 0.2916221737737913 0.0037684659034967352 0.19066658268305872 -1.523019954170893
Ni 2.683110053324955 7.249774306305414 2.7491824650415913 0.8241444926423741 -2.4754226424624335 -2.137484042031867
Ni 0.19161782300869998 3.3848398688202357 0.43846807427417606 -0.48444674342885596 0.055925350412710136 0.2748676401120105
Ni 6.769338944550136 6.51361517806227 3.998571382016674 -0.09265073085820173 0.2304952846442224 0.3545625821404926
Ni 1.0531243341265495 1.4995080187205525 12.68255590880971 -0.39190888399943474 1.1150203352571828 -0.1929201546039258
Ni 0.6704136936807463 8.450259414817475 12.019306238525242 -0.627772374934106 -1.6785524121549802 -0.6123748094321131
Ni 2.4534984060559735 9.019641773150095 3.8365067673768314 1.2487493242129333 1.988307608172795 0.8074150957028352
Ni 5.993178076000956 3.743759467311056 3.260976317482094 0.17304912671161166 -1.998654241514442 -0.11051655539502901
Ni 3.263056997457948 2.624889698622109 10.92526831231041 -1.167670871573363 0.6750043113378762 0.8146416953582616
Ni 1.7080089156369118 7.004301964399778 0.2327681281354049 0.14542982233244633 0.7045504004261093 -0.16854892484841294
Ni 5.419982519306215 7.912810290111619 11.786117184870154 0.08832356423775756 0.47361622847225526 0.5364524470721858
Ni 2.788221695133034 9.210716169339072 11.65528763855309 0.7209226711365455 0.8379297193519246 1.3002233237225092
Ni 5.109952913342321 3.4928252253360017 13.11968015303308 -1.291415495622892 0.40501148281966376 -1.8443823954103333
Ni 0.44979622080938086 3.5401678330203277 11.520885291161953 0.9590204507183742 0.8232800877595499 -1.1933590203680866
Ni 1.1203987322834206 2.4957014855130906 9.265796622298808 0.02729585960147557 -0.655743149115419 1.3633673033708456
Ni 6.9560475049332045 3.6371833362769435 6.578544551332678 1.0828915730434383 -2.8512410486579087 1.4839587265033733
Ni 5.096579087202702 8.068589574890803 2.7882493270052233 -0.7121284698836833 -0.1655024247126053 -0.5185210594047457
Ni 1.0279609091861646 0.22454856722149583 8.394297505134903 0.09652821153573699 -1.284153157633524 -0.6095728212069437
Ni 2.1302423439374705 0.26597150682046844 0.8585655588545023 -0.3886412689917565 -1.520020248112621 -0.2922678378663289
Ni 2.2771333764957644 4.897380920590073 10.113367459209188 0.8863867864120476 -1.7998506315465452 0.041806137402508645
Ni 1.330852281501157 6.936999934370718 9.79564145577817 0.11347178136861102 2.2334808065441663 -1.089685198926504
Ni 4.311889180771093 6.218608099945291 9.594078000906135 1.5347552403299505 0.28586476255346255 0.7515817907832991
Ni 5.579805268049099 1.9602510662289256 5.221269752581709 0.08422676846056462 0.011010492177890715 -0.20076870411406714
Ni 0.23309326316483225 7.511521820930546 6.471494073159315 0.07589845110052734 0.3670378317893679 -0.07898223223217365
Ni 5.752007095532787 0.19275625614289896 0.8444327772920841 0.3089113599602809 0.18726269920783234 -0.023214490443250343
P 6.206818501144525 1.7003733082886032 7.55079776406041 0.25686323311478987 -0.5703290452149726 0.03878046320230741
P 4.291450805975078 5.107051566762445 11.566274325482494 -0.28418223264471704 -1.7080182828245811 0.5191656349672802
P 5.017561143365381 5.557018184116993 2.5129069312629584 0.5937157995700292 1.8191984399455379 -1.1549914763334819
P 3.5926223370596735 0.7813344760854218 5.406763431650856 -0.8628509080736366 -0.19083164750601325 -0.3598950500969995
P 1.0629244381296863 0.8182322360821942 10.577184091967418 0.007825923802322006 -0.5359315415717092 -0.20137471312918223
P 7.166455001030625 4.168452132236461 13.42105453556488 1.1553588869752294 0.3926958986771043 0.27713278199710334
P 3.9836593816585175 3.7276592964487594 9.126635145454266 -0.2068971856093082 0.6426343796476028 0.12495124276312028
P 0.600534531038831 5.7142988006184625 8.20546036953085 -0.7568296694457998 0.35151299668089137 -0.9701080759911034
