# total energy = -340886.588813041 ev
CRYSTAL
PRIMVEC
9.10928010631854 0.00000000000000 0.00000000000000

0.00000000000000 9.10928010631854 0.00000000000000

0.00000000000000 0.00000000000000 13.33235221574587

PRIMCOORD
 96 1
Ni 6.434750041675639 2.2330034208426697 11.152486378263522 0.5167948207422584 0.03583757852389957 -1.0256673013136464
Ni 4.7640533830872265 0.7263585235571381 6.071620425474584 -0.3895884633963742 -0.9538445629443896 -0.715451106499013
Ni 2.658743853175564 1.7588289452739247 5.016004233500513 0.7875556377747468 1.1846167553990825 -0.45231078212625975
Ni 3.6649458433559152 4.734384457223173 4.754570622318273 -1.2449536046159269 -0.16443593112130392 0.07030758727631117
Ni 3.503748019563997 2.90576020646249 2.8384708639800915 0.38695591086953357 0.22703715089229287 0.10208745079106933
Ni 5.326223506137318 4.578424469590859 3.002312200908561 0.34577480864553356 0.14441372236310612 -0.8413282035105124
Ni 5.088790115702398 3.457345345830044 13.170124551071718 0.8852603861170883 -0.27680136679961365 0.8386195463300975
Ni 6.118147896348338 7.899394780385369 12.531371797800047 -0.10559392128243104 0.4111854728408596 0.33251897207689185
Ni 2.3903206912363424 6.802628325685394 0.37402158262894947 -0.5610918428874208 -0.511607620114364 0.3386477106824491
Ni 1.168119447114198 8.738523460994768 13.364083901381923 -0.9890031131233935 0.7343667124565934 -0.8915804147978452
Ni 8.278395495614038 -0.1979993161133101 6.857081781328666 -1.0447050346713878 0.755866277091266 -0.3951559301818227
Ni 8.957838492957597 2.730014862067289 1.4140426867678157 -0.173701672693946 -1.1435873482615981 -0.5076190677802612
Ni 7.077355109576695 1.1382683356445937 5.052854915935404 -0.22517850041699927 -0.37312903228877026 -1.5911410753188469
Ni 1.2195322250008158 7.940914879890544 2.3589200911915236 -0.21011286433312845 -0.7794011269884126 0.5179307341189145
Ni 7.699491624694046 4.163369223023557 3.380204316727451 1.6732975915139439 0.00412482080165096 1.4115788300790657
Ni 7.72592675605956 3.7228262102396092 12.527904805726404 0.8936588945934286 -0.3727320539606677 0.39407400997155356
Ni 8.603205102471431 7.574585173527976 8.8498552626912 -0.4440197457620611 -0.6285935852838206 -0.11803343259736446
Ni 6.999652948809004 1.4164475367610947 13.409813399303365 -0.4721306450656643 -0.29604067464519984 -0.3389187049556486
Ni 2.3321670459443213 6.832042191701675 9.306901558554026 -0.7584834029991389 -1.1465436026764448 -0.818761631063906
Ni -0.05502734030075836 5.006733718962027 1.2705569475476088 0.9075891315212756 1.3494890027268565 -0.3012546147459715
Ni 6.637805008343001 2.38755147003196 6.937543143092433 -0.45040739445595973 -0.047477733865989205 -0.1261267511284602
Ni 3.797349232190428 5.009029257591976 1.3200613312160754 0.18397143005107028 -0.5134261613803416 -1.1414307069299114
Ni 6.445972674977608 6.170799536352706 4.572623679910101 -0.5543275275803938 0.719349927332787 0.7673166850200528
Ni 5.593808614291003 3.639285000813994 8.940995433724366 0.05390317777635877 -1.008477162687605 -0.7157490973554059
P 0.6359288763856231 5.910848005071627 12.531518457212517 -0.2949281583073114 0.15306317050798798 -0.047787808907240284
P 4.34830583121883 6.321794966233743 12.831029770883035 -1.137264491367364 -0.43425803838960697 -1.0794267544232894
P 2.9689786115888412 9.034994096908633 1.163193148340087 0.39568454899178307 -1.0382428239858121 -0.1344805224097942
P 6.269389276796871 8.126534684106632 5.732884550928837 2.406611694336307 0.6040421211967016 0.013124196086783847
P 4.862934620500273 1.458204477553486 12.311840875894639 0.04762917184218894 -1.361240743946146 0.5440587986645339
P 4.298742237228558 6.114321998631758 8.157572734796405 1.8683059961054662 1.207200040016237 0.46708974020764715
P 4.864437651746072 1.4426913732407802 3.659823695055836 0.2173273798036967 -1.8829602556835312 -0.49484505594404443
P 8.940740373876594 6.481999878475407 3.2494005175096805 0.9960312236147686 -1.2009316905090222 -0.2180310907389406
Ni 0.9579319139894963 0.18708913112486183 4.846710081397888 -1.5212656904839479 -0.8813785345641788 -1.2648179476400216
Ni 2.1632263339164663 6.934366737059643 4.5178942130744195 0.7782991521734853 0.5163443634684011 0.7886313873374289
Ni 6.662135895964398 5.887072783547163 9.16323272280024 -0.5936458655640421 -0.04025576219625325 -1.00110503859325
Ni 8.687511491440363 2.33235834083015 10.128828274287258 0.7241216376898174 1.5519476929488367 1.5782696186728176
Ni 2.78501669638327 5.1433364860045 7.029095964522173 -1.9112161652054311 1.2219306613581924 -0.43098116741054804
Ni 0.6661671322670242 0.3589730516104001 9.497220840465316 0.32255209067216706 -0.12998006343627935 -0.34311114577044133
Ni 1.8906675587312276 1.1985262246807342 11.624958329348388 -0.5215937847927984 0.6091632444733509 -0.5772280863276511
Ni 4.57196598987406 7.325528341458873 1.5299008898341737 0.22726263663953766 0.41480532898163397 0.15044321638663768
Ni 5.881042440003411 8.082482204684293 7.952347937566924 0.5978974417515444 -0.20127546854715656 -0.4114436115982527
Ni 5.416050118954458 3.0642252461711363 4.747917204003534 0.7424016669459279 0.2257444002227983 1.0428885502879395
Ni 0.8427696599363448 7.3247085062338915 6.636284669464675 1.666229886033885 0.7899915009097491 -0.5090408878284524
Ni 5.376169689899247 4.822708038794514 6.467124423782131 0.5063864809247407 0.46170585018791455 1.352973104620715
Ni 0.6566114972558508 7.55756903796947 10.960966493211648 0.8568936620489372 -0.5252385806342373 1.1426247272380128
Ni 4.926025495702738 0.26005810986032646 10.224021164115916 -0.014809554209006754 0.13828318398533604 0.16272229086430687
Ni 7.961538290438966 8.139497189941617 4.183918848401733 0.7633394455398596 0.16113720576537413 0.06187128358349989
Ni 8.061621952848654 6.111179296935996 6.84954931746714 -2.862305791112503 0.23036930058931937 -0.4881367906859335
Ni 1.9439932854761355 5.4792594148005325 2.632233114783745 0.13410848378235612 1.3378241647944187 0.26974883082820644
Ni 2.6320445526819993 5.32006563266968 11.706925455142038 0.9551306287456649 0.2801782536916465 -0.5891757456078305
Ni 1.1217714290619105 3.566966424690348 3.4675850877900625 -0.3790325422573988 -2.024025887510011 0.9836361923845253
Ni 1.660785761646415 1.201450303649835 2.2044777096534527 -0.6759044545546424 1.8802479989586907 0.516652124516807
Ni 1.29857344996931 3.0792737771896856 8.177651410384229 0.0195475831146244 2.1090864647257805 -0.2867746759622416
Ni 3.864885436168348 2.9573733885152143 6.8825203574318135 -0.42150048161362247 -0.19034313790536894 0.43493629540355416
Ni 4.426317707515958 7.128002707919996 6.112363503372081 -1.3391847925873712 0.03246017741123442 -0.4771592086285072
Ni 8.279461281406515 7.163847725812243 0.5435917459239844 1.2074162697921011 0.5148816628799455 -1.6882660398983182
P 0.6375949637483911 5.784893986673636 8.07009996000299 0.6869815383044103 -1.2642278794645068 1.0552534996111955
P 8.740217787126397 1.7479980110238915 8.039275066471713 0.2077749602285712 0.28878373597247037 -2.082153387780362
P 2.0921284013500157 3.2104109760656154 10.501840548661454 -2.9359936077149564 0.16537001289979908 0.22817692092369088
P 4.286927500708547 6.472508008426176 3.6591578066675456 -0.3996304210134085 0.4625563711136679 -0.9244298572276983
P 7.585908008912998 4.269310152651722 10.360557433412364 -0.8686145500302911 -0.8534386136208011 -1.0111217993993038
P 6.7117723641968885 7.904523305181642 9.943028106321673 -0.007757018237599544 0.48498924619588735 1.636267278233524
P 2.5496966589727466 8.615511740126433 6.111550044643293 2.4258435459827252 -1.4742535834004675 -1.0060351289050158
P 7.062561638405917 4.131705364778717 1.3277450091302074 -1.7251428583200097 -0.6259363501666317 -0.6181950156583159
Ni 3.079829443286618 2.2028790309647386 0.14429828702096625 0.383475665630417 -1.2954732106320335 0.34251850649176496
Ni 1.5460088301490047 0.9585604543286488 7.080812081442034 -0.8082846427919822 0.990292007138146 1.2095243172740398
Ni 7.07902210786749 1.0154023632606994 8.978326175229885 -1.9179941073592128 -1.3581772745294738 0.7699281545009709
Ni 2.7973870990002125 1.5879115194258369 9.170951926907456 1.2003886735213585 -0.1230689381387429 0.22460771551519382
Ni 6.766564685066485 2.133475424529916 2.4642588973933406 -0.34700508150820886 -0.3873631736102812 0.6032224535088836
Ni 4.542670544501388 6.689846326568772 10.383195816758185 -0.005125494152023431 1.004208360108922 0.03007599344977401
Ni 7.6928327408111405 6.158784395666589 11.420613488593721 1.293481119902669 0.9740413496072386 -0.1710207834276732
Ni 7.899622512392308 4.011708815682257 7.957854497494717 1.2525666410764942 -0.09284047827150463 0.8630023460498363
Ni 3.7189365475610856 8.397526663084129 12.330945769420792 -0.5839391797992394 1.2711174074954883 -0.2094245800168522
Ni 0.6738225714122957 4.863517614438037 10.177864440949456 -0.3367427803502523 0.3008499231083851 -0.07154017413183163
Ni 9.029674277226531 2.608378642520867 5.599281469881769 -0.23391433762810035 0.28657207303313226 0.46778265250961376
Ni 4.024926381365015 2.984947179915425 10.858347718100715 1.6076904950370958 -1.5465738302314331 1.3295536972555102
Ni 1.2039917928472776 3.6718597870865923 12.678667038032334 -0.7503286351024884 -0.6898912557520376 -0.468465023288619
Ni 3.6011626628523543 8.645453944398811 8.207449688028223 -0.5084119959952018 -0.2907223477560799 -0.8571744265141495
Ni 5.671401463695364 8.41917031302364 3.485357293611606 -0.46959810845179767 0.25509328569856066 0.15231112283331188
Ni 3.169237029210989 -0.07639497904785955 3.4688248608358405 1.152554841867531 -0.6133474577580275 0.28001061776553066
Ni 3.337722277224965 4.49688730182631 9.22165509186045 -0.19458083013580038 -0.11308560167378588 0.3025705053439176
Ni 5.500520474968385 4.6755658344708895 11.098570370156626 0.27847052697192043 0.401762893975379 -0.5198744881088466
Ni 8.532061623503592 9.420999848670757 1.7134738387718926 -0.15493699049193316 0.33452211854984965 0.1808251711126047
Ni 5.020470513620607 0.7879800718508311 1.2539826120825661 -0.7124863674437342 -0.42978046223422756 0.27572536012661547
Ni 6.210880369574023 5.509994126457061 -0.288245866751246 1.1613948087566643 0.6339363376529727 3.0316180764895013
Ni 7.941506983108585 -0.0675034105689213 11.42194617629833 0.18013817234790913 0.6784477898017864 -0.2671962396096818
Ni 0.38053289617135805 5.268479778457788 5.110117673616278 -0.14324078510092753 0.008367141017772686 -0.46931014489773365
Ni 6.976989059478404 6.239629258130042 2.265379624805217 -0.6146124405133803 0.3609602581367203 -0.3722903384375588
P 8.877667717234685 1.5770441480546933 3.573750105713056 -0.811279720864564 0.22618251620148144 -0.30706402233889696
P 2.0276984619467466 3.562949232087939 1.4135362107843825 -0.9756858271891972 0.687230421090423 -0.01139410076955457
P 4.941465725773223 1.4753117059147665 8.111616415796052 0.12589406629236383 0.04913018186774764 1.2815707416183284
P 9.033236005815063 1.447920100120107 12.744235637470299 0.4887484561280035 0.40229742632261034 0.04667297857650672
P 6.737442316019087 8.31643585005318 1.4180954055633077 -1.5061882273255351 0.634538490013346 -0.303451108176658
P 1.8343995344566641 3.6951704353168995 5.797307202907883 0.49604447556878445 -1.1030222823550422 -0.5284935972364254
P 7.278834170756038 4.374977803871561 5.522594082936999 0.6478532048443811 -0.8336951124452869 1.4122298333995031
P 2.6152106027290456 8.674594532006767 10.300149241251642 0.6502021646925318 0.3131827336421251 0.2147742743645398
