# total energy = -340870.74164581246 ev
CRYSTAL
PRIMVEC
9.22530181282190 0.00000000000000 0.00000000000000

0.00000000000000 9.22530181282190 0.00000000000000

0.00000000000000 0.00000000000000 13.50216171086243

PRIMCOORD
 96 1
Ni 9.283421252989898 0.618753910591063 0.4312505729930362 -2.3114644223084966 -1.2952657226069175 0.8834104773925431
Ni 8.923985042258515 0.5398895726546278 10.568641412816902 -0.3304700599676631 -1.7640030257203168 0.826679343249086
Ni 5.0575042062360875 5.445824837063976 7.391785101267798 -1.1600953732189505 -0.06901072284175858 0.09222058529931859
Ni 5.347270937386255 8.429093724444101 7.047223767241492 -0.4827284751861686 -1.8261211352073001 -1.1022239548234631
Ni 5.951057718253725 6.594550198289307 4.9374304449297775 -0.7060156721177261 0.7289871933122349 0.7588389865663447
Ni 0.31349236245140827 2.7735224244883656 1.0418862179549317 0.13449440636686516 0.5835152048879434 -0.934392624867365
Ni 0.7101849547093753 5.979932913048377 6.182747484129051 -2.0428844149774106 -0.5421327852864147 -0.060197495425502776
Ni 3.7588953658322564 3.8090348813942154 2.620945157169276 -0.11289868247396039 -0.689082129587181 -0.30271705822411094
Ni 8.460293695305287 4.762266871088085 10.128295614728641 -0.060183354358115705 0.6644535324052234 2.260135433017217
Ni 3.641936988961138 0.6322099358714078 6.277087265921087 -0.3091005931529516 0.2839670313101174 -0.14114122225942147
Ni 1.1847317143510572 0.26890094342283627 3.607358712561996 -0.1668057169050611 -1.6680245160404628 -0.8290265033250238
Ni 2.7213994690283707 5.190542284234068 7.08124944805974 -1.0630976782459627 -1.5795310018837443 1.043467305609545
Ni 1.536003532944018 3.5880427755456883 10.390061709699662 -1.9697987507353303 -1.2771109060747619 1.3193430752710955
Ni 2.3043420229336005 6.492868921283985 1.284150024812248 -1.730232357027775 0.6111283386195216 2.606420091419634
Ni 0.2884309074420946 7.8121701137403425 2.0427964126768265 -0.7295600350965694 -0.3339099388871475 0.814726541762584
Ni 8.077213035928954 3.5785222640351195 2.534693197510298 -1.7017355351396628 -0.361249764352681 0.1178341721023648
Ni 5.992922138055046 5.740471752893494 1.2515736389148435 0.6830444080335333 -0.1793323886171621 -1.5018626033669875
Ni 6.303787134539196 3.9074688521478698 6.208415041469997 0.6034672225298381 -1.5721971872264924 -0.6849555090133171
Ni 2.538397156203606 7.378857685783534 5.874183277926621 0.11490285738818275 0.9615740703781632 0.7535533126873732
Ni 6.390947786430529 4.487085342164866 3.854880941474568 -0.13923732036848924 -0.14088051239886704 -0.608081581373398
Ni 7.105272134080595 8.141070575343836 3.16446119598166 -0.05313133260734075 0.5461059110015498 -0.5605850784543313
Ni 7.2483381151909665 2.142474876650225 4.249643600585237 -0.5798878925480013 -0.967459839734979 -0.11486069129633768
Ni 5.591095665316815 3.0795072362931646 1.4113401839666722 -0.06088860795525643 0.9934583206812697 -0.0358666319896221
Ni 0.2413136007666294 4.144365378388084 7.999774007128549 1.4829639666902716 0.1072787651840217 -0.22403153129674963
P 6.507343419888716 8.819342443358918 5.114484283120806 0.5225916299296935 0.12790132653037975 0.7195587009094834
P 3.0807711026467963 6.878071400086124 11.154702698707231 -0.27717751919210976 -0.0491666915326379 -0.39417325455357916
P 0.16015400772958416 3.9472391284289388 12.30094184108363 -2.034967988343811 -0.1487761130968599 -1.4856160596011383
P 8.563598625436443 1.0935949573618022 2.665191549908608 -0.6506086561023311 -0.4063206885493905 -0.8819120384701455
P 1.617140062726435 3.947931026067788 2.4506018035449015 -0.10290531870667438 0.48013963141306987 0.28112390543436744
P 7.830620717442995 6.149798396036853 2.447779783708581 -1.8301109730929837 0.5018055464222778 0.5665294689632243
P 5.675525627860155 8.1011803701387 9.189813960164859 0.35871979884197575 -1.462061669319966 0.30827835436197226
P 0.17658796044753727 6.26890626823933 8.873917484050994 0.8699332688417147 -0.13453014470080701 -0.5891814020347853
Ni 6.209329268883463 2.0900567115309876 8.594679589903746 -0.3100063927966725 0.48005658478096036 0.6159262742287972
Ni 5.325563802130083 0.9977625217302222 2.5564990434962787 0.02582853102732971 -0.7368285437335246 2.1051850727888453
Ni -0.0026448940407753194 5.315923361695447 3.8838566920593998 0.4688650869405151 0.3257027204860068 0.27324296002439397
Ni 4.559319455660752 5.91291109509849 2.993389043511031 -1.5609563242053506 -1.6495922774772043 2.359975225424691
Ni 6.923930375589069 6.736260060027533 7.567124878374851 1.8578673172706455 0.39022326876689567 0.09425175679673445
Ni 0.7536840979987502 0.8090091557313405 8.502297417164563 -1.673845236487298 1.6047854055751587 0.35760291162871316
Ni 7.062466733490439 4.497048668164298 8.453163459504397 -0.605360325787493 -1.0442383794476144 -1.4906536220250457
Ni 2.4999184221817226 2.2849412131402604 8.463749493378796 0.5483561404883072 1.2828650349497195 -0.333574924145232
Ni 6.081817146694428 1.2356830564759338 6.49711901784689 0.059012731088782244 1.2609260687847832 -1.8344317119555245
Ni 0.6660326600489265 2.4852963187473702 3.7467281152205416 -0.2558581888890432 1.157341464622897 -0.00588936890124147
Ni 1.3231204674228065 1.2506557213806366 5.669531026717164 0.9271367146359001 -0.6499944195570999 1.5127939055675106
Ni 3.885088269856552 8.474712842098912 4.312779721395346 0.9561197321318113 -0.059158769748343276 -0.8198548641280847
Ni 3.547691305247986 2.2760203462500277 10.771241956894624 1.2660276516774067 0.342578670305739 -0.16824553467538123
Ni 5.887928977685099 0.4074668222901312 10.660807713492764 0.4899884991826917 3.554774834894045 -0.20689975671246946
Ni 0.15996212145107658 8.03115110378528 7.5374332443663565 -0.08916174386833675 -1.496648663266216 -0.6503451180282993
Ni 5.852531494481558 7.666539498715301 11.571500913819982 -0.45388455437128283 -2.5236886765576734 1.0382255975946313
Ni 3.5320175174025823 9.165115982048487 11.857463130486659 0.11872943022312454 -0.39177441530409945 -0.5701781214594052
Ni 6.182557442910914 8.425099168742477 0.7815020732012401 0.9900346397117014 -0.4121216115018838 -0.11232378380709686
Ni 7.028360792546085 1.4627085097352286 0.8451990923639094 0.8253637097614559 -0.30943792188771224 -0.051481198598427466
Ni 2.749665793900835 5.133354638057695 9.554710627062043 1.3917828783990611 1.8416269441523831 -0.6360204738755111
Ni 5.587977513291067 5.5663072792423005 9.87364499507555 -0.5811528753033539 1.1803842053749736 0.3759081376958042
Ni 4.404620368915857 0.8374848949558301 0.49671885011116007 -0.4440865944442546 0.25743273246501475 -0.9021702744985496
Ni 7.95166590303425 7.199158031021545 10.107191814213547 -0.9144532056309606 0.8043066319808406 0.0996076217920091
Ni 1.8727178252155854 4.648140661885324 13.191868909664194 0.19620216778930724 0.2356680870944135 -0.2804021967769945
P 1.9596201686550814 0.8221293800242971 10.57496074458506 -0.8532131278735564 0.6226129422203536 -1.066513903016363
P 4.795846969826914 7.739779170112983 2.357706704022784 0.8932824850906165 3.6405370661625303 -1.4519392361739833
P 4.700817135456399 3.470401726337572 9.019808252588243 -1.4104349462826096 1.6515085206633109 0.08311630900520524
P 1.6390778305288893 7.05349974009095 3.880197014814979 -0.5264804234611384 1.069518494170642 0.006262435969944053
P 8.272900138799292 2.297672129695091 7.821437851980185 -0.2265987778032936 -0.8307753676953304 -2.0142271562520344
P 2.131459866239741 0.5585486681791209 0.2497639772624445 2.318439825185065 -0.5533389384148792 -0.13253933952302335
P 3.8335465084131903 5.6661619464810595 5.405604366052563 2.3957197300141515 1.3868535594182436 -0.615749896551933
P 6.2635279172600065 5.5017393915848665 12.10177126423423 -0.7708388392406983 -1.1786926766051635 -0.4460192926905932
Ni 6.101042675752592 3.3608881680604754 10.861220015971352 0.05788427391129387 1.43179387157436 -0.9324175034188652
Ni 3.634759704120806 7.329539222086343 8.474901960786864 0.8695745999507153 -0.5880246627225227 -0.08895862671859517
Ni 3.7083960634980944 3.044487990465529 13.269370670517189 -0.5411452245621647 -0.3334234861690322 1.0604761814627155
Ni 1.7182216951114198 7.9716755827497785 9.637221726820309 -0.909161361104402 -0.2440696808945474 1.1242076581834057
Ni 3.0607706482331203 1.6477496142691361 3.986500168047814 1.8479397737442882 0.21535380101709364 1.627743299922913
Ni 8.86956498663754 3.5848784970106835 5.559096783315304 -0.32881324109053045 -0.4804466211305274 1.2803926621498272
Ni 7.936195071829577 6.604181413422091 12.849588992785721 -0.6029936253275293 0.7392705775161138 -0.0907663693512953
Ni 8.437747057580646 0.6352865740388253 6.0750550004374055 -1.5032659114724174 1.9580354395518147 1.4820062307626929
Ni 8.151827277302482 2.5856030257768436 9.864652170830876 0.8562501149276672 -0.3462520053922682 -0.4948350286417155
Ni 0.742138632731815 6.111236634298308 11.271888018003894 1.431548074112141 0.3389163909628034 0.6944811891155652
Ni 8.998221046256138 8.130636758949986 4.9314616746319695 0.03061721066522469 -2.525805208680044 -0.7938116459867878
Ni 1.2343730636130452 2.006816812926468 12.372003418714213 1.0624209638939122 0.15257466090734367 -1.1138139736539077
Ni 2.4510612235770974 4.268039775006968 4.646215341388952 -1.230303973023552 -0.7654924873271204 0.10359951656022157
Ni 4.285890734089285 2.8654894586442397 6.855209257038166 -0.6622968910735368 0.5448563548651648 -0.0927008673698468
Ni 2.2652359683858267 1.8315268524494122 1.936452668115845 0.8316037771338969 0.5380077073744476 -1.0423907847159144
Ni 1.0851169049604332 8.508809557741415 12.331376111891156 0.5094635771881677 -0.03632711656580841 -2.3518775360182205
Ni 7.45811225398828 3.857412364302572 -0.011478120563420484 -0.3932602558210066 1.508615348709789 -0.0864703130791027
Ni 7.990402945507971 2.121598018560673 12.066800912506407 -0.39528962754620955 -0.9736577410155748 1.0750134558469422
Ni 7.41012223375768 0.050015896517151985 8.307218261686227 0.28533742929508277 -0.23228451533416122 0.5291399725711726
Ni 4.287265304065133 0.6144180187209396 8.693245482473875 -0.5116744687965575 0.04081060625845875 0.30597901680483436
Ni 4.131044042514769 7.462411244650999 13.516339381318682 -0.10270734376325535 -0.563969678655848 -0.20149169832302072
Ni 0.07145273042907946 5.1400153059943525 1.3800424249058616 1.0790850548131543 1.0648246882393984 -1.4034891110923957
Ni 3.982424429689898 4.782313452011017 11.731664146851417 0.2722978225023053 1.0233756770659923 -0.07481653089025825
Ni 2.7637528298278107 8.628932213147538 2.0257563576272415 0.7177753837568154 0.4097004036549009 0.2955963880189296
P 1.6867172892891396 3.1480235531429663 6.488166784930364 0.5494388320295247 1.2190602817889329 0.500862208672402
P 0.6830321237703657 6.966800353292183 0.08719294044781281 -0.12501629167310083 -1.3400656525304278 -0.4897157051372792
P 2.2276428633416714 8.929086634182298 7.602703177494677 1.5947161942646149 -0.9000614556856629 -0.6276517901958416
P 5.456028020911543 2.196184584028648 12.355841612400875 -0.3632793931882002 -1.804180883490783 2.1461743707170133
P 7.6700082122114 5.47576094157153 5.781504050467825 0.8884809499369151 0.6055616431650216 0.030660919418966547
P 5.001036133604119 2.6462224842419104 4.347304491043751 0.690885758454823 0.17456247803234454 0.06231634154071848
P 3.7041616499483356 5.294963475889234 0.6427074068480324 4.123576644831215 -2.851721073618121 -0.7907877715587993
P 7.4378165899153625 8.942509448375977 12.333401065647521 0.753754887175218 0.6429028028176411 0.32341238178993337
