# total energy = -340872.5184918989 ev
CRYSTAL
PRIMVEC
9.19838463273657 0.00000000000000 0.00000000000000

0.00000000000000 9.19838463273657 0.00000000000000

0.00000000000000 0.00000000000000 13.46276569697826

PRIMCOORD
 96 1
Ni 2.530126098800622 2.4600620023621307 6.426962917226473 1.2988755514453632 0.8878374028156452 -0.1051408929054125
Ni 5.828298925239574 7.36945149211413 11.75941647507936 0.4959138635281911 -1.6595524740137098 0.339297428451306
Ni 3.1406780832041026 3.416684815215836 2.1485771004720644 0.4640717793169298 -0.8403552980742817 -0.6498280691825647
Ni 9.0603169687475 0.6340207431868815 3.2911884929184394 0.3623278279082083 -1.1934839759817253 -0.5104254268808048
Ni 1.5783048427725557 8.319846998510062 11.249917945247663 -0.9134471329639494 0.2836818959695308 0.24414604265843762
Ni 1.244044740307236 7.517747850625533 2.299615497469527 -1.2649742707122278 0.06518235023460388 1.9046801638591264
Ni 5.151592157905068 2.6029313138867005 11.098300050012623 1.0298358308690392 1.5838720524612595 0.8288059026737855
Ni 8.712213297273394 2.9614107633288547 11.107374256542302 0.2979332636822224 -0.47347738890154584 0.6995691451614339
Ni 5.2277363866457565 6.049326911759269 7.859670207565484 0.6683297275311779 -0.4024596629320875 -0.16616782621074608
Ni 8.552409759472958 7.04357111813187 11.002660764689061 0.5827770411703382 2.104262818084892 1.2818412216708956
Ni 6.367351865187706 3.0480227538848266 4.412919552042591 -1.6713985747190183 -1.8230964894483637 -1.3182148752039233
Ni 8.010477725106389 2.5159421895570677 8.781587514857625 3.1665369719882945 -0.601241675633429 -0.9900251266300047
Ni 8.665375122261603 8.979325191257553 5.481930988962781 -0.3651580982681518 -0.39579407798645383 0.16600456116000442
Ni 8.775001471395639 2.0854301893456046 5.164721012420842 1.2176358906375804 -1.2946255179197574 0.965624586298453
Ni 2.641996853807177 0.41747237002750565 2.6722107881082824 0.240915708646598 0.31989922643035223 -0.37218106655320415
Ni 3.261204518235421 1.7263436465117028 12.130759865557254 -0.37971439881577185 -1.3448412195422 -1.2646834789446866
Ni 0.8556401858442934 8.821361330401809 8.832678103127064 0.706049610679455 -1.4870185963756197 -0.26567183254535537
Ni 1.2895491495341256 5.032905399818438 1.7540905740299788 0.7094131278350492 -0.9545338757019303 -1.301486506705649
Ni 8.943184737679132 6.721967993046013 6.0270245081588 0.8048817877580202 -0.4046828958356514 -1.5427531709337625
Ni 4.431386229213382 4.352142144820891 5.097743893895539 -0.11942517073856852 0.3270713186987593 -0.0673670165907485
Ni 1.7782777266602812 3.0584445237764912 13.210944580401016 -1.2955593425879366 0.7536646414542569 0.4134783826400943
Ni 8.17881736393018 5.12472367612788 13.025427877944658 1.151488862496862 -1.6314230627673452 -1.3841428453553
Ni 5.035416558847939 8.54139009457427 8.611713585461962 1.1592109137314681 -0.735009745357231 2.4012591717751417
Ni 5.755935232620221 0.8542981415131425 0.03914096667520925 -0.3544083159508154 -0.2840115113948076 0.3263537238064444
P 6.778639241327165 7.184343197939493 9.736662239562376 -0.6662016254445816 0.17030678807978414 -0.7653194520843659
P 3.825387445248008 1.4699018788067395 0.9250263613286669 -1.6180615538587746 -1.0410712945735425 0.8753068744488022
P 3.3241214697437944 3.0201976400964012 9.934040259119616 -0.9155261269801652 -2.277757774084671 0.8516303567674687
P 2.5184165550476747 6.17501364062044 12.970566871777079 1.7597439933336467 0.4281033316421208 0.31559905639310165
P 1.6750074613701482 8.092361745914507 6.46157551910233 -1.215779297044816 0.29312272966745645 1.220676220125801
P 6.865931912352672 0.8971074240160622 3.1164688544504635 0.9919881638936464 0.5500877784674333 -0.09556147674709349
P 6.923072278254721 5.976834441753787 5.794764374053306 -1.2071866702797984 0.022234128807852027 0.4211497831424231
P 6.357527990303065 3.6377220001202537 8.985399804528917 -1.01038620678486 3.024221012694482 0.4746742374231244
Ni 5.577744123757617 0.19957459382920018 10.985778049367646 -0.2726019840062854 0.18110773535003005 -0.10819639190228462
Ni 1.3994698469793103 5.769144113083091 7.3952318049785335 -0.11704690031437906 -0.8651430465419229 0.06494529452313332
Ni 1.5280816621825382 1.6918497037987785 9.15711709022316 0.39364206464045753 2.4354687277773155 1.826068941813126
Ni 3.4143024335724634 4.342631015016848 11.76060122703174 0.6862294906297343 0.7079594261076582 -0.13643970301869404
Ni 5.9991589214775916 0.07645053495198033 4.806530392259004 -1.0133972256970418 -0.3968315181120327 0.08468339638200899
Ni 8.667996661907786 7.032376683923435 8.396511855826098 -1.594722622022518 -0.06230091492175077 0.8083008407418981
Ni 5.717651555401237 2.3638744933090514 2.080387634840211 -0.680498501683228 0.15136212865648127 -0.38622417490983163
Ni 3.2628050371773005 7.110222613837962 1.60908355789568 1.5854854196949664 0.6354661440339379 -2.5802552600988076
Ni 6.249161819876142 3.5694975806264515 6.639970832105793 -0.5345266908043826 0.5881784146915677 1.1592564222574229
Ni 8.086907103773505 9.164829015975299 12.660263962323976 1.4373698230002407 -0.9189811754083012 0.8005687622049632
Ni 3.076390572371935 0.04558443517398348 5.2074649863922255 -1.1025522846971592 0.7856761613638469 -0.565369130106536
Ni 1.884224721904937 4.167089040954596 5.100005776699035 -1.1582007272993988 1.3867332317902956 -0.4265994934030846
Ni 7.49467830173913 7.141865057286618 0.28484270037707626 -1.9104710595092904 1.368924999964281 0.1626083909942619
Ni 4.9458702835651875 5.844055758270838 0.2535829097329159 -1.9685399386275644 -0.8225331822911962 -1.9184774747535347
Ni 8.021203041693926 5.038985532120636 10.352449944550441 -1.0849379140495057 -1.420324951702812 -1.0362448197191767
Ni 5.825594600130881 6.70415992022142 2.155321356151295 -0.32073689184029924 -0.6256653558934322 0.580225221282762
Ni 8.017192545954504 4.926259327334799 7.603177848744542 -0.18730100864493548 -0.46453792032007096 0.5237283146372981
Ni 5.138245301671346 8.866461010700865 2.3912700425308917 -0.78390672816825 1.3589766305023174 0.25596488967023656
Ni 8.368285692463731 0.477578295164394 10.353351386253339 -0.303003222005962 0.3934937119880514 0.23950982943800686
Ni 8.481453419716292 5.9743968698020735 1.9565433424391454 0.438067127723052 0.4770442803171978 0.8686412895031684
Ni 3.0023435753481915 4.9135563580317205 9.343065196923048 0.4085976575090253 1.8012853071105432 -1.0375000322825165
Ni 5.583594296441729 5.437514748648677 10.287545222103331 -0.5515365950988179 -1.4371181120007508 0.34695160256245405
Ni 4.447363823478009 3.073437890875709 7.999023896448753 -0.9761661092597251 -0.7540577631276174 0.3000022303961092
Ni 7.088634004892033 5.419117979201784 3.643212515961679 -0.7961773180054869 -0.7253297990653057 0.8456772245078275
P 1.770035973948073 2.393392109886591 3.9056019592288225 0.6901434809721598 -0.7007217707086383 1.4744109349139383
P 9.057309096942932 3.4941720081261485 0.9288998011357101 -0.8696486477217603 1.9260414031437216 -0.6550445803864976
P 8.928991630050856 8.632757650032262 1.3317945710534977 -0.7395102043307458 0.4575656027672959 -0.5901280822187708
P 0.8544397966378837 1.3650218961900034 11.736327609585038 0.6395521411778534 -0.29028963109403555 -0.15618448974578908
P 0.781919731478232 5.757581743485718 3.8132207417743054 -0.17085726126661543 -0.036958579502220215 0.3418453916841403
P 3.5891913223193503 4.796230960884161 7.085197488359354 -1.6002402094066375 1.19249744369874 -0.729533295623692
P 5.0465741995174795 4.428212786483793 2.8442647346834025 0.29244910063919954 -0.05614723661552911 0.5285043958697027
P 0.12502628483802858 3.1864676423574188 7.009604242863599 0.8910337982657558 0.29140137610097555 0.3088799925017132
Ni 3.640987426697077 8.534840844651175 12.561164244667452 0.7076277537998523 -1.0585121157578095 0.4670272624008279
Ni 5.204427679756543 6.94057680438344 4.509286429597777 0.3492753655996243 -0.6901465662959534 -0.11014785920170062
Ni 1.029841955252339 0.9540104715922466 6.856303963062641 -2.2326336280525223 -0.4380041356956005 -0.11832988079186073
Ni 8.326295066201197 2.916522645878436 3.1267544882482214 -0.6017710657743377 1.949459782067662 -0.919182749896146
Ni 3.545977310888599 6.925647825977287 10.564218837007514 -0.04526915625044462 -1.0210280027694223 1.1737420174681077
Ni 3.086582382645514 0.5108838065710488 7.8495998159702545 1.25356911419908 -0.36362829188718665 0.15665088785924633
Ni 1.1029783121884615 2.1764666029535538 2.0027477487434893 0.5257785122981073 -0.4651500999827731 -1.7878795752275984
Ni 6.643009058579948 4.656084371237731 1.332253570451198 0.26310407181817913 -1.7577578161415532 -0.24888947088069394
Ni 4.402871236570698 3.2685448292447314 0.05557296114517396 1.7817431233125574 1.3316892555412743 0.29886451724724017
Ni 6.890638773719849 7.876788401535817 6.8876318217537555 -0.14612042064156772 0.10360517298717642 0.15182158479140304
Ni 6.716448962211944 1.20965197982627 6.61977669828394 0.36136263578146155 0.3952268926290742 1.1080287344306983
Ni 4.078591381530318 2.0854945780386687 3.9705195594145453 -0.14201796843741993 -0.5823209274695261 1.1067436970706874
Ni 0.7610081236479488 4.20780109174057 9.087729994900315 -0.6759221951664554 -0.9188832163778562 0.25702032751794446
Ni 8.022030896319038 1.6193848289474677 1.1838311940690833 -0.6224131675047216 -1.1806695978258763 -0.8786853040027318
Ni 1.291683174789965 5.231691692076839 11.532528197652358 -1.8393479183102193 0.21812210779085017 -1.031014938778805
Ni 3.075084401741206 5.468366131011115 3.2159723811963454 0.4089853798657473 0.6973276574254248 1.7042678146432133
Ni 4.509922037982167 8.018425129507445 6.546040606663848 0.3798416684222555 0.13477157128765174 -1.0619188274465132
Ni 2.791369423331224 6.495025445149142 5.608843862507589 0.6647651501083713 -0.21000307822814154 -0.882144723306242
Ni 8.001638077387156 4.128207468728588 5.331618344519999 3.042195080674399 2.282688892837701 0.3085889436238556
Ni 0.5662626817985581 7.057598654835125 13.435369530399079 1.1738284065343267 0.09329453508978772 -0.9103762073481096
Ni 1.6578708706303675 0.3576451559477377 0.06775254235748937 -0.6244245415077956 0.01919559909184436 0.9725825056735249
Ni 7.494669103354406 7.855245784513507 3.357506087259071 0.7068139996493054 0.7066821020571313 0.2560188828366236
Ni 3.051251386922756 7.145388038635698 8.22097080160232 -0.5132101887147936 0.6818635003515546 -0.18000087543909643
Ni 5.934466681717592 1.5808068034173333 9.12900682650831 -0.08549277965718179 -1.5153120440036743 -0.7679944278133677
P 1.1062897306889021 6.512437987430626 9.649289542589775 1.3233077163457982 -0.5245384692434193 0.3642970358194371
P 7.008598859413326 1.5685269598115323 11.94082701859517 0.23772085585838412 1.978298303565909 -1.2910324012518604
P 7.929209996074738 0.1490221110660833 8.238324474221573 0.04696505589562879 0.49101462645436084 -0.6506238256109828
P 4.493907650178647 1.4222634443240105 6.167104869435222 1.0131730255013778 0.14030149996694546 0.3840405369949515
P 3.4115613149248767 8.994622105052645 10.271767232787203 0.6462763472755644 1.202763344401122 -1.2118231406105453
P 6.128616988075376 4.644190859790315 12.384505586699776 -0.3310444444138944 -0.46094840319659963 -0.64636762143779
P 3.3300084359668003 7.761339474871841 3.6945864144805998 0.2628644450035473 -0.3239790529266808 -0.5776371488406117
P 5.405347997270784 7.915807949532677 0.3812988022640802 -0.12622213905574392 0.5532237529932537 0.43864973969939947
