# total energy = -381170.15888096456 ev
CRYSTAL
PRIMVEC
9.18996446473579 0.00000000000000 0.00000000000000
0.00000000000000 9.18996446473579 0.00000000000000
0.00000000000000 0.00000000000000 13.45044192998246
PRIMCOORD
 96 1
Ni 0.053874328628691785 5.493356393185659 0.04068213465252423 0.1684273116688841 1.381126941347112 0.41254275819970243
Ni 3.1062539358512815 5.526173756256989 2.578463249202675 0.4729192024052307 1.3877673294817647 -1.4790661742977624
Ni 3.4727037685226025 5.235835209207834 9.744535617776092 -0.05131664799610518 2.4842119586192895 -1.0011369202724498
Ni 3.044478994780018 8.967126197585122 12.320456922810317 -1.1667625008264808 -0.26836660576869914 0.9416665328209589
Ni 3.538549863847744 8.930412289584574 8.428585090516231 0.3700161976914015 0.9304585799202814 0.9157169028347325
Ni 4.330393961209291 8.884986295280013 1.1948929634777221 -2.269688109702659 -0.6601281655569922 -0.5375557074386935
Ni 0.8166082945803413 1.7908391835191886 8.940051643302164 -1.2737319623002 2.298070003279461 -0.5825433278929774
Ni 8.189802244063593 4.030497851126201 2.4675238362862704 -0.10488969612655484 -0.0014992102533458052 0.1645187206430973
Ni 1.9692807233556537 3.5885248905578795 12.826542751407436 -1.8262594605573774 -0.8240827861665033 0.29620805346099954
Ni 1.0019634446768346 5.1940852006855565 11.366672785788973 -1.738306392285161 1.5631816139914432 -0.0768153064878419
Ni 8.371037533094592 6.258889622310517 4.0235649419408155 1.596167839109477 0.9775642751588326 -1.8894186097143653
Ni 7.676404879745515 6.020492754365018 6.281692681114463 -0.13256582188558458 0.7781785674352212 1.0691497979773135
Ni 4.985748706474677 0.041352083061345274 4.814747361861552 -1.195435186170825 0.8735112160009602 -0.2613369526154274
Ni 0.21689878409426247 7.990894653384268 5.626978476371639 -1.0081956268914445 0.4080461558809295 0.0816878040887948
Ni 2.2922068843647456 2.479994618052665 6.127146886855727 -0.6626948978429038 -0.3398029073328148 -0.23827261459679608
Ni 7.232272277530102 0.7913211883840177 5.09584815663983 -0.6839203828805834 0.27782235186496024 0.6559922890117477
Ni 2.2213430684467883 7.556972101679146 7.149972469843463 -0.5535960487310079 -1.2743315435574118 0.3244184544569445
Ni 6.862854086339588 7.0336036259266255 1.8197912475404485 0.9951866162262861 -0.3880820540541768 0.2257978791685531
Ni 7.881258377427682 4.415502222033595 11.344492806575126 1.9892478605988773 1.9537434970446803 -0.7025048307509902
Ni 2.157748514413295 6.780401725242984 12.269923146261275 -0.2634388294497786 0.47631537257097323 0.6606971506865846
Ni 1.3711886466137793 4.00091535554328 1.4588480415709872 0.2723926962089567 0.6111067413529669 1.7210915710687715
Ni 5.009164735907818 1.2125147203215403 12.552571531053895 -0.43765497988629787 -0.8221889115779002 0.20457290835150574
Ni 6.777185237683486 4.823113905502027 4.449957236770932 -2.35318391353447 -1.3317347640672292 0.28305017592280285
Ni 1.6251073645249665 3.4704522272309544 10.428060361087555 1.6769925238670282 -1.5084009187061376 -1.6412634458965345
P 4.468822395805607 1.1564007973549926 2.689806101558686 2.4260649179649123 -0.4610517615436834 -0.15780762717150887
Ni 3.097293720506967 5.1233776141633465 6.978129324486195 0.02665642624526377 -1.3421474747601208 1.172623073372316
P 4.934468704811831 2.297941422185107 10.658170638083343 0.519619434675247 0.8770071449693605 -0.5493123337539895
Ni 7.275364020862913 4.234459922256165 7.727373341613313 0.0932647102931168 0.06814194708356007 1.152782127386989
P 7.770675535132159 8.516009222383373 3.172918857009426 -0.6637881309070827 -1.720283216234863 0.27211630261911846
P 5.39368203869906 5.447231961582465 6.429674083762486 0.0029122885507885327 -1.1082673328040655 -0.14134253963695012
P 7.483231826886552 6.8852684096470576 13.004573499832729 1.1737584725283399 -1.0040286399979483 -0.21069187676505002
Ni 8.117550743512824 8.414101706534037 9.350935873113276 0.8474212037821276 0.6362672997789944 0.1237793339422062
Ni 4.344665976009004 6.471471880099933 12.01909960837877 0.9163200836363703 0.6262435969944053 -0.10534915226147663
Ni 1.302475282378457 9.21064187573245 10.0450189665879 0.07298847654258397 -1.6480578431105486 1.2300180663520173
Ni 5.635635422888916 4.682966947552494 2.2811550331103123 -0.2144634279923403 -0.35087510598657634 1.1962437981150496
Ni 4.711097428751414 8.525658685061865 10.639891798780942 0.38159130412351056 -0.11719705273899816 -0.09277157270678216
Ni 9.08547455984572 7.480502407443207 11.518729937673104 -0.34361431065910497 0.03836677270365651 0.4694749526103721
Ni 5.938159862806338 8.237810618380207 13.077326772442781 -0.4393832754313142 -0.16505351010064478 -1.4657774276086564
Ni 8.174133354666612 1.3280601434231458 3.1580697124418946 -0.6709707646984509 2.1196120468474526 -2.1308261703957174
Ni 8.723674849188987 8.544479732267153 0.8834119842017675 0.06633600422307284 -0.4225628614398658 -0.6016453388297509
Ni 1.493782772452912 6.951472913585971 4.064951946867093 -0.7001134477006782 -0.6404322297899615 -0.705373924768669
Ni 4.737270447521268 3.824605887460539 8.55230223001185 1.7268598410111164 -0.013415502074957541 -0.09294563639080122
Ni 5.5812032634177635 4.875285333717077 10.938006893752517 0.8573135231951752 -1.3273870286214948 -0.7578907637204626
Ni 7.356759536047111 8.52404125131766 6.928551304240547 -0.16683142793667396 -0.5604696359223895 1.3086375159281334
Ni 0.41402168367628883 0.9965137957546004 5.010895206214827 0.26259987848825095 1.535844359629071 0.5521631729392232
Ni 2.069276726598203 7.760603334088704 1.1682641224708652 -0.5771972330897157 -0.4717143834638521 -0.15289553458187216
Ni 5.611282017081293 6.203290337353489 8.716196056114931 -0.06173321534373885 -0.7455332705963741 -0.3615896641906031
Ni 9.085382660201162 1.9252056538260824 11.07193316476198 0.7540407938467529 1.400848588145755 -0.4557627452306021
Ni 3.0868631108497393 1.8897232010625973 0.4850472429686668 -0.2440406274288249 -1.5141974707832568 -1.4620354440677208
Ni 0.8018731055720605 2.678415140615837 3.35034398677709 1.252780042638881 -0.34594578700575906 0.7796741781441412
Ni 3.57274572158743 4.069858468889994 11.537802789904477 1.9366724004950067 -0.9108616316249604 0.5226011430113903
Ni 7.051882465229027 4.6823604098984175 0.43975726013805105 -0.6464506680698996 1.2669730463098117 -1.1075667071926152
Ni 8.827264128533717 3.073629562033521 13.404723851159574 -1.074217699418524 0.6495809861687651 -1.6751135616767605
Ni 0.74383020906626 8.939409264786711 2.9851375562966265 -0.6098139906834724 -1.16331773681099 0.3719044158530498
Ni 4.801545058924483 7.412790749333556 6.841298105712281 1.5889309550414052 2.5469677016902716 1.0051329288057205
Ni 2.891116867943178 2.5741090440435612 8.356799521163365 0.22104648052649675 -0.49266553179422246 0.19015184783016928
P 7.0474437123969205 3.0392315250758095 6.077501779869552 -0.2861432130258298 -1.507917808422132 -1.9198938954850868
Ni 5.726027913275251 1.3495738502139563 8.135284617923002 -0.48459972406695245 0.3965250426152074 -0.7864302659210521
P 0.9078673986148497 0.6510584368823423 12.803865595116534 0.673330266069563 -0.8666042044684817 -1.2738929133580965
Ni 1.785407914525866 4.621936393602144 4.152595718884726 0.3801543145666679 -1.1722651758122649 0.4698721880487908
P 0.10643265434732632 7.459181689905966 7.764214071123352 0.18439411941078565 -0.15483877435117202 -0.4131413110156497
P 2.732323472113015 7.60816939366189 9.99648952128665 0.1846399168730046 -1.4909896652082257 0.9409617934444504
P 5.97131725456253 8.435964631974164 8.73243012832594 -0.31397977562212376 -0.5577440094611105 0.5191016144985641
Ni 4.924699772595414 6.987708943434825 3.431476668977855 1.339544489919635 -1.5219945982301724 -0.40257561968466155
Ni 1.4013776798507769 5.6524990076651385 8.973139191328492 0.43494118049956065 0.6029056935994133 -0.8982064047547951
Ni 0.8546529094340776 5.79008196553153 5.905672419458968 0.6054526283909831 0.19221567233773346 1.6575423855622162
Ni 1.0364533812791035 0.4061238282230541 7.314000469427597 0.7708349825859564 -1.3378997552273604 -0.4281303282253142
Ni 2.5934998690451034 0.07406651853077145 5.429526576062099 -0.9826326908206755 -0.8353357333725032 -1.0050452541879207
Ni 7.954869992717897 0.6133694736530418 12.28829664219757 -1.5494007581572669 -1.8196062169069178 1.819836073529537
Ni 3.4314408281164774 6.6573113413232425 5.405988320101697 -0.9154685342693524 -0.18792218716870215 -3.1153416800614027
Ni 4.317748570118238 4.525414196923852 4.536296033835854 0.13210790841255957 0.6245407553706857 -0.2341997300790031
Ni 6.72284497785689 0.8810575153082153 10.280387741245244 -0.4803342639223792 -0.9540098848776601 0.8611758343640589
Ni 3.5186444008366826 2.2495470693613533 4.263467126064159 -0.2837358891359178 -0.04624643256204939 1.510888718124998
Ni 3.602328217170351 3.218702340931314 2.2505147726185393 0.07004353498164712 1.0165316575609655 0.21975810073237634
Ni 2.961530375602806 1.6196117657804538 10.85632281368441 0.09652358355004666 -0.14350355184401092 -0.11941822876003305
Ni 4.788623968899759 2.9181537433718683 6.248981002634373 0.5347948568641048 -0.0654191488357583 0.38333579761844305
Ni 8.262954361131023 1.5525801650405262 7.135715158986879 -0.6158918214464361 1.167008812509332 0.40064112166611
Ni 6.605351282290674 2.8730769677166252 12.178783511764692 0.09915742162846794 -1.1658379321296826 -0.08616538024417418
Ni 6.4144665305811825 0.314678167910095 1.5017550666182378 1.9648833157115835 1.9101455578490718 0.932731178004542
Ni 8.331263366930292 6.046481973845758 9.094462345083402 -0.8378710981998473 -0.810317871171927 0.08263397005214801
Ni 8.85804131949588 3.9413000561191076 5.168641865093486 -0.31156216731956665 -1.0209536978880611 -0.34003533505859507
Ni 6.784537209248052 3.051169288903773 9.69591243483739 0.7632471429363694 0.778818257901749 -0.1423817795347419
Ni 0.6965395709736367 1.6368429491349046 1.146424171941877 0.27349698501672903 -0.9601599636394562 1.7853858622714671
Ni 5.880070097481814 2.3959156332474003 3.6605916728230885 0.8983419018913948 0.6876909056666092 0.11211192490660693
Ni 4.853495927992595 6.461702947883517 0.9918085339532784 -1.4507560144991594 0.07594036008205632 -0.7932457461809888
Ni 0.8840350637918644 3.888512900285526 7.243022697950388 -0.4676589824475559 -0.34154405839363755 1.2135918024751937
Ni 4.8513362863455045 3.4381311222402324 0.16950613739618092 0.25188506317390813 0.757143858252109 0.3630014569364652
Ni 2.47895615206917 1.0104733517628195 2.587313184973521 -1.4452294282539755 0.5736923052602507 -0.3889264043323431
P 3.349843133714254 5.127834746924364 0.1455662799890639 -0.23538912240141396 0.1577996567517089 0.42652570274235574
Ni 3.1005377779598313 8.11567599076386 3.335023397032981 0.8694288184014705 1.3980334872944633 -0.6783534303157673
P 9.144510891509182 3.8537840246074095 9.262754488174984 -2.040741400492479 0.3175818911510853 -0.2654363194957816
Ni 6.746748075406185 6.762040176260481 10.647490980389366 0.24013949260220577 1.6805149351979898 1.9127020057223378
P 0.7127837521455446 5.9772723515298285 2.2618129149203856 0.14953870229449728 -0.29299288895781156 -0.10320279534243516
P 6.96997231203531 2.515908999145568 0.961652584588321 -0.37707618986197644 -0.2508442806142196 0.5858813911272749
P 4.042555084492089 0.8328212298730998 6.669132392602618 0.6042318686100046 1.5161846764166145 0.06759378788957392
Ni 6.56271903718065 7.644249194114996 4.907514539063242 1.0230897703944573 -0.5712024489588614 -0.5390518323682458
