# total energy = -381179.64630451036 ev
CRYSTAL
PRIMVEC
9.06371878736571 0.00000000000000 0.00000000000000

0.00000000000000 9.06371878736571 0.00000000000000

0.00000000000000 0.00000000000000 13.26566862005420

PRIMCOORD
 96 1
Ni 5.675075221486022 4.382697706746696 10.121148261771026 2.445384958449763 -0.9806154032803306 1.073523244454661
Ni 1.5432703106653456 0.7354228802138827 1.1297852786366678 1.3705234547996525 -0.4518690666031508 -0.19719178539608617
Ni 4.069192742392623 6.124735367387028 3.2121619490636286 -0.6581422454752149 -0.5990086725378522 -0.07064671578328478
Ni 4.2599477650817965 2.3272094640641856 0.5143007745627306 0.3066973830280976 1.3712580189728318 1.3805965227649384
Ni 3.3064173720394554 1.6449924250643093 7.721547783228263 -0.2993476275312458 1.101577579488716 -0.11639846809710275
Ni -0.03813740895986101 2.359820723763684 7.4052412234397496 0.9563642440424498 -0.6356841735820148 -0.5421227579840857
Ni 4.946551643907842 3.1587784589640995 6.466031505863002 -0.36697535398254866 0.5775469031196505 -0.270811724875082
Ni 5.847539659941291 0.7668504182578075 7.479409633145419 -1.434179083977085 1.0717908351445864 -2.271334901277463
Ni 2.351772141603274 2.2988400246924705 12.324257290091595 -0.7361654562282289 -1.9529317997766624 -1.1306179325851238
Ni 3.0013054111544584 7.566664239836673 5.132925265002036 -1.8081213561957699 -1.0497845060768243 -2.1691044971506255
Ni 4.847974639880119 3.806834342375479 3.9187051025458515 0.6082299340258042 -0.30367170882789635 0.5325693099676957
Ni 4.865875484212112 4.605574548328315 1.6005294468592344 -0.17102489719273128 -0.05255463416826433 -0.654013568018822
Ni 6.81617020825305 8.700771099525237 5.3470855283588055 -0.9834546725013386 1.2629204735069928 -1.2016549418282916
Ni 8.42885954005193 9.196955313252126 0.7942736054025553 -0.4866159831660329 -1.5635955616004102 -2.0877375667363594
Ni 7.629022624142551 4.775075150785326 11.860396109811163 1.963146535526135 -0.9180728046614188 -0.21276701412652385
Ni 6.613269802574068 6.550240703088156 10.678199878086016 0.14687092565434703 1.4801673777817412 0.02373282484056558
Ni 8.645763391043786 4.871567499523753 7.192738714223902 0.1418631880271105 -0.7067291532449829 0.3334777364457353
Ni 1.5224328214910412 5.545763147519167 5.8173937317143505 -1.3785969758364065 1.7587037249945905 -1.998694093613442
Ni 7.185897419387553 2.578836421200783 11.252536912236721 -0.06961287520213173 -0.6955929341225052 -1.551136252791135
Ni 5.444992723578359 3.9519988602596285 12.519700068066088 0.13679760057874507 0.18147668865367456 -0.4476216041807065
Ni 6.1586608662906475 9.21462956461789 10.133033516035605 -1.2506948779750782 -0.8031277811813909 2.242663501484699
Ni 3.6715674052561584 1.1911810960220106 2.7208413267638525 -0.13397658619018218 1.2089730727562598 0.574698892147894
Ni 0.4338783989891757 8.807369494557422 2.9972049848376012 1.0893404139925755 -1.5136801648272062 -1.2716771366537
Ni 6.55601429186764 6.044430820155911 0.13042509861696602 -1.3084706513329658 0.4915201053358696 0.9615000226071183
P 7.856268178113043 0.5102637942764169 11.873503153349642 0.6074434335687668 -0.5603482798531769 -0.4472824756737329
Ni 7.4185268222356155 2.977685360354877 3.443674701774121 -1.9503768945652926 0.7049368372312506 1.3735491289998538
P 3.532910637362071 4.749687674849168 5.4444561514343315 0.8485308919065386 0.0972496630827938 0.679568533669791
Ni 6.65858839581962 1.6305357938189786 0.05695096975981906 0.05603359385580027 0.5665142994545727 1.9620587017785949
P 5.607985576045308 2.595232688237023 2.274744128663811 -0.11115573164092468 -0.6249657587232462 -0.7511187351039516
P 8.350467437455777 5.715173112789685 4.397608430296347 1.0029891429898403 -0.5877570108834329 0.39595657170624715
P 0.36152635850078857 5.539273524966404 -0.0940868378089534 0.7167279163289076 -1.0451578059380902 0.430525053709736
Ni 3.162730240295111 5.9967375326242935 7.3427070029920785 1.3887569470885437 0.6920836354176662 -0.6419795196724234
Ni 2.9120368461793724 1.1074776542974778 10.10692728721057 0.1513132776964168 1.076760520445036 0.7384941043614056
Ni 2.491489364579308 6.020865151668226 11.272647491175368 1.259410146360889 0.1982667636278198 0.9376201306657271
Ni 7.361561350525958 3.8118193876324895 1.1138666695732355 -0.28103108861024506 -2.0147838000864526 -2.6651754550819713
Ni 1.8571378237653828 5.049225448764963 8.972832210356254 0.7093128548117591 -1.7854835641915958 -0.8472108875435346
Ni 4.8443038338272295 8.422723402526483 3.7942865302776507 0.9466729848966148 -1.180631031278457 -0.0783613108187231
Ni 4.713559692313815 9.205837757528252 0.8013297103708876 -0.02489367791788616 -1.1822845077214799 1.031594722541675
Ni 2.845608852200044 2.266745396955971 5.090236056536591 1.5213682775000832 0.29172559220961375 -0.6591362339573681
Ni 0.5537560482141722 1.5913714655361735 10.695126372663228 -0.9194802265319069 0.5144276060616625 0.36635391834846587
Ni 4.221943592786078 8.841730051956198 8.748336588623902 -0.4595551223934989 -2.362073502714616 0.1377180555104854
Ni 7.143986784354068 5.259286192176741 2.6054565628732194 -1.5836787055035306 1.846399425840362 1.8537306693944526
Ni 0.40868307388837916 7.554799832124987 5.144002035563113 -0.6036320302424766 0.6456001471441463 0.5263408125594806
Ni 1.3628297997988594 0.8442835794208858 5.948551178798165 -1.9703458814880517 0.3436968430705823 -0.03964769629860914
Ni 3.05222538252516 4.304894745862734 12.827357121147754 1.1112223016673315 1.6340612717211405 0.45353462723103183
Ni 9.015961915548043 2.509444591223195 13.046545935611052 0.1636545728705891 -0.1055692386920827 -0.5588832652718762
Ni 3.9225961569619145 6.783649585740042 0.3840061934943117 1.1949348494956389 -0.7821321527663303 -0.40220178128501055
Ni 7.320946827259295 6.790828050910138 6.269434916504478 1.237477865064172 -1.3636994898992836 0.36398773210913443
Ni 4.483350302345064 6.343352261203567 9.459337278937758 -0.4726294390789538 1.0856673360163624 -0.36340100636772904
Ni 5.26031039238409 1.3882354031723154 4.732859068433366 -0.18329522991965205 0.816552025007097 0.10093791056765841
Ni 1.5426086592039603 8.366174861874685 11.086384447448694 0.7983977226955734 0.12014173718961889 0.5845302764160192
Ni 2.2438776348042664 5.265322628797048 1.4664534823704065 0.09964233168468646 0.8741097688169075 -0.315543777675134
Ni 8.82633079397136 3.801169518219785 9.43724990296174 -0.9877612702964925 -0.17592747670067121 0.06622184724271175
Ni 8.618400024442122 1.1441494599517779 4.382990464859062 -0.11591998579878746 -0.8589957959936044 0.9982153757502809
Ni 3.1811477165901034 8.008284867295918 2.2584801919198476 -1.9341187808352174 0.13317748732765453 -0.23660216887290864
Ni 1.0332548622799143 4.06209585069037 11.38329646207184 -0.20479145212021502 0.34126869324506387 1.0923874283490154
P 5.2004989130186114 2.1226503978724174 9.585692767881271 -0.11159924693624651 0.22847208356660653 -0.10442689755752338
Ni 5.9023570303311095 5.315789414235294 7.650058608755271 0.7750289660626458 0.4840657059403535 -0.32596420167750956
P 4.770497972867526 5.9894321753931115 11.740647165390984 0.13155743522572824 -1.4637681104881113 0.5309577425062018
Ni 0.4861778683382714 6.152579111077095 10.228401057289677 -1.980049739039377 0.4797375108786448 0.1059623603654433
P 3.4838849831890335 0.41431980051626077 5.9676937525850855 2.055879027464866 -0.269982029884935 -0.5458400589346728
P 1.589857824521772 2.021870910212961 3.2505395465676914 -0.6998985034763946 -0.43628509612196475 -0.005711962783112743
P 2.4080578344142483 7.2804591960537195 9.418929408456295 0.20648503777255406 0.4609008377881159 -1.1748995281113184
Ni 8.586024421427501 7.110586981132096 12.048463739920875 -0.7796872907702637 1.683161114571585 1.4254733286729708
Ni 8.453268134373984 6.950032268981758 1.3891408686653617 1.0951727044036363 -0.7036672264902075 -0.6356731178384213
Ni 8.700680462338745 1.9150821770891444 2.0557936900009857 1.6610097752855262 0.620386623992996 -0.19236222521792676
Ni 2.4290494068055875 4.035276307207653 3.6993567666343306 -0.45175850916721555 1.5129139760851429 -1.4543817841772049
Ni 5.794834135996715 5.923611450563273 4.73479598510868 -0.9914081230204603 1.3357629113900156 0.12797331741889575
Ni 6.104024770273811 8.252597403482683 12.57784382320013 1.6391014052482094 -0.09720132634336162 -0.6198222668490938
Ni 2.18364016066228 2.916795298470155 1.255839852121033 -1.287312529198112 1.0466480173303716 1.9385691032970873
Ni 1.6886251666411258 7.5429082332573545 0.2666292242446047 -0.787551781120005 -0.20460350447912504 -0.018870868762573954
Ni 4.920584089978141 1.3260492295207702 11.882430916219013 -1.0514860621489632 0.012707420264339405 -2.2332725471881023
Ni 2.1608267808224695 8.283595321262641 7.2349366691385635 1.616530204815913 -1.4623092665543977 0.65222587999078
Ni 0.8773734034650573 0.29647061152493515 8.68070855829543 1.5224273148922167 2.218915764245798 -0.617241136385479
Ni 4.137152504823652 7.960954128510265 11.222689180353337 -0.7148952339955429 1.5667269081405404 0.22402664620074322
Ni 6.416768382261359 7.670344117463845 8.284622240585584 0.6210340277690078 -0.2729948485693299 0.4568269248290584
Ni 7.464987444030955 7.464987444030955 3.415856336496272 -0.5483592258121008 0.707279369321498 0.7382742750411156
Ni 8.614765473263828 8.330699467082066 9.931063954261887 -3.344691281136956 -0.7472489677359002 1.2073154825481789
Ni 1.9567390280004548 3.6585881601506327 6.777005879970244 0.6709972470610122 -1.4878202663413087 2.1549755139484112
Ni 1.4847186881920937 6.485353541279176 3.243402774503382 -0.5471528642088254 0.16265107130673925 0.7391260815184497
Ni 0.24812111076312168 4.325958828003266 2.4360810397335673 0.4330069395913252 0.17767145597497142 0.3145708722389034
Ni 4.139645027452157 4.25961240749178 8.629662601235507 -1.3910837954495074 -2.352540880633832 -3.640162199321614
Ni 0.3867108071392062 6.998079041540691 7.87208617989947 -0.20955519205744558 -0.26910656925851717 0.20542702882168493
Ni 0.32792805984040196 3.294199479300455 4.93975022943355 0.36895150387231296 0.9455728098539005 0.1604916017615752
Ni 4.819396734979475 7.660428409261717 6.332459484131065 1.615512562184676 0.23716781156839153 1.2053835556327885
Ni 8.402021869131914 -0.1410069901398022 6.916613431950624 0.35396685753802265 0.7221575719849112 0.48444340099474636
Ni 6.936065078543479 3.0539837439430872 7.959400607133807 -1.7639904273148266 1.2945681823192607 -0.20060980993869965
Ni 7.0710057217914315 4.264606516467439 5.52816231227446 0.21869803489897818 -0.8925846876926434 0.5137200384716766
P 5.728297377393597 7.267407441199001 1.9047513505728886 -0.11912795121312386 0.08227478694051638 0.3041375927207214
Ni 6.761144372334301 0.5481800485012396 2.538969654722672 -0.9076153567735207 0.5058915435661933 0.014772787433800364
P 1.6825162202716255 2.7097437096498815 9.00131313346735 -0.02308002174791509 0.1124705937976063 -0.17092565261070564
Ni 7.483749341634613 1.0653494900164135 8.793294445867218 3.9556018473187167 0.6725375949649386 0.5698773023895347
P 2.944503086380485 0.2823502442414864 12.72692296116883 0.2613449230352274 -1.083560831196321 -0.4446288401009697
P 7.77845615351043 5.977703723461163 8.954896923893394 -0.4302879979982654 -0.5899406487983131 -1.0631514143020335
P 7.187247913466271 2.0170943304848796 5.645735964218852 -0.5757874972263826 0.4409709316334083 1.4715048170107368
Ni 3.382072231603578 3.71443879446645 10.586759646122601 -0.5769910306161805 -1.0098452466797254 0.8858982768114034
