# total energy = -340886.8609045663 ev
CRYSTAL
PRIMVEC
9.12784496587117 0.00000000000000 0.00000000000000
0.00000000000000 9.12784496587117 0.00000000000000
0.00000000000000 0.00000000000000 13.35952376426613
PRIMCOORD
 96 1
Ni 6.7805009014758015 1.94082627168288 11.482136046047973 0.465357845118205 0.5710445832247585 -0.3549150803839049
Ni 4.741568553104413 0.12159932382108099 5.731302598187253 -0.6554973516532001 0.9373905311534244 -0.07080123908327807
Ni 2.798305146840604 1.704506367936555 4.646442717766742 -0.12426732932221825 -0.6287931028891365 1.5510809740731675
Ni 3.2677228250932977 4.379129216756198 4.440798762283077 0.959143863670116 0.6006153549033398 1.0453642655219415
Ni 3.676869343653562 2.800212866418935 2.7154836463909215 1.1424938580871034 -0.1358187816052435 -0.882530388780435
Ni 5.53093544982432 4.25588505528911 3.23300506712114 -0.46112966596947036 0.7277502355813402 -1.488537347012991
Ni 5.058377792935524 4.847798411729355 11.325749592633704 0.2387636953006017 -0.10822364559579424 0.9460168393698547
Ni 5.536905060370867 8.147979853188891 12.246435142394818 2.019496889291406 0.014370152678742995 -0.019276588841424868
Ni 1.9286405987782316 6.784535408909401 0.300807214985313 1.1217070032487393 0.12316458317634271 -0.5938186436964805
Ni 2.793969420526216 1.6200829307117675 0.3043123074163129 0.9699836345980972 0.5384939029822469 0.18473324791775927
Ni 8.156231424953537 8.806544732887367 6.941100768083168 -0.49678315350702185 -0.48205227505475046 -0.4220596965512022
Ni 9.36115258733413 2.3394848964847617 1.3174857453469777 -2.6719521116841727 1.2226829661431846 -1.5989615998045301
Ni 6.937892330610521 0.813311972173663 4.965347710780554 0.4183053717150925 0.17862867768191817 -0.6696337910545822
Ni 0.7878799707901942 7.854994288474734 2.3834592019420153 1.1281704994858957 -0.40727636759444047 -0.23370273583792653
Ni 7.784043550281602 3.8161967677858097 3.6640894480477213 0.9784029690100442 0.16556130297499874 -0.9135497199800847
Ni 8.164501252407927 3.9703021727664667 12.83879576323381 -1.5930100102067855 -0.45191071847436365 -1.3419430720587986
Ni 8.207018753823546 7.190642355127157 8.89697520482268 1.0132005363052035 -0.3626530724581109 -0.26411117292645486
Ni 7.119499932191706 0.9313048844856605 0.40832866365969805 0.3701128711702658 -0.5453834310132285 -1.6709028660295222
Ni 1.7430076176083205 6.5471384194681335 9.050436183955345 1.1658600436168696 -0.0790724779531348 -0.8523523225351578
Ni 0.17323462947973622 5.4062947280917575 1.1054468217457127 -0.7954730928496107 -0.8031848596715716 1.2197519085393187
Ni 6.486958538224429 2.3543085165575324 7.183442311091813 -0.3320358617928862 0.27855177383181706 -0.6150464427270053
Ni 3.7854359305658365 4.557323004355107 0.6339543843535238 -0.13457231079265208 0.3373968689944834 -0.4010293582434642
Ni 6.260661008147995 5.866100785693819 4.80485920388063 -1.7002244978117753 0.17186924747089755 0.7610755892063473
Ni 5.440624552656837 3.119002848587354 9.542720939182365 1.3064083694872983 -1.5456754867868798 -0.3558252509030001
P 0.338786351930377 5.649542666096231 12.281543572127514 0.4386104018210317 0.9095706807276787 1.0352253773157267
P 4.136921853067178 6.356402973014553 12.498756158202454 -0.5822401948302618 -0.11821675225276417 0.2376887170688681
P 2.606547381761315 8.771785899613285 1.0984001255042235 -0.6469188659555697 -0.6820113387833286 0.5570315567751181
P 6.360674804414835 7.897548301269842 5.974365240940816 0.3191790604348761 -0.9962294556685037 -0.02921004590505292
P 4.9105523452270745 1.282863829745981 12.5879178597005 0.24246762651475012 -0.04138499070469002 0.11583205407067149
P 4.062146547872512 6.388277407308959 8.132409575405559 -0.04954232970450177 -0.48536719836059633 -0.5097502551906512
P 4.830418995092313 1.167369208575558 3.820703184799312 0.8037533305805319 -0.3027975337530592 -1.9226272352558504
P 0.20938819745032108 5.954668264490674 3.359773489493459 0.3090625408261645 -0.46262553378870647 0.3095255965055121
Ni 0.36598641686562894 0.04998407852123883 4.593031133495918 0.6438384272580331 0.7677555723296842 -0.009611297837518932
Ni 1.926970203166583 6.789710896952049 4.605762651523936 -0.41689537874144333 -0.15809610494620513 -0.889134524360514
Ni 6.039402048441123 5.73515272315443 9.303946557949853 -1.2475100524891933 0.14160864881414323 -0.41006344342127443
Ni 9.16043127859015 2.1287320862260177 9.932284579353391 -0.5542478233823939 0.5613942046191881 -0.44853871667833717
Ni 2.456923748613005 5.265735044901737 6.52965403261506 -0.5472621360931801 -0.04815959042436222 1.512512112661034
Ni 0.7964364125735779 8.975272945353602 8.851819756238939 0.08770521392746831 0.015342801004657448 -0.0468706964096096
Ni 1.631100239472749 1.2968476880904911 11.499837675609008 1.4967617918053127 0.06374098980238699 -1.0423632739120887
Ni 4.526425249462047 7.132488855445125 1.1724333369107631 -1.3760456701694623 -2.128218300459225 0.6415218633097145
Ni 5.798217003377811 7.9505993356682065 8.366228449656846 -0.6910631645729517 0.6577228985496092 -0.9384675662676869
Ni 5.301634858784869 2.84858131639776 5.105702930245433 -1.3539709497576102 -0.8920874363412508 0.02462165520342211
Ni 0.9923701666819877 7.467352972433833 6.7594776491657 -0.8173364685816052 -0.8655847620650318 0.8815914219059333
Ni 4.993004167959426 4.6620467685761025 6.790298730161831 0.11661392654201852 0.8911870360141684 0.23551202113252342
Ni 1.2490634201834994 7.323607671383345 11.220276432348685 -0.5340165839371835 0.42200904581892484 0.4816473263068479
Ni 4.884574498720236 9.883356592483889 10.243708390709788 -1.285021162060774 -0.8120384534074595 0.7090459743036176
Ni 8.058499589904796 7.261456175647204 4.7828702255830295 1.53415488774179 0.7877726388815594 -0.0007114242447278071
Ni 6.96646248506112 5.912342447817375 7.214543616925527 1.463025318784816 0.7090416034282434 -1.8416750237814992
Ni 2.3419950538246708 5.484858088908467 2.388482254975295 -0.027808537571835976 1.051933691209343 -0.022489696462083847
Ni 2.4814593956300044 5.176811580154857 11.333711811715894 0.40869870186326385 0.6403298998841424 0.5144761999114107
Ni 1.2030590820266251 3.7273554536427826 3.4894938568975102 -1.2252165311983156 -1.0429191464155587 0.5351632959471171
Ni 1.7457824824495287 1.3005444652638112 2.5871516241919617 -0.22948818353594672 -1.1869711145638717 0.24467723257155927
Ni 1.1547819104965245 3.539823880739413 8.185072676396846 -0.32522269552579475 0.26856406649148584 -0.8043601109265953
Ni 3.563483254648663 2.987023339577385 7.263492597838236 0.11739297079988814 -0.4154396201315232 -0.3873852850974683
Ni 4.076194301131129 6.928125536597057 5.779409991802727 0.4437392384071648 -0.378968778898999 -0.09009659697778032
Ni 0.656518416878086 0.29583801623678074 0.12395065666021013 0.8854074532179139 0.045153456608186746 0.8646630215817108
P 0.17914490903461242 5.5442986147175075 7.862453563304456 0.008942811015584598 0.1173196943597915 -0.5925256359166698
P 8.429509972588193 1.5261117677504539 7.845914821180162 2.1297553059290415 1.6710841288023932 -0.29295380818976
P 2.034487087918532 3.312942168591146 10.15482782683381 0.21228930315915698 -0.18949930184783492 1.3762642139381716
P 4.293318347110805 6.090956116280415 3.2370121910201224 0.05138426800924699 0.42788504498372765 0.6334727677529929
P 7.021046997398046 4.274925739692928 10.570081786398195 0.689148206938426 -1.4086863390226192 0.5550834319098117
P 6.964034478325062 8.264159062724744 10.212260226770923 -2.215299507649449 -0.21306937585829114 1.4531468833288392
P 2.319558811128322 8.690621103007942 5.6701296074214325 0.6450972393657987 0.6341129724401531 -1.940708518237593
P 7.218126296037941 4.159504141281484 1.426569881063517 -0.6291265749691551 0.19564552395488885 1.2129330858452725
Ni 5.807445254543803 3.3493622696320045 0.005870117037437672 -0.7133762262478553 -1.2458259799185512 -0.21140304389946174
Ni 1.6725862944177874 1.2517835179554735 7.010423098751065 -2.033968857655336 -0.19689662275317057 -2.0976411990033164
Ni 6.907779570376488 1.0001744740478862 9.14701243384324 -0.006269377948479525 -0.039865982957002305 0.07496976863867089
Ni 2.656458437523575 1.5600582228308935 8.95217675947298 1.0665049041552987 -0.5107673836012558 2.542915900218401
Ni 6.441465359380409 2.127746278979799 2.2985328204647586 -0.0635016200980713 0.04870954939056127 1.030618988891967
Ni 4.001592424989039 7.260954144179222 10.33204219667791 0.8387517010325877 -1.1937061192948604 -0.6886558406830399
Ni 8.643347994413805 7.594147865556282 13.31658641358795 -1.9483179551537348 -1.800761573396589 -0.18669962761551073
Ni 7.742667029475032 4.041599769064749 8.541317857214654 0.4265917800936008 -0.8099070088867536 -0.19423064588523326
Ni 3.2175835732092275 8.49694649050545 12.314074298468245 -0.39602959103602764 0.7345844848943542 0.26708465373248197
Ni 0.292928059291461 4.881060278444364 10.31351175880246 -0.7078262429639035 -0.7215307370341897 -1.0487190409267875
Ni 8.748893264673317 2.5112618091383765 5.657838051516263 0.017979467296556133 -0.8415742580830474 0.49827490756119996
Ni 3.606822262102798 2.9593568417691536 11.809672329173122 0.44360194149835214 -0.25081111338343903 -0.7595149295874468
Ni 1.3090516166848842 3.5121026158619473 12.688969491929333 0.6333282717553287 -0.06620127841742147 0.14328783628877903
Ni 3.3362364287054995 8.601515081363615 7.536187876185544 -0.4946236839618578 -1.4247511057949656 2.162653599318959
Ni 5.8234007273807515 8.172305559773825 3.505325191044194 -0.8083792593883175 -0.13224186288726258 0.03321016820338151
Ni 3.3266430637446116 8.726292720769266 3.0979668172944312 0.07351041048432501 -1.1031606077051195 1.5479097754340372
Ni 3.7700281284212322 4.467477627276115 9.318975554532251 -1.90877490275379 1.5413310937752551 -1.039032923987275
Ni 7.429700612335202 6.307286039756192 11.20539439406873 0.7385434695421023 0.6090308326605447 1.0464693256606623
Ni 7.9370444860327 9.01565453106908 2.371128396303896 -0.13494306386850954 0.4029669415858092 1.0335826995059811
Ni 4.92920053230138 0.1816167294260572 1.3036890078223515 0.27108760424428796 2.607284239192142 -0.07533075152251542
Ni 6.374101864222128 5.732606054435031 0.05977825606931942 -0.10039540780062711 0.9379325196998235 0.3888616125326787
Ni 8.734936789863424 9.058993538523216 11.004853816653222 -0.4814159270223322 0.2484338714005141 0.797069233692137
Ni 0.10312365301486487 4.850892751141097 5.411328734538884 0.0655811283349193 1.3879881872433193 1.0379746579260898
Ni 7.144172496881792 6.306072036388163 2.71251800959188 1.171115635588854 -1.2241991456773949 -1.7434514268212102
P 8.697001466573747 1.8249482810278164 3.2916532959952574 -0.40123710337889607 -1.0425949303069206 1.552829324222842
P 2.0145975139415815 3.406164848272923 1.506539842775063 1.114500458197971 1.093445951520517 -1.0361208925468026
P 4.662448393750487 1.1436641954419464 7.793064599368991 1.010994272682504 0.9344327340766809 1.2940819867114615
P 8.828442432736246 1.847585336311358 12.337479918290041 -0.8618404645312513 0.04604228697104329 0.12112852658292042
P 6.624816379332221 7.745560556299582 1.1740580932980498 0.517813748925076 1.01623315248394 -1.1275804313103805
P 1.7859815112675592 3.1981960307002595 6.001097960218601 -0.08405553299002297 0.8785888876341837 -1.5012859049279113
P 6.951182472744729 4.021728450777544 5.6562753644741095 0.6969072820585546 0.3936245811389608 1.6895806449446837
P 2.54526303128805 8.757838552648264 10.160090942187233 -0.5671143949324168 1.2558879921402435 -0.42395537091201824
