# total energy = -381165.53298026585 ev
CRYSTAL
PRIMVEC
9.26251279157323 0.00000000000000 0.00000000000000

0.00000000000000 9.26251279157323 0.00000000000000

0.00000000000000 0.00000000000000 13.55662373960810

PRIMCOORD
 96 1
Ni 4.563269425130279 0.0688399194059001 4.709503194267471 0.09434405940022463 1.1430286475446507 -0.4863745565791882
Ni 8.518649415149376 8.303935112092612 11.491366671654692 -0.16819616949468452 -1.4062471334535072 -2.263040265368838
Ni 0.9918946797566804 3.2293101574832455 1.3275375677070282 -0.3909015257808429 -0.08411569680399707 -1.526220977606694
Ni 8.464769379737564 3.7778917248375383 3.0080111342658746 0.6761931894396549 -0.5389001372817299 0.2991925900106202
Ni 2.386532667015674 2.6939369330028127 12.971492092097417 -1.9750232323590629 0.6000713094744117 -2.256650045571778
Ni 2.9515181440681473 5.0618334247995485 13.292079692174575 0.021920454222175152 0.09768726484084467 -0.7168274180212493
Ni 6.902146465157167 6.276787931406363 10.098871103544873 0.6832428971975846 0.9053584424185441 -0.3602056393588829
Ni 5.5761529582896 4.546596902568605 9.481177298916172 0.49712228201399555 -0.5998044289662703 -1.57922246950439
Ni 7.744220004672134 3.5891309819017816 0.0787017165011305 2.2007794596564034 -0.025688148794723503 0.6829220235230561
Ni 1.9716276805558728 7.3920778031445025 0.5849285927899964 -1.3436577407570602 -1.401797839432902 0.9784541339629538
Ni 7.907369900450653 5.616630138064332 7.7642983530926575 1.931479029219525 -3.6320367420010027 2.5938024026556232
Ni 0.6396246555560761 5.4320097382313905 1.8203967859064452 -0.21301949645696217 1.1597493027334413 -0.36828070305753347
Ni 4.323574125768607 8.231344801361589 10.384997525738301 -0.9024266134837297 -0.4948514837019477 0.11873714353260839
Ni 5.392607009910634 4.750538903548018 0.41384813377964186 1.007965256048193 0.06560426826337089 1.8809856484556637
Ni 6.732892573618569 2.1739209543041884 4.574425195226546 -0.4521488026270987 0.760994856567083 -0.07460467198976829
Ni 9.259817143116075 8.901052245126447 4.2583660375273915 -0.07171835158090875 -0.006979773751942818 -2.053036415809748
Ni 2.312830854780539 0.2689509452011435 3.7306204921189243 0.20042340495950645 -0.20078670183619615 -1.189722966277396
Ni 3.0364553840073443 9.041749810521909 7.895635223320994 0.5681148111724731 -2.2383088240604287 -0.6164960306893382
Ni 5.164323125991174 5.611822894059049 2.8770679208202443 1.6187691214487607 3.4726329739869675 -0.5480267821733464
Ni 4.885326985946622 7.487981857924267 5.968073019895627 0.16872813073875456 0.3458123467516883 -0.04749547447780207
Ni 2.668020422931943 1.2185576239826437 6.29053072125345 1.2258906744472051 1.9641173840798365 -2.989628105210961
Ni 7.661579867841435 3.542512756316833 11.38867504768982 -1.4855306989761836 -1.6492035266792175 1.5542840543914973
Ni 2.412023101509967 0.7742534227390898 0.6961445070401522 0.009546763148170656 -1.2880404085030719 1.287214313057351
Ni 1.0389019308680678 4.850286901029503 8.3994130912958 0.48248961970248516 -0.34140264771976686 0.25418285806914936
P 6.273777614832728 7.120500935639895 4.322990587478948 0.4325328281683841 -0.41204267863483235 0.2765743383904721
Ni 0.552288424870505 4.955712818694491 12.777850005056102 0.21500104566336523 0.4613973178085602 0.6280940199395829
P 4.131710441133872 0.9422383500604935 2.2519177936014616 -0.4691700197754436 0.1129570465157216 1.204150711666952
Ni 1.6567485669535835 9.19410887919801 10.030681412518879 1.189888545320983 -0.9371185084389603 0.7102178831245317
P 9.042805736950815 8.935221653865344 9.290570537232338 -2.0008872446100185 -0.32147531266822055 -0.6509231020189564
P 6.055765857313767 1.688787597809601 6.595202546042982 0.24572032912409292 -1.0041093726372126 -0.47115414008500794
P 6.779149561214681 3.0725791828909723 1.89316864188314 -0.8989692510627485 -0.21236720758494393 1.1724538947843035
Ni 3.754865118677359 1.0903366629708333 9.466888020829566 -0.052590372502206204 1.1955223465679925 1.5497733110053373
Ni 7.970021535232411 1.331560276900659 11.943588468612534 0.02514821713085346 1.2093227427861948 -1.5033736406948752
Ni 7.807177302367524 1.3623025560018798 8.403235730218691 0.1565794111913626 -2.37352339642277 -1.3939516039156057
Ni 6.402646951721937 0.7218915131316446 2.519810033619939 -0.6296791050385155 3.385858499403885 2.164220429585447
Ni 6.146844143063181 2.012299373093824 0.032845795697751964 -0.8580043786146127 -1.1576199150952644 0.5799750529451689
Ni 0.6238857942578554 7.242988401392997 7.958971357779035 -0.17643089869965098 0.1773845208621719 -0.1957599380455661
Ni 8.465158405264003 1.5084464787674898 1.7991939684642622 0.1705638983959127 0.1813069958450297 -0.6659807676830273
Ni 5.7713326224116015 6.926969998748993 12.02012924093942 -1.1848494402351788 1.3430463324253064 1.0363579482582732
Ni 3.6608876665047214 7.949773682832511 12.891183329671593 1.1153437800348727 -0.1242092223907732 -0.631801550698157
Ni 9.235984698365415 4.617001260341541 5.129663730339214 0.7392546366765139 -0.8507363841982898 0.8650905960374325
Ni 0.39558338531332754 8.509433215177783 1.8808596889763571 -0.7553692828501893 0.33985741471983405 -0.4931149606268153
Ni 3.611842662635796 3.4625216980709332 10.428540597161874 1.3808495193160089 -0.9452509077381074 -0.4960979545145391
Ni 3.652440255073473 4.662248634071418 8.161507309355748 -0.9781610282025669 -0.24606074318264723 -0.11996870194686436
Ni 5.8337156443298674 2.1657328932238995 9.271009037011227 0.9305074308803458 0.4944051401931485 -0.8449637433805707
Ni 5.1773091685642125 3.595096039973847 3.3945107735368496 0.2267612715230869 -2.332685279360486 -1.1441254801532554
Ni 6.825814099362301 3.543281544857177 7.211486596263967 0.2658214707493422 -0.5673095416623585 0.23676671947523092
Ni 7.385668144470793 7.702010735053495 8.110995123501395 -0.35686809034521766 2.1933356017838483 1.175440231106137
Ni 3.4720528234686907 2.3236587319330932 4.192860622633826 -0.7574755305599147 0.06960619033391238 -0.22314244382357698
Ni 6.912400066532596 4.647521239141939 4.588347677816797 -0.9127771034801183 1.2029420360708316 0.7859641249179109
Ni 0.8315448415172702 6.531469976048474 10.44731663632008 -0.3986806555056295 0.23723183203710757 0.5560349971898036
Ni 7.987787034273128 9.024966137809823 -0.021543677903443584 -0.6778214690716972 -0.2930029162601406 3.0660353776271068
Ni 3.4550190629181796 5.5257834151282745 4.467870177283632 -0.9594295132313347 0.22120074671617387 0.09555376343760963
Ni 8.491760341262408 6.323572882216929 3.6518965455877117 -0.5672131252938102 0.5506745042088387 0.018367446763594173
Ni 2.6135475867179396 7.095603301947795 9.118618475792509 0.6880811991264923 -0.5996781878010511 0.20007167804704254
Ni 2.442793168148791 3.827640679659068 6.074438156331589 -1.162488041820843 0.3941591134861921 -0.5462918017601108
P 4.630496741103963 6.493354736969979 8.69696667520275 1.1361139227026884 0.5799416286040722 0.06113569096905599
Ni 3.8435444136803985 5.890513371189971 10.966575867744655 -0.6335090203075671 -0.11015891494529416 -0.4646842160899481
P 0.36722157193341254 1.5857236208408505 13.310706604880979 0.09021666749541236 -0.11091764748818962 0.5591522026625467
Ni -0.01631221082409153 2.9962097670459693 7.066823749252586 0.2229670945879773 0.8609444350795431 0.30195035526141545
P 0.9624862024603936 6.329408265113515 5.876796516377979 0.254256134509246 1.1655224577717929 -0.05735025578469478
P 4.3721652665233535 3.305512848102632 12.975315657271562 -1.0017064196226748 -1.4377215499127045 -0.9028055940897033
P 1.7192334765097255 4.083156350429262 3.7926691373347023 0.2689695294600206 -0.1786253352478085 -0.49147485392023094
Ni 8.96425963066026 1.8612648437101227 5.117584487743281 0.162348709574972 -0.36329559113811627 0.04421268996147224
Ni 7.068584552885349 7.969326846792341 2.484996880259909 1.0172718781610997 -2.109595286041399 -0.2581076470448523
Ni 1.0619100120031786 1.0031115824356736 7.696921910667172 -2.2857497911512117 -0.5968065226802108 1.9281581923764084
Ni 7.341634159882904 5.363883958541884 1.63042821133622 0.6305000582779141 1.2449867718467076 0.07284912275124228
Ni 2.961040006953371 6.467845777450617 6.7694183655461835 -0.6243718338929891 -0.4109666719618342 0.06030213932416713
Ni 5.674539366428548 4.463799303024823 11.705655825386133 -0.7028038500486478 0.5424796271028722 0.0703834348195691
Ni 5.23763591269987 2.0780724745996295 11.376854229193592 1.1915669614646704 -1.3006215876021923 0.6858584804435607
Ni 6.374850151606612 8.991713717811818 9.928857685978464 1.8886809602173924 0.7144198370210212 0.6877495268186866
Ni 2.054341917486846 8.44898605837918 5.602328818711429 -0.545774238693744 -2.2396632812057944 1.0984894274816952
Ni 3.7164997917604397 8.0409538562198 2.616644970909397 0.45961528620747294 -0.8368678537463136 -0.7856861886661759
Ni 4.711617825879044 3.920024979675812 5.672565525007496 1.2154838772915841 -0.5413259731144032 0.2905647391322931
Ni 3.0535076695829235 5.6672590315766165 2.015788561565481 -0.6235287691664037 -0.3808479981995828 0.1905205440234977
Ni 5.869070654673151 5.598670126260395 6.84488839142411 -1.2898602353206303 0.746840676553888 0.60859348801281
Ni 1.0115775188919904 1.9600588024005776 3.2276697665134275 0.3700815037116981 0.7621120008906617 0.6766243634398025
Ni 8.429525519544692 3.191120818304477 9.40854067562248 0.887355320972904 0.6857898319891544 -2.18226186046819
Ni 1.3849493991481538 8.958248260025522 12.460177317673482 -0.8277167833746648 -0.05851907928181535 -0.22897422001400564
Ni 1.7047098568560002 4.212775950833747 10.874892739926755 -1.5368997974767789 2.445147902738292 0.3905364291319403
Ni 7.1258731929097685 0.011544795622706083 5.411831354675497 -3.1286674506360312 -0.12805225028594722 -1.1534238747360457
Ni 8.88909434144471 8.733317405643467 6.368793394660457 3.504027172027533 2.578109674510715 3.100756583158376
Ni 3.4015836281080136 0.8272368469375843 11.923890809457168 -0.3423380150498427 -0.30646675507453025 -0.806564831887398
Ni 1.0979226607363952 2.1593602846003264 10.453932849023305 -0.09499840515477187 -0.9636754329918823 -0.18153145315100994
Ni 4.239220424119068 2.4541397460032637 7.570763711196741 1.4434754216773464 -0.3812760868759369 -0.4160998794233415
Ni 1.4209249978312335 7.145009543805557 3.440602888409852 1.3942848188853083 -0.42017944880935376 0.7577056442928498
Ni 5.402184447871063 8.96879826180205 0.9318430322432896 -0.8846219812021409 -1.699326411477538 -2.8300230198193965
Ni 3.35647519206615 2.806902535870691 1.43277267761381 1.4928979379745322 1.0786371686424583 1.6044964135798303
P 6.208828876942472 9.115257109993825 12.081812016910094 -0.2525682052838618 0.7530982274278255 0.6784174507844831
Ni 7.926182063407742 6.902961566260182 6.062101415887203 -1.1744318444462805 -1.9322986969073432 -3.523661401318693
P 4.982333279717965 6.752695825416825 0.7955470128041083 -1.1626654479389718 1.1258829890032998 0.7641534568007227
Ni 7.583302374414374 5.715553771930267 12.585751978854253 0.3862187755931929 0.0955931013159773 -0.2535308263074472
P 8.595796882047257 5.007777401649586 10.475759033559042 2.267345834722727 2.5390954980310463 -0.8806537405830124
P 8.74346911938102 7.015334368325868 0.2585056098162545 1.3538300533043717 -0.28088196462689047 0.9524245426684114
P 2.2451589382052095 2.819286515129001 8.000075609652336 -2.081190509646461 0.5115284301369964 1.249730714289596
Ni 5.527941580548759 9.209827362968655 7.80485982173145 -0.8136798456656245 0.3580477124756156 -0.9323668526865878
