# total energy = -340889.85015209223 ev
CRYSTAL
PRIMVEC
9.03717273263471 0.00000000000000 0.00000000000000

0.00000000000000 9.03717273263471 0.00000000000000

0.00000000000000 0.00000000000000 13.22681578562986

PRIMCOORD
 96 1
Ni 6.257311109793938 1.877237615083306 11.639941407302977 1.101560353097535 0.368749672274152 -0.43968615138371375
Ni 4.437549911648154 0.246375914584779 5.978441137860016 0.5816105316660629 -0.28094341399244516 0.7739449889698478
Ni 2.7085671110082514 1.1393524825442065 4.63004710765749 1.0182568677821884 1.795865164536236 0.645627657947972
Ni 3.5855524022741343 4.4202256520146275 5.100577433429615 -0.3539737995165581 0.2664159098002315 -0.9539787745294086
Ni 4.935154702436493 4.882847548154358 2.296465720152456 -0.4962586484621196 -0.7196306917979993 -0.5385468677073691
Ni 7.294389911444759 6.267486966000172 2.5282926907706127 -0.07973762234095945 -0.7431606565991394 0.15600914051018938
Ni 5.24862710405785 4.528292160464138 11.422413050973903 -1.7053335369035663 -0.44101386905620177 0.5137439497310765
Ni 5.735486696774064 8.185138816389234 12.258638886945507 0.48771898642222455 -1.151573194680552 -0.3662932403138595
Ni 2.052314757430887 6.5526368690865935 0.3867982116445744 -1.5153511247717257 0.40286461167999005 -0.16696255419789954
Ni 2.49482894481496 1.5013725746983253 0.4323464646330657 1.8316063266915874 -0.052722270094380165 -0.18643634665179504
Ni 0.7180006419435605 -0.10845691430040715 4.937993278310719 -1.1701812967000427 -0.012720018669829705 -0.09722909425750352
Ni 8.720943735227086 2.224771119760877 1.6279824573481665 -0.532184158714135 1.23445090531239 -0.588658953872412
Ni 7.050341068772151 0.5146633575511171 4.728903833638286 -1.4366627696308871 1.8570178247861566 0.663346929604606
Ni 0.6477022846992843 7.536812063071964 2.688363608224364 -0.2561353538098298 -0.5308548983797503 -0.3563055329735283
Ni 7.585459162501945 4.029557723116492 3.6024817374705274 -0.30330224130361955 -1.6293062735346586 0.4775387034551131
Ni 7.791515732091952 3.8543179116643707 12.632283494053514 -0.20855760403086662 -0.4468117066849015 0.4268270360328585
Ni 8.088639888707021 8.963148994714905 6.821571373602101 -0.12579533593097045 -0.4020364593517399 0.9167995943759502
Ni 6.77403855753822 0.7840018236762342 0.5095799480342372 -0.11888163953027268 0.18324920717306506 -0.24741211500421909
Ni 1.5911930319219152 6.188068294294678 9.274193108092375 1.5606164243674285 1.5602726678747647 -0.3694071033524928
Ni 0.05576206531911827 4.862568133121685 1.4519473747182936 -0.574166930903824 0.17983966727088382 0.1174914440509654
Ni 6.424471689053898 1.9603615275033264 6.928430515809025 -0.8065170093685979 -0.3194063459543338 0.4395717372930365
Ni 3.2362747233089943 4.645368729870678 0.174521356240402 1.1175009355871917 -0.9402981917185225 1.230645415523371
Ni 5.9389767093813255 5.700151352398953 4.668523773184723 1.2981633558696868 -0.3510555974284987 0.6812304947532462
Ni 5.640876538139015 2.666354478380081 9.46033446070043 -1.0881083413576873 -0.10195683875047602 -0.5261829468253776
P 0.40317085701654115 5.657360340732416 12.466432401085102 -0.5754072310688283 -1.2165902229818852 0.4129546489261404
P 4.244723762560747 6.247894376075559 12.414292434493744 -0.22125422566192865 0.18590901339341528 0.339883382861763
P 2.454767159235709 8.39176472784513 1.3971089084260644 -0.6638094710633213 1.0741271965872468 0.575296673632893
P 6.123524808482133 7.934782027329457 5.96787306836839 1.2800756451300406 -1.6758506969531008 -0.09355755894318726
P 4.5737129893207396 1.0017073085858106 12.59774793944239 -0.25087950472752923 0.6026575821443492 0.9997662651771684
P 3.762563499531248 5.851352285069028 8.418127063670358 1.1409547957347577 -0.11108065542861513 0.2074530581127782
P 5.009331814106805 1.0500290698067116 3.988678073428303 -1.0485812297973425 -0.15490613725399774 -0.5921317429123609
P -0.028006197498330315 5.568696641585557 3.690969211754135 1.7043986837941227 1.8145318877078038 -0.44038112056820927
Ni 1.3543468157114469 0.8483952924257027 2.8532359754137926 0.3801599709936227 0.6487898577260375 -1.7886791883107584
Ni 1.8190382243478278 6.40121904427713 4.734167986604655 -0.48767450633753434 -0.048922950952948005 0.727032126468393
Ni 6.013226118431433 5.344466318149426 9.147850725747777 -0.656086905608083 1.538527819998505 1.0288228162234927
Ni 8.59884249792475 2.217740199575752 10.22780729592089 -0.8207496080282123 0.4631757498652217 -0.13174795396997954
Ni 2.262257311184908 5.391559023913801 7.031838361847955 0.050157851801313616 -1.5438728863605025 -0.121313646010533
Ni 0.5543573302106577 9.203546819707833 9.130827403957651 -0.043998259957821 0.2914898220497238 -0.8950470331902071
Ni 1.3848743843301496 1.0175765834509503 11.367707431117047 0.23914576123036876 0.41322024388270123 0.49374025291563994
Ni 4.239319533421024 7.153943214019282 1.2065655491057043 1.0985418779861855 -0.7306926060391159 0.9357306269524981
Ni 5.3867693225023405 7.6441104118611465 7.964977028001099 -0.15514653539957796 -0.4366262815114674 0.727719896564037
Ni 5.405756421871166 2.977648921435094 5.009100462491459 0.5657085157238257 -0.12929743554695797 -0.6690028423388027
Ni 0.6222807185286476 7.121779917182703 7.038623470941775 0.7006734339692062 1.4587624297434039 -1.1233908187090653
Ni 5.000059675148016 4.4582179250972285 7.1606804260989865 0.32681086594852105 -0.09575070993976413 -0.39676852608458124
Ni 8.399220395136554 7.251833866262558 8.969791316483628 -1.6120788539127784 -0.6653863286321379 1.2437127902302902
Ni 4.597525938790924 0.3035324156167054 10.330394566699137 0.25999020877954576 -0.09612866210447316 -0.10199154864315338
Ni 7.997771119476396 7.4671716119838285 4.928112937644399 0.1265700093134659 -2.600557719101586 -0.9294944162347992
Ni 7.23097607219152 6.121238403846098 7.056731253428837 -0.2125836944711242 0.004360076740908621 -0.2675793339807133
Ni 2.188098273859546 5.6144608829961875 2.529787439097887 1.276693616031685 -0.9571867399437451 0.03740003791501301
Ni 2.379577884248259 5.095203026959059 11.306664945921105 1.0517303169492855 0.134404160645904 0.08357293692664962
Ni 1.1500976806163312 3.5459153638011824 3.5129098024899847 -0.3872824409710169 -0.7537214628341213 0.5957711394371611
Ni 3.8487239019026847 2.7630070379943574 3.0939501014433266 -1.2476740888708837 0.41030666978033203 -0.3524969578607155
Ni 1.0891419522761447 3.166254710976931 8.246152382633257 -0.2817173160439922 0.9200790364581701 -0.11460512364210586
Ni 3.5400412016927882 2.4811918515510105 6.7912950383781885 1.4640244494732915 1.3592306554946527 0.15576437148923497
Ni 4.006169520752607 6.651241457955351 5.869809806130852 0.8189701475302863 1.5520834471957528 1.142976711260793
Ni 1.0005415133366062 7.588116091209434 11.739724443462405 -0.4147595633453631 -0.20909522170189151 -1.445352326985085
P 0.09549218666855666 5.1958680911519926 7.978164070075822 0.2261087255407525 1.2846905181942327 1.5859644162139137
P 8.437890456154738 1.7311246105163478 7.882943902298747 0.26482285428149877 -0.9871678596868676 1.4722257543371613
P 1.669825469622132 3.0823355273791595 10.407281926394539 1.0188273955736777 -0.6768228526038537 0.17975276398403237
P 4.114796333895534 6.130067721353638 3.719856533568725 -2.022688656755826 0.9205449203509953 -0.16612925966332678
P 7.001305370925769 3.8728350780645253 10.537168687783616 1.743136723794269 0.5342330708233638 -0.25074477892187785
P 6.390916667656253 7.511426645591225 10.07438954484283 0.33305273309317485 0.46845782419976745 0.3068665616161102
P 2.4211669519756924 8.264349633127814 5.921844037804258 -0.10690981188037718 -0.06986587175320226 0.15970021620853142
P 6.681407539675075 4.038278594554339 1.4723298135171752 1.7693216097197528 0.09294743616301412 -0.6780420697229355
Ni 4.9033800040163165 3.0324593724926525 0.44255846952919775 0.42747212581602506 -0.9387622146899703 -0.2904852920446094
Ni 1.641421636534926 1.332034036872022 6.834096894651693 -1.925364174571039 -1.6097602330819307 0.3376845754382314
Ni 6.696101982118536 0.45393898082627665 9.042062488479077 1.1337101983572022 -0.0535499082019981 -0.10146858626014785
Ni 2.7363564163671947 1.3531448717723447 9.32257722580335 -0.3152416730536829 0.20341025550197228 -1.0059428263015255
Ni 6.06119542992583 2.2027023445782623 2.4598433390146095 1.6409106905428061 -0.00024862567569634603 0.4032986138936151
Ni 4.040809002847186 6.896754322568819 10.401131226808426 0.5245384692434193 -0.30369099210160605 -1.5185300367203396
Ni 8.156292161850779 7.2693388693455745 0.15020413254614345 0.5345040650965633 0.6585531077603883 0.7164083282059597
Ni 7.492593178154465 3.732243785879458 8.226615823177983 1.0501747995367074 -0.041462895130476976 0.042798583222765
Ni 3.217522590424504 8.32019032184746 12.351610606210937 0.10159251343252182 0.41135722253203344 -0.11992267920027733
Ni 9.342086673741202 4.720603190720501 10.394874792304362 -2.7769081422722883 -1.079386645213973 -0.14628779945736742
Ni 8.530620882915102 2.5197986523618745 5.882189828703605 0.6336594298425022 0.4390063517078698 -1.4065770059891003
Ni 3.5663393735934465 2.5150812483302096 11.350604582209144 0.48962828762979543 0.5857687768088106 0.6027074615456781
Ni 1.2166474187182044 3.5311576611504005 13.004671030470325 -0.6318735415866731 -0.7046902684380831 -1.5126756348220916
Ni 3.061559067860392 8.332273021445806 8.034139412665338 -0.16252483014152008 -0.3790875638650503 -0.213187132383078
Ni 5.616458098113042 7.887436280735797 3.635337281718649 -0.5832470388282213 0.30897640887026145 -0.30824390157961107
Ni 2.9908974162826425 8.083389291499365 3.5463608964041735 0.8950861139582584 -0.2733743433959356 -0.43936502059886906
Ni 3.4681595318309877 3.63288911169532 9.103990616577514 -0.20226457193330324 1.6734089202808275 -0.2743634467820823
Ni 7.4269561944725115 6.00897864736844 11.436050144237852 0.16002571786875022 0.5038878828726032 -1.852615324843087
Ni 0.6215722042066504 9.240147368229367 13.651528339543248 -0.9023975600180072 -1.473519019227288 0.4410411227497114
Ni 4.41621314743597 0.4596839113682865 1.8431430744889368 0.12383024178479965 0.33460927894701725 -0.16711604905662833
Ni 6.190680037139795 5.8441406214344145 0.1283513457856683 -0.5903990764919703 -0.47168815821160703 1.6410415596937158
Ni 8.126162228820952 8.936471261570318 11.169225819495127 -1.0245658407193516 -0.2883754447904582 0.25370000489545985
Ni 0.2122849888593994 4.960061149776086 5.868843732393333 -0.7668829399167437 -1.1885785682603078 -1.5187292972153392
Ni 7.861833971115672 9.097088927958774 2.4976196236750714 0.20225428752065813 -0.9426530651039443 -0.22433029348409106
P 8.58634408839258 1.5962448113351346 3.7538227463139573 0.7261908615140203 1.6231829342457402 0.26168816530725897
P 2.2442100777534253 3.251899994517324 1.6480874549520823 0.018665951840619466 0.6135796283734917 0.5791556423676671
P 4.695226810412236 1.1811584424110269 8.08442766261668 -0.21119864119813953 -1.0754837106151414 0.8045843111222595
P 8.520255246086904 1.641864457986174 12.544708774189825 -0.649584842823507 0.45161581294176417 -0.2309917646646667
P 6.42873723446184 7.818229613926435 1.4280467646751072 -1.3354690342986806 0.7502551015520756 -1.0591996287431371
P 1.8735775602311528 3.2613528769256015 5.602759552076265 -0.824695737160154 -0.6040683464489468 0.6021647016683307
P 6.9570051514559985 4.230354658326367 6.007328459674604 -0.3180382619622136 -0.9157372145497067 -0.4576000555496571
P 2.2918179023488445 8.219733112621439 10.070433974450763 -0.2980674752672415 1.0482642127775559 1.1020313791966827
