# total energy = -340860.52792498865 ev
CRYSTAL
PRIMVEC
9.35483690879110 0.00000000000000 0.00000000000000

0.00000000000000 9.35483690879110 0.00000000000000

0.00000000000000 0.00000000000000 13.69174941742036

PRIMCOORD
 96 1
Ni 2.6201121083650603 8.880041625162363 6.067622132106229 0.3440272298268075 1.9969148902258318 -0.30678428631494903
Ni 5.063735861445701 3.029994292547547 6.508386504270531 -1.9837156179267386 0.6070690809484836 -0.18830219621594024
Ni 2.1560560629797707 9.003993215723083 12.749442637373022 0.14268079883239942 -0.989519647748496 0.7839123845952047
Ni 4.831979129026737 0.22732160418614658 4.677210834343366 0.009807987229357303 -0.07439178464801383 0.28544721540006973
Ni 9.385801533998194 4.14279893067211 5.052542798947142 -1.8057024623416322 -0.18829782534056602 0.2774765384897673
Ni 2.4419866566015376 7.3178119067571865 1.2851282199661411 -1.1266864587412015 1.2867777397405644 0.5525879191814678
Ni 3.557401294255643 3.462758408089394 10.266799859067568 0.8834570143597623 -0.01790876195962077 0.21550343922108048
Ni 2.5089766445264674 7.5015502607347795 10.693420653136116 -0.747070533176507 1.348482415839213 0.22086753174647122
Ni 1.30167879762803 5.617598342256116 3.247874995209627 0.5387808380950463 -0.3766427018689836 0.8112403829861965
Ni 2.684248870997837 8.904205169193936 8.30355353552703 -0.791030997917857 -2.004059471690413 0.10474725701141961
Ni 0.8975797736934402 0.3121615566355222 2.565176763428549 0.8097411727328506 0.7176000345212158 -1.3126602639342813
Ni 2.105128330224106 6.749365235027213 7.03269892589127 -0.09126027826857831 0.1279586621308764 -0.2148724905053009
Ni 8.357751719306092 2.2131018591487726 7.668228198432706 0.10002465472476967 -1.1831036611886656 -0.9062796686812328
Ni 1.0025485289661744 4.659981095513575 1.251420871203244 0.7296348541985628 -0.6175838644368783 -1.9008708174153648
Ni 1.2117601041586232 2.181660251912955 0.9100974811145195 -3.324981975633486 0.24662510032654947 -0.23511067192904672
Ni 3.4682496974221593 5.684129943166896 11.373407853147798 0.3929535232138652 -2.1887361553386238 0.39630752728776264
Ni 0.1593905196566579 9.467375712842683 6.6875980526124765 1.320675935149906 -0.6334164605937607 -0.7114643539371232
Ni 8.879021947926807 0.7768668277102388 12.767775311487878 0.7159861530668766 1.0920796673006095 1.6666381772158974
Ni 4.593524333298982 7.87977567642991 7.0761558858000075 -1.0521236957329623 -0.3990879182463772 -2.3335440278163553
Ni 1.3767794292522912 2.5915517909324652 6.468105511531256 0.44543719493487804 -1.014819817076181 -0.16330413150970585
Ni 3.172122331444831 2.908877217604932 0.3548055812069216 1.7311312146929607 2.0961504733904026 -2.198489892291278
Ni 4.945294269891793 8.687257143783093 9.237139141440029 0.5601395062764805 2.208954539268028 1.0918222998741647
Ni 8.56687910096533 7.960012113580046 12.28651010791425 -0.32089115802997636 -1.4055159117144376 0.3552809483637559
Ni 6.310342733516678 8.94233548490152 11.732624240011276 -0.39755965452730885 0.46638628638271934 0.28462677638130335
P 6.286777899054607 6.942355522820999 13.539387527242045 -0.45235629065221444 0.7101795736874286 0.0561804038463097
P 4.05344152742411 5.509241265013488 6.228664715981228 2.854470354228484 1.299797291928684 0.7857134423596854
P 4.590633688658736 4.40027211006854 1.4173289058141398 -1.3989333734009133 -1.437088801424712 0.9370436893369668
P 4.196617308068021 8.709474881713788 11.27904467660855 -0.4544769365396431 0.6386090605382938 0.982739905822501
P 0.7964268564425715 1.1364910854679398 8.407500742596804 1.2875079330383696 -0.6286473213398915 1.0944206567289603
P 8.310154308530777 7.146852260153628 10.42433718550988 -1.2323408009479229 0.1250078070326686 -1.729354839518828
P 5.2599629228496 2.8599046457871684 8.853646952500696 -0.4855374053898734 -0.518177817132714 -0.466473446779887
P 8.65241037587074 4.206215370854081 8.27625144367409 -2.1924020342259856 -0.23238093170270946 0.8639683095075313
Ni 1.3573587875916078 4.2955072902429166 8.195319942133112 0.986949058807842 0.5676445564042741 0.5801519448426653
Ni 5.8458189462802155 0.9150518028021388 7.164974450435457 -0.32211423180380006 -0.6447136307741348 -0.11195971559945879
Ni 1.9094344945305433 7.703839256529875 4.376622146589554 -0.3132693798186605 -0.6072629421268445 -1.4220349924153832
Ni 5.268279372963448 1.9768360952845048 11.145358442641227 0.5792420314338863 0.016771820141700144 -0.18400536861279926
Ni 0.4300568257072604 8.093823702363483 9.055134238762882 0.3906976373001529 -0.6136403064080981 -0.29736196455978464
Ni 7.8435163281270155 0.3435442283980918 2.739404054604399 0.017225876959983236 0.2701270401032316 0.15404327503307017
Ni 6.497813667466628 5.388938060891913 1.5763583287616927 0.16793828784760756 0.8998930484285985 -1.0123204476930951
Ni 5.5716660924709736 0.6314131442511175 1.943311165843565 0.24119441622928142 1.1691124891158962 -0.0042816580944894005
Ni 9.037324500037638 2.3152753891188995 9.950150787111896 -0.5917471058794325 0.20690464180847593 -0.6510331452342594
Ni 6.279200481065611 4.779563977184344 9.308445451167579 -0.3849597063751112 0.18806154096004388 -1.1517534290121583
Ni 1.8440254740625768 0.30550933202814645 10.406742608036174 -0.8515521952313657 2.279607168588584 0.11483086649966674
Ni 3.240552964271372 1.580742940874584 8.713100816544078 0.6569703366543009 2.2576491762602537 -0.5305149985418283
Ni 4.413593397989933 8.45072944448217 0.34389877672128055 0.7898840287976074 -1.642767284135571 -0.08974589850658092
Ni 2.860222710245966 0.8092448541321036 1.229750391238421 1.2795783937786478 -1.7896284395979052 1.5930020397869855
Ni 4.087624101907798 5.868467006713989 13.585419873783339 0.5929172149281338 0.31215660637045595 0.7124236325265989
Ni 5.257081633046378 7.1148680723704505 4.372049502252492 -0.35900210596908494 0.012215568229585413 -0.12681837787884612
Ni 7.3109548112189975 5.639516725402061 3.78994476846828 -0.26217178981189687 -0.23491963896416315 1.5312428563013176
Ni 8.63034231533242 6.290024027501744 7.751036280280588 0.0003699817449090402 -0.11059163160733856 -0.1084434749160842
Ni 9.248790590952737 7.537023802727704 2.5923544359490776 -0.3072475991046128 -0.7999774084778674 -0.23977285329140643
Ni 4.183118278243182 1.1012233498895312 13.02367407181326 0.2713208033010166 0.07101361220440028 -1.2674548710422364
Ni 3.976376380024924 6.129663411245754 2.5314535114427117 -0.15213808759055736 4.094666389554767 -4.759596090265461
Ni 6.787561034593962 1.3702871723580166 9.333652059527267 -0.964118948287204 0.43997308649651323 -0.5892685624319529
Ni 7.705579256216237 0.7766956341927097 5.354282131654839 -0.594131546951209 0.41856299625185334 -0.4673190826096339
Ni 6.681449118236961 5.917954094568043 6.182359208198851 -1.4673727971202342 0.8349071304755169 0.9227506697530624
P 7.432109305509707 1.7815632272569975 11.570157849941308 -0.5810700857815606 0.9527564720865334 -0.8953496520322903
P 1.5317890787308672 1.6020439047769808 12.31000571658235 0.3939079167073345 1.1876519426809804 0.5289479111650245
P 4.983069101792487 4.080757651532585 11.865680893446921 -0.805345100547684 1.899243823334903 -1.9068272921091158
P 1.443507481740564 3.047665579684845 4.008684245169113 0.08664514809407013 -1.0797825951008113 0.2680812133177964
P 0.5334483554578408 6.146445988865824 5.315575557986609 1.6882842947307635 0.2740070918839281 0.43091226184582565
P 2.1586660625093135 6.186157272030371 9.07790391207796 -0.0073649250055034445 -0.4689278218576505 0.1580544530749923
P 6.148504053010983 3.5456329092801426 4.362259665307451 1.6179275993840716 1.7348194621778252 1.242754282971763
P 0.9003422570664652 4.648137871841886 12.683941004018523 -0.821246859379605 -1.7102422870590932 -0.46605821361933925
Ni 3.8814434939109472 4.600082074052421 8.288259312477392 -0.3028862368121235 -1.0117555763285608 -2.020473651382378
Ni 6.997455512889123 8.94198000109463 0.5626653824494816 1.2516932373326057 -0.275022677632636 -2.008568929524992
Ni 4.421872428755687 6.427287551146833 9.391362984608636 -0.9455033900685459 0.7907633460787672 -0.2574558723934663
Ni 4.14521247862416 4.99077748749981 4.06097310671169 1.1443422241497518 -4.666432681436899 4.817054332382931
Ni 2.2961541022429666 4.838480740758035 5.619463696758593 -1.9532493310170813 -1.7315752442089147 -0.9374008155660695
Ni 8.541274912032147 6.087426322084874 0.26843050000199775 2.0130843008968426 1.1313404125734452 2.3532949851910376
Ni 5.670256719861119 3.339190365846635 13.591772743605963 0.6210574248077755 -1.5984286101191953 0.44603240531671573
Ni 8.332755594779433 0.19039806245458715 10.411398510422746 1.277043543171936 -2.573659866269477 0.004214809412295967
Ni 7.65155507240581 8.556841360839169 7.800148239170001 -0.5988078693809558 0.6732135379860406 0.31063605596087146
Ni 1.4405700629152005 3.2383171582227677 10.862130461435534 0.08895965515985971 1.1367682684572358 1.4938849844781499
Ni 2.997598491935338 3.153973947619337 2.563177634756637 -0.553364392336176 0.886581676031673 0.6287671347472074
Ni 7.187368059302193 5.161129069696845 12.657995363533983 -2.900671021154263 -0.441264294504111 -2.151221446222618
Ni 8.347031076077219 7.44087478780068 5.52353919792013 -0.8526163748298219 1.6165150353072615 -0.24618158503122767
Ni 8.36951074944457 2.5996343701207265 3.3663352964375814 1.2225027318115784 0.48265108498101394 0.6070359137177029
Ni 7.173756771433072 3.68242869107406 6.311595346194117 1.6732891068735116 -0.18669551385045266 -0.7134003946175714
Ni 8.116677569211772 4.393171788767741 10.602863959781708 0.12436066036697292 -0.476404846960986 0.12019187370126398
Ni 2.765832404679349 1.0691362588990956 3.9848060236667555 -0.8479004574113913 0.3041077679240505 -0.1256834929434545
Ni 0.5752382834089992 5.804302179570143 10.746681482245428 1.546385368369711 0.0570833752765533 -0.24543570800413855
Ni 1.587450359020398 6.540387530760351 12.959323083412647 0.102474658927159 1.2009707712770736 -0.020020408985984874
Ni 8.364842685769869 3.3935793883009766 13.331766274343583 1.0844352633814744 -0.8790663414912344 -0.3001791222936056
Ni 6.846038120827551 7.5173131611192945 2.367509057123038 -0.9602561228976882 0.11239628891624515 0.3452415618498828
Ni 4.942450399436664 2.231427984877712 3.459822860231435 -1.5718840268614478 -0.6259546049990768 0.42121483205240356
Ni 6.557553656698383 3.150372335365309 2.0764632386168485 -0.15578853985895103 -0.0965778338267498 0.4688154646495023
Ni 6.095434062576947 6.520461727900401 10.986437535803146 0.8791632720804148 0.5531291363969183 0.5230336025631186
P 0.12124804266094288 8.239450450307539 0.47417423710985324 1.3121722685542692 -0.06587423409530589 1.420471247472689
P 0.08980362897401846 9.066988688238999 4.360000472166288 -0.34469340265589665 0.12378010527315456 1.0350371725643206
P 3.4245906730337152 1.570171975038085 6.307446475974217 -0.03938672932773862 -0.9186433324529081 -0.3666711924785685
P 7.33769093543202 1.8087858029952386 0.645668980391154 0.2032369631489016 -1.607411016123464 0.8536309321372654
P 4.0841721670461455 8.744312294789118 2.587877210949654 -1.4240862185174572 -1.5060977244942577 1.1295558098691967
P 6.091851159996967 7.13639355236141 8.244390739739622 2.2772651507189683 -1.9084694556982296 0.7230489734509289
P 8.586196839418756 4.715651730640128 2.401874986412386 -0.027382248667694776 -0.34566887919528855 -0.3931137029408133
P 6.323112086053688 8.421748159383519 5.662647495426245 0.6714240501857857 0.4011967370592639 1.0303551937076192
