# total energy = -340872.7161710378 ev
CRYSTAL
PRIMVEC
9.17576098831402 0.00000000000000 0.00000000000000
0.00000000000000 9.17576098831402 0.00000000000000
0.00000000000000 0.00000000000000 13.42965370652945
PRIMCOORD
 96 1
Ni 6.992076549589324 6.714188633450671 3.8403568640474197 0.2765213736653496 -0.5360464698830186 0.47412993488388017
Ni 4.058365600290495 7.340452660272378 5.516257274204369 -0.34181299578430807 -2.3380591420778893 0.9886701552640069
Ni 8.692785464248967 3.139468209708048 2.9664629099349638 -0.9474926525844326 0.04019662682354368 -0.16558135757965675
Ni 2.468573282305247 8.859022722848406 4.939910303766544 0.10565074266229546 1.320100265152094 -0.5596481684623588
Ni 3.808849136577157 3.191696640240035 11.877937951879126 -0.044240457875614134 -0.9869896822377904 1.1224127710665122
Ni 2.8763532684739093 6.451578359061095 11.873344566017511 -0.06361089198242594 -1.0190551953137674 -0.6952039262142027
Ni 5.050347925726643 2.7237236631560826 3.249707635234646 -0.13337314827822835 0.3228734785673278 -0.30972562833146017
Ni 0.9367901241624487 8.260377736065573 0.97511268918649 -1.2411684265418819 -0.49285785031068674 0.33727165627052885
Ni 9.099776334987947 5.375913095035396 2.9402477613000575 0.43300488270879617 0.9078231019089525 -1.012026056381128
Ni 3.370339527454942 0.8044554666047502 11.643858788152965 0.21506043814639092 -0.8766531040640516 -0.6538945259424545
Ni 4.991613880780184 -0.04199286934814432 1.4822175333979484 0.7094200698135846 2.8016832923344395 -0.5761965597393431
Ni 3.547771214242895 8.800279502141136 7.449294617427574 -0.6820208518650255 1.3019153667129515 -1.63413634793345
Ni 1.7692518479122672 7.184941866060131 6.6815476995203404 -0.1136450737216817 -0.07832814358794252 0.02181503899256243
Ni 8.743022754685128 7.462949067089318 5.95556792724532 -1.351669555317943 0.49842685975803186 0.12123008515779121
Ni 0.35412013695027506 7.872187999226811 3.631579860755546 -1.0657947654621516 0.9858398849040634 -0.6110244660518057
Ni 9.071138785499132 7.655658395626351 12.045647002512531 -0.15154570542219706 0.10898366369027038 -0.12915499643182274
Ni 7.734808508375632 0.7477896381449228 11.41281496610284 -0.33328104705389694 -1.0583586208990805 0.22173399351182457
Ni 7.10408506180014 8.587043996671557 2.5732696307263687 0.7155796616570773 1.406798892191919 -0.38589970169087734
Ni 2.7275591311747704 1.862918014263378 6.630609380958276 -1.0848306990476801 -0.33683302607121346 -1.1989740525620192
Ni 1.0797484775862636 5.754853664977418 9.665926282437333 3.1476697027701466 -1.4240746485532314 0.1342187841079753
Ni 5.577174232647589 4.184642420561261 0.751673737695905 -0.22370654385716313 -1.2604650699879647 1.1759092003227556
Ni 6.481133484630935 1.8575134911461362 7.035929345653708 1.8133800334915477 0.31371135245208553 -0.17953267755342628
Ni 8.84747043998829 2.985030979510601 5.682757877139061 0.4105388403957962 -1.9915220013450348 0.1639348231151693
Ni 4.594147449762251 7.6175055821773 13.194232037697347 -1.073397517510074 0.06617042517948604 -1.6181217176727487
P 8.57287662198052 6.987607954074729 9.660930080676147 -0.6933337057746833 0.21616755516764058 1.982880523619953
P 8.271480406645985 6.913210885425159 0.6627789669661284 1.1284864880644179 -0.016703943018242202 0.020349767300945596
P 5.177661606968969 6.641846935222599 10.957213667319358 -1.744818739482382 1.6727432616723708 -1.5221331806905656
P 5.757532987134014 0.04230484521569308 7.820127485117653 -1.36324414752942 1.116510032428832 1.6817884025937744
P 1.520772245170489 4.336960050011538 11.375601750560758 0.6116944955356369 0.8931724418753133 0.1724217775402579
P 3.748637794140246 5.197912511077207 4.805586341265181 -2.034575895111715 -0.965854185810756 2.9289372150888076
P 6.7748862912105245 3.319524164087735 5.277719608300505 -0.7497984736306312 2.345886351431792 1.3518325632583685
P 4.84587527183086 3.978499778198011 8.332522155436225 -0.1811792120179138 0.13957182088977255 0.7031002982431439
Ni 1.6099789917678144 7.929160298097701 10.32865202999076 -0.09337192529494243 1.7013966637430054 0.10863399366033549
Ni 5.821332052047736 5.505245443655978 5.602032286258658 -0.964846570481848 -0.11127271683476318 -0.28117404194601253
Ni 8.099288079280688 2.157955427356404 13.379345671435647 2.5309476721129314 0.8491348440391246 0.20353932488066884
Ni 4.772001221547477 8.38058020267995 3.734585116459337 0.936106265124362 0.6136616465643366 -0.5730973519887291
Ni 2.3582714616051392 3.2356485345211694 8.536558960693519 0.14442426388606738 1.896500199151495 -1.2679328391199196
Ni 6.116782374377222 6.566825914837931 1.1467939266746545 0.18926841678395145 0.04401497212836936 2.5723282919422474
Ni 4.251148334914008 1.8932714310237102 8.560611382505448 1.2610764783197186 -0.6036736821136893 -0.37130277771330894
Ni 0.022490707322022626 5.637706726712858 7.68012372667474 -1.0785849752482843 1.986462584544256 -0.5858389679251136
Ni 8.896450651193446 2.8158115986478287 11.345250168952589 1.1107929274393966 0.25994110070916526 -1.4799308362909027
Ni 4.84124151262168 1.0937323370610963 5.523898847807152 -1.5942464537170478 -0.09227380713475722 -1.2055887296650591
Ni 2.932683264088081 5.317133171284885 6.867279779537252 1.3884682122035312 -2.1195554825779044 0.6124010346843582
Ni 6.4518903349286445 8.289997091961085 9.632633869489474 0.8272843238229366 0.38098375244649874 1.3330966774117623
Ni 6.508064342609042 3.486734053333061 9.684243853742851 -0.0663095218605116 0.19770934846245306 0.6716459363886046
Ni 6.809423854900335 2.144448707443704 1.6564404566305542 -1.264335094466332 -0.750287754562224 2.3198747578593792
Ni 4.810025574345183 5.665986421530073 3.240293304643322 2.256422245831688 1.2722998578393636 -2.8577269134925687
Ni 7.323661017989607 8.809088232518983 0.2637306347845076 -0.10442715466783949 0.6999162440882074 -0.8111789336206418
Ni 8.834578496049879 3.7775322649317475 9.065472753198799 0.5415910538503318 -0.6881950989965374 -0.03092368616204997
Ni 3.8605729002645797 4.9245390692572 10.03611409414245 -0.33792394514254703 0.2097462250223291 -1.0018475731862293
Ni 0.5248837983574137 1.210842572282415 3.892020985289576 -0.6229991219151787 -1.1597678146762025 1.7565725375842005
Ni 6.731016978776683 6.505118923388949 12.413445446102656 1.6305566010019918 0.46152587296662456 -1.1234944341664652
Ni 2.6482989092957645 0.7569314486401825 0.45776861348686493 1.5587030093947996 1.3288289032743437 0.43915470436027587
Ni 7.011758556527327 4.36654270286381 7.46506132722784 -0.40764017869176244 -1.2011977996862153 0.5381149223762732
Ni 0.6867533948111697 0.836779836787126 12.554375956387403 0.37657585318679015 -0.9759830467146418 -0.9379566880695395
Ni 4.849288654852277 3.3718718795102554 6.336392280881688 -1.733923432726117 0.7206905005210814 -0.7418884747549352
P 1.5826811033572978 4.154637682711718 1.5332228350139276 -3.0768895467327915 1.0595906935339687 -1.3851692297372855
P 3.958212171046532 7.408243181138562 1.9394300957797117 -0.32265956278430885 -1.030766827323741 -0.4119107810426583
P 6.856146828946168 4.758136646963177 2.6191319184081983 0.34669320669474485 -0.3150316139254058 -0.4806456245152109
P 0.9362395785138332 6.122645685534978 4.7074699309210954 -0.2870430991322799 -0.506434817664173 1.3510779444805312
P 1.14942002941855 0.022156709628529246 6.522782262948695 -0.6161180785246293 2.29012580873172 0.9577768081192601
P 4.456070601089493 2.2279573065778595 0.8901258749858021 -0.19539612694824413 -0.32860523884478243 0.43893178971619246
P 3.1900633548158095 1.8154976823959663 3.9052093063021593 -0.9046429044087583 -0.48200805208037634 0.7561578401897557
P 6.977101707946983 6.491850773257316 7.16395506593491 0.735843554112436 0.40546091165225656 -0.2876221115642014
Ni 7.296298899253418 1.244058826415548 9.145795528179631 -0.35123480331884027 0.41815470506984115 0.06464396123263061
Ni 7.011914544461102 1.6606108399188164 4.218187166931401 0.6078707509141725 -2.089285885060086 -1.2148783824971012
Ni 3.2722598201540976 5.29164290775399 0.8475705314999891 1.611126260191522 1.3278734813396098 -0.7343147761727353
Ni 8.187641480122661 5.174707011988065 5.552812587696354 0.5896020345119717 0.3253155123499172 -1.7096090243504685
Ni 4.855629105572165 5.100346646381737 12.251832770951587 0.32502420636174345 -0.49040373234323936 0.6661391476377625
Ni 1.5306086607590854 2.9416204551172718 13.063158129674978 0.46575533766693983 0.9444515517652639 0.6435008414129563
Ni 4.103271773695895 8.520235282212072 9.68887761295203 -0.35290961991810194 0.2709263960760754 1.6143632790715807
Ni 5.990358741933493 1.9173761546722574 12.813568259875158 -1.5181564554310045 0.1197144198442132 0.02789312686584228
Ni 2.326532504962458 6.675246704571936 3.1164315446178152 0.6288488958277363 -0.7139976618819381 -0.1341380514687109
Ni 7.9215077135819465 4.806575488280528 0.4949487962900291 0.22510290998405746 -0.7619335663312685 0.00439478663358598
Ni 9.16933777769051 8.38345221581356 8.217659064037338 0.03744528933065164 -0.03983512971906688 0.2070236838848435
Ni 2.4572136904221478 9.119816196597549 2.6129401150134366 1.0425471077881208 -0.18633813051103393 0.7962446809083126
Ni 6.634744896355459 6.049101962640761 9.492669566818046 0.3812958843702788 -2.2374307923308496 -0.49676361312299605
Ni 1.106394886979252 5.765699414255143 13.446037853732843 -0.9672122425005472 -0.5189586611627965 0.01760382912469226
Ni 8.735929891578799 5.318610468775336 11.350165624018642 -1.545139668888068 -0.24686909801655546 0.5105840639458562
Ni 9.169236844321597 1.540068870154461 7.993235553411812 1.4699899230281068 1.5927495574565471 -2.112906352692503
Ni 1.5946646469754944 2.1278589318987584 2.150060602755258 0.7883123134351132 0.7623164035919839 -0.5412012746110808
Ni 4.907563911758223 7.058609991224503 7.940282237775815 1.046642875124049 -1.2850245044948838 -0.3410871733618771
Ni 1.7426880203665716 3.742994701241938 4.704031773345492 -0.07995925143346229 -0.05654601471584455 1.125279808201662
Ni 3.0533445187429695 4.1895331010731285 2.8867714272978757 1.5263623882805648 -1.390330976443883 1.1681172150821624
Ni 2.113911775467167 0.8263745240282938 8.927053648647817 -0.18229352812801508 -1.21683961998853 -0.1988141514908576
Ni 2.122858142257168 2.4697936584930114 10.505440495945916 -0.9305349416841717 -0.5339880446920932 1.9243123362677568
Ni 5.380234878377028 1.5902511060257603 10.583950140590641 -0.12343274923606484 -0.7626174797721704 0.03888176466686207
Ni 6.193767007575285 8.407382600006711 5.9617991864115645 -0.9336125521682307 -2.3410807025130325 0.9715874887501074
P 5.87527634985124 8.979601395656001 11.944750336642937 -0.9599583891516112 0.30850718254332676 -0.11660621323253466
P 1.00876479195811 3.9090209173427404 7.07338480128118 0.11167895113424638 -1.1023296271633918 -0.6811214799792077
P 7.612064356016816 8.795021791196858 4.658343825119057 2.473625955573327 0.8792825712670985 -2.423176026452891
P 8.89127552209646 0.9956159267170107 1.7290409113134753 -0.6488104265513278 -0.17846232730738296 0.15049129601575376
P 0.2564973825377814 0.9024911302537054 10.079357619689032 0.39940519237647987 0.12373871051225785 0.15141072250622956
P 2.189088783785608 8.33612364155425 12.526885376999871 -0.5204496438860262 -0.6472777919568852 -0.11479204284193134
P 2.7939916394410362 6.9575389858995145 8.72006224840962 0.07644506763261671 -0.33258813475193044 -0.5238537844715688
P 7.0518841585505845 3.7369019960639265 11.8915281712152 -0.8052401995387034 0.969397423077324 0.6853296045232843
