# total energy = -340891.65325852466 ev
CRYSTAL
PRIMVEC
9.03671564547625 0.00000000000000 0.00000000000000

0.00000000000000 9.03671564547625 0.00000000000000

0.00000000000000 0.00000000000000 13.22614679236944

PRIMCOORD
 96 1
Ni 6.445491760737826 1.7808113613317504 11.35555965918626 0.012849602269158515 0.09881495068738466 -0.8089215050450326
Ni 4.476391389111408 0.4193325303563791 6.176782305572966 -0.1733203780951273 0.04483978202250988 -0.9559708652587731
Ni 2.78208850808062 1.7462459234177026 4.697649953310811 0.3128960556396418 -0.9908093130941966 0.2067866281733729
Ni 3.3403406630030323 4.354278248580028 4.910920964419436 0.5312696173196657 0.4277706308930504 -0.795489805020159
Ni 5.1323304417726066 4.442160309681758 2.918441705361009 -0.33776530807749566 0.025010148891092415 -1.512178383470699
Ni 7.2341440215573805 6.212841512607849 2.6524242878313373 -0.08189169256948477 -1.45866704181612 0.262637930815038
Ni 5.0609494237116746 4.448621561474842 11.609435345374411 -0.5791944660254026 -0.7580172619959977 -0.3074252623330576
Ni 5.739588706448713 8.021657656186823 12.54837270821477 -0.2994748971377294 -0.07425834439394308 0.002696058774924389
Ni 2.121432289774681 6.205268744772039 0.4972479976083301 -1.4383946647203292 1.1007967354586332 -0.8177247051589595
Ni 2.776530927866989 1.8411675861233652 0.26598940371070895 -0.32432872295661563 -0.5059303672239287 -0.0694840629337513
Ni 0.5478346289544868 9.034510835868478 4.612076773094581 1.0083298384764636 0.13836160263175526 0.26006785609501665
Ni 8.720539182303593 2.4285631494831117 1.2298265332512932 -0.1565218184805498 0.4757224761819807 0.5443503617630238
Ni 6.961415938878696 0.817715242486317 4.833164543365468 -0.9976088525145336 -0.12037827868045721 0.22740893240941482
Ni 0.5321586380657288 7.276137639854525 2.4148824654417846 1.800973689407395 -0.7963688651910027 0.9386004923011254
Ni 7.537343909895194 3.906834302730049 3.592221946015333 0.4535580242697995 -0.6952034119935705 0.5634629142227586
Ni 7.185409013277521 3.711460507252476 12.6407713198706 1.6536096261667133 -0.510815720340688 0.22156944290950228
Ni 7.826437484877758 8.921244640099934 7.048438608308366 0.327530517723365 -0.9068545673480963 -1.0607685158921538
Ni 6.978847763646329 0.9411920234310908 0.39744741204520484 -0.8037569301249576 -0.8830703204443051 0.03696217904664602
Ni 1.828877652642815 5.953108227241688 9.250168443618437 0.7137968587250417 1.3249709629808344 -0.3437814323645886
Ni 0.1571466803235846 5.000548015341089 1.6327285069500719 -0.4582436026709269 -1.322861115726683 -0.7303285378314777
Ni 6.294018330590043 1.9363784237344526 7.061784030193716 0.7712684705789492 0.613842138006259 -0.6400681615823235
Ni 3.6374769150427215 4.321755108435542 0.6216411015346684 -0.7253426545811121 0.906857909782206 -0.2512571997819222
Ni 5.9627684764260325 5.512487001816574 4.741044262556107 -0.03172509901742278 1.8253703730842048 0.9669589888391605
Ni 5.4566400982064245 2.642001339833935 9.22305558522013 0.22546106465442464 0.8689151119898455 0.2884754607034322
P 8.989372440474838 5.3228786310159055 12.569852077986768 0.3267597009956114 0.8464688671711873 0.1456383387988266
P 4.173019803173499 6.161567187189729 12.60881658914959 -1.0474651139150282 -0.045604942323308556 -0.05514219238978245
P 2.1237637624496677 8.475156201619132 1.4839868759869723 1.1606887838285753 -0.46761964456918825 -1.3429365463203196
P 6.109687401813376 8.00765978342111 5.734222704609926 0.9799988527422542 -0.9109835019148053 1.3406842599510331
P 4.754170995919231 1.0841799774478178 12.472428148677603 -0.005744358682944945 -1.4164551843347606 2.355881514971291
P 4.269540964574792 6.1780320833673485 8.078477814088043 -1.6552309638202203 -0.29470395811164735 0.5895734952668814
P 4.68986572632541 0.9893938654790729 3.750393389910016 -0.5542370247491165 1.2939925123214489 0.4926632178013773
P 0.08988730833653427 5.557019937251979 3.8606593960347784 -0.3242760153418093 0.021853862650297845 -0.7388854262625533
Ni 1.5253705159679876 1.302913683254231 2.4903119321786624 -0.528856894113115 -0.5633940086580361 0.11744799240753967
Ni 1.7346518170533303 6.582994428267279 4.759997870263539 0.8648756518131492 0.6220997500293609 0.26131715512108544
Ni 6.0003160305522725 5.295858850790283 9.085146265479924 0.3133979349767248 1.3132765573620413 0.0915911792454358
Ni 8.636163366930138 2.2249117223377564 10.147364312532313 0.5228852499107124 0.8454478821058407 -0.9541826630100986
Ni 2.391241513251735 5.259043270643399 6.938159047109913 0.2626021924810961 0.030034341578561177 0.435189806175257
Ni 0.6662553674122254 0.06802839650116418 9.07277951991512 0.20155957544647868 0.6635053095593412 -0.7016895339385464
Ni 1.4843076793976782 0.9074670000859334 11.222610592745667 0.22214382735573354 1.0555633175421306 1.0118563635724833
Ni 4.202560827105793 6.793522796132265 1.5942402307096217 0.21866306789598472 0.731636972230256 -0.10427983045669782
Ni 5.485042495948608 8.056223094100872 8.023033948002329 0.40704599675118924 -0.7180139821301829 0.6149615963226829
Ni 5.341837660752813 2.9000176491991367 4.849485755761955 0.007905885110637997 -0.27140256438154553 0.21321001520121344
Ni 0.7892685648367401 7.323480993902027 7.004078274144636 -0.0055057603095776154 0.7664831333751638 0.08719099329521113
Ni 5.051234954232564 4.60935762531201 6.852374407744093 -0.17509032551135653 -0.3693919338438412 0.10172004014932161
Ni 8.255139282169898 7.360567675522748 9.262032747785062 -0.8967005096332299 -0.802066172686096 -0.1600547713344727
Ni 4.440958426481086 0.27679550845779877 10.436937737123566 0.35598414507836756 -2.1320780405249473 0.037481798995541896
Ni 7.980983398395678 7.391455170108425 4.631095445155734 -0.2278614465658011 -0.580679278101045 0.5942248779959638
Ni 7.202063680486826 6.485479228128588 6.96835432926573 -0.5199739898011884 -0.803917624072538 0.03448132160632126
Ni 2.3077964796051154 5.28608112430061 2.714520984084977 0.3361321433494469 -0.24093216370683024 0.4727525949203794
Ni 2.463155697544543 5.123203358820139 11.402102360214368 -0.07498185282352893 -0.6281824658883312 0.583606479050169
Ni 0.9605667420945467 3.3644596574586125 3.839245994288078 0.7842944505249718 1.091254857406469 -0.9190822197625397
Ni 3.4599054496803574 2.796682804088774 2.622506432850412 2.0118437436215224 -0.6586446390329301 1.1323709107204885
Ni 1.4404796077942446 3.4674330339371946 8.245431138391842 -1.4465633165740506 0.042274078177862676 0.07237681110051407
Ni 3.7468663597354146 2.6376637162525642 7.144539562425214 -0.032943801915872296 0.1805768025472245 -0.4599037639821692
Ni 3.9023159448327878 6.9219797111514 6.003017104903256 0.8078519261299377 0.47691469671786896 -0.6220516704002448
Ni 0.6725837794831293 7.07172712858243 11.37184111003325 0.09493875556143004 -0.33724903056270955 0.7322900324332228
P 8.986074039209837 5.6368954681597625 8.206097025553024 0.8802565051445936 0.3426673733648034 0.24926742304540297
P 8.770421853489356 1.7114545676087916 7.589229117301023 -1.4544116089738757 0.4764812087248762 2.3703465413566853
P 1.8792302330498933 3.1314027571178813 10.455784711584624 -0.7069885775539566 0.937114137563586 -0.12359575717649036
P 4.008262400807768 6.315525714181006 3.6740909764273875 -0.27502370607390053 -0.8431652567192511 1.4598852304939374
P 6.872693463208076 3.8675878460344384 10.406028554419983 0.4589244307880354 -0.7262325133852331 0.2172278781113549
P 6.447543095223183 7.747239707654565 10.425668952527797 -1.0996078573568546 0.43204226168521076 -1.1842460023232249
P 2.3837320024264863 8.571939427778467 5.820972465222602 0.4665323250422804 -2.2410079681591473 -1.6206640244786283
P 6.789763522361745 3.987188779574941 1.52752758002814 0.3150123306516962 -0.47312180533434006 0.804957378190962
Ni 5.1315623209300725 2.6986886580129736 0.67188975971011 1.0250026711464542 -0.5086282257710659 -0.2889187188884379
Ni 1.6320127990591458 1.0640913582365945 6.842758438467142 -0.6604233281999079 2.184658642835141 1.2444185580480633
Ni 7.04315303324015 0.6956255974160024 9.08477576013235 -0.4456935339200583 -0.45741699300457356 0.9283698157120529
Ni 2.7541198726965734 1.6689368197955639 9.133474621549029 -1.0773837558513315 -0.5524454800663324 0.22299897626717724
Ni 6.2648116651421475 1.8361341354258163 2.6568152280358954 1.170895549158248 0.5199076553396271 -0.44662735858823727
Ni 4.287605359448042 6.559806215538535 10.346338335582425 -0.22731431581307945 1.336863343543046 -0.0287377342543247
Ni 8.172706360692265 7.166269249224722 0.5351362359200239 -0.3044111580970822 -0.5811245931685799 -1.5976400527796293
Ni 7.7242231925259155 3.894020239733416 8.173335316111563 0.3896475987690838 -1.40377373221235 -0.2757592986883445
Ni 3.201401157662252 8.211519055029738 12.52405038765381 -0.43597604952197816 0.4703948933214802 0.20895406813833692
Ni 8.96368105747101 4.766388635673425 10.292785854112507 0.15661566374593675 -0.3030546440691877 0.2847633019591676
Ni 8.718307113502346 2.4516881052012947 5.497394782768142 -0.6552662094790005 0.28733363378950516 1.9532619294225715
Ni 3.752116691612032 2.3910607789358442 11.23062525598383 -0.1486285317754021 1.711468960377343 -0.12226829661431846
Ni 0.8841098007718315 3.3082241750693 12.410119993274371 -0.04292456727766801 0.17378831887048135 0.31229056084515894
Ni 2.9065692681501654 8.426782661971055 8.129279519270108 0.3944671316449142 -1.3032675098654716 0.4386877920261864
Ni 5.647857004418518 8.059548605513255 3.5808600832468804 -0.7286215824426999 -0.44071639242044097 0.18919436901290643
Ni 3.0702964849153216 8.538828901107337 3.4154809548344858 -0.23591568432884533 -0.8860036920410161 1.312547392505501
Ni 3.6910194561252663 4.178035180439458 9.250089824191022 -0.6576426801309772 0.739198843737914 0.0014459884179071872
Ni 6.98234497265881 5.941911736372274 11.506456546866353 1.219436434181429 0.4456485396147357 -1.0383878342041084
Ni 0.5109765762433685 0.004233701349733716 0.1899020640639897 0.5199683333742335 0.24968034221310553 0.03794999688121206
Ni 4.454676161057171 0.26289794323740284 1.4877696452185596 0.3848442638431695 0.19628624286268131 -0.3294727290514003
Ni 6.073450171477341 5.68526900780784 0.3840062009724323 -0.3389032783366808 0.48613390132329176 1.2026823546515417
Ni 8.131363385932325 8.853866887135975 11.26284476247762 -0.4597281576362534 -1.5131428042664972 -0.4923366876998939
Ni 0.018683409905174937 5.1386742162603625 6.121735151310633 -0.09689305107432344 -1.6067145042770714 -1.097371511827168
Ni 8.187165105963501 8.995119791720153 2.400955982730846 -1.4738908007444098 -0.5515952162508951 -1.03565552287461
P 8.49127770259656 1.5798076919141901 3.516488845627759 0.48488151697342946 2.6248888396477827 -0.008417020419101633
P 1.8333237168137198 3.4018535874163462 1.621287121082627 -2.157286421469775 0.2823814319905524 -1.8619995942714642
P 4.560966012232344 0.9269140124757455 8.3987616136354 1.3266987443052185 0.26002594711348764 -1.8333222809414296
P 8.51749321511647 1.5523902961936094 12.193965366155714 0.4009573673549482 2.1164637310264585 2.1679091912909434
P 6.370252065032633 7.774051643416912 1.5791362639306572 -0.3120100534902627 1.1956287902388698 -2.0479314904830153
P 1.8633888702620955 3.2012475334937442 6.013082198955194 -0.26586286551023885 0.9906110810404617 0.14103966368455065
P 6.987387460072153 4.0945630366454555 6.090190687486694 -0.02555933652634308 -0.6002682559765662 -0.926552817107972
P 2.263552719075134 8.167690983426306 10.397775321884847 0.9041114573853204 -1.0360908106398157 -1.0751744069048388
