# total energy = -340887.7819580725 ev
CRYSTAL
PRIMVEC
9.12802365971089 0.00000000000000 0.00000000000000

0.00000000000000 9.12802365971089 0.00000000000000

0.00000000000000 0.00000000000000 13.35978530076115

PRIMCOORD
 96 1
Ni 6.393578176305167 1.9708681165659485 11.096971314664374 2.1450837087559957 1.8469966931047286 0.9156310279891456
Ni 4.788241770178945 0.45170938251517984 5.840403507564342 -0.09006574373984488 -1.295290405197266 -1.0671656776677492
Ni 2.7622951584002786 1.5829271078585336 4.74252315050337 -0.01984274575754002 -0.02596042861950368 -0.17294602547484408
Ni 3.73338909139668 4.0684514586113405 4.723739503262944 -0.9024582380526135 0.8994215081088187 0.08624868398659985
Ni 3.609065408135621 2.701977177564076 2.520497460888374 0.4355492463972047 -0.2579276698235623 -0.033204511776426686
Ni 5.071584754915108 4.753208415086733 2.515259800869637 1.069894646563138 -0.722856912044781 -0.4150788943579948
Ni 5.4544688384737245 4.598917429905994 11.590295357384191 -0.4421991476135545 -0.13991660582370097 0.6405445869981097
Ni 5.581686105258553 7.9845653291210805 12.23457044140037 0.20164725006427853 0.7186032789747495 1.028929774115002
Ni 2.0303919593372677 6.321877549872301 0.5816559283965624 -0.41213549545895467 0.48804680207528844 -1.072713604069172
Ni 2.8978280548070474 1.9354696405243639 0.1812989818057632 -0.11499927375673098 -1.1438619420792235 0.433510361590305
Ni 8.233714736948583 9.01205219274794 6.731702082680309 0.6696808422424338 1.0789930093199804 1.4920767276248175
Ni 8.772176857034475 2.5333004269780917 1.2542981717718018 -0.23710816197504975 -0.4389117351115345 -0.21238751929991811
Ni 7.0863404095955325 0.8158362901022002 4.716819548469977 -0.08811684754359018 -0.6392556929833572 -1.220920217815807
Ni 0.9185165162868787 7.7467346707240985 2.5838897601182857 0.23541663320523973 -0.9943762045098489 -0.6100237927014333
Ni 7.7316004073726425 4.255630713306735 3.736932590210332 0.7710409279491753 -0.8180208962431397 -0.6198240666213068
Ni 7.866594750379089 4.006207464767202 12.520136099915831 -0.1160948208137549 -0.5460436903050466 -0.0109824671534327
Ni 8.229999631288726 7.278476181178648 9.184825600385873 -0.28865826613819967 0.2426524888320466 0.03549047959712597
Ni 6.975754402054584 0.6661586081167717 0.13516138584078372 -0.1158305114087747 0.21441252014974688 0.3067657743721878
Ni 1.8882138616519335 6.692101064511456 9.311276113177021 1.769300269563514 -0.9948613716763833 -1.4234017908559229
Ni 9.062402371666293 4.989323005021667 1.1895950883336457 0.38229938593412865 0.8048211097234139 0.7242962155944688
Ni 6.704588200979967 1.9412933196668423 6.6959375728869786 -0.34888147259531527 -0.16128221598367062 1.2093391978464267
Ni 3.699441971128847 4.216389339273013 0.20948175508539013 -0.01127377314160639 1.502448814887761 0.09140708825908773
Ni 6.228242282405933 5.870679336686242 4.8506838421381175 -1.031020852316076 -0.21110402460180416 -0.08798520706173234
Ni 5.792643861781779 2.9871640230945644 8.612706631186898 -2.348189545643672 1.3124183231268043 1.5267711936832093
P 0.3491642510817687 5.752873062371468 12.411160275761612 -0.09326368185185228 1.2725554254935956 0.774789082137698
P 4.1733050672471546 6.115000019958305 12.463517707099138 0.9453164708687205 -0.3467006628939126 0.7487710608073813
P 2.5837236300863213 8.716249455614468 1.0164154836395352 -1.3675785132387157 0.0076323197342771775 0.7731206932963395
P 6.6637676788402125 7.9865734943426245 5.831519202063756 -2.019415128210877 -0.09970249549866055 -1.0665709815065438
P 4.98471335303585 1.2360074378130272 12.429623529368964 -0.7544681111921587 -1.638113330303327 1.9317600507950536
P 3.9359581941080903 6.153520280117018 8.054882147155825 0.9785690622742632 0.2462101242763179 0.7144357778606212
P 4.7510359454379705 1.105978739718036 3.677040888082521 -0.26474829228982144 0.22449587252767786 -0.22104930873997414
P 0.3144987553460475 5.753557664151541 3.5469829803115798 0.881764714259004 -0.15725355444025174 -1.5040174449264614
Ni 0.4874866715417378 0.19590564538537744 4.644155002730771 0.9619844184427045 0.27561428847004793 0.33096448310557836
Ni 2.199178246208063 6.721657605363094 4.488540454108559 -1.487502992211206 -0.2726850306383949 0.757761694341766
Ni 6.1315856390835135 5.54163233711248 9.157771963642176 -0.23884751326365958 0.9594212857012187 -0.23184254270073618
Ni 8.923784203237332 2.6152883361595034 10.19872631348661 -0.8172662774653021 0.3057003092221509 0.3748933232780447
Ni 2.354318137596092 5.423552222085678 6.6992510455025265 -0.10254305027124921 -0.8403864084225332 0.3995759136263893
Ni 1.0834964172604746 8.74239211558948 8.862921279384194 -1.7745118956714405 2.133830761549996 -1.0202209334870944
Ni 1.5681762215039177 1.5277390763610033 11.464378833981499 0.21786114081997962 -0.19761010388042743 -0.7782451590070983
Ni 4.041231691835682 7.124586829042217 1.8458014121729185 0.7530917996699225 -1.2828580929711841 -1.4332866540698026
Ni 5.706603110062342 7.91738307443669 7.946587273572184 0.5356700603802065 0.3100886680978337 0.25933946256942436
Ni 5.788198514223179 3.025866843727963 4.817271624061115 -0.41362364996870704 0.45685649251541316 0.6506251111625634
Ni 0.8834941148231469 7.492199728893364 6.626760845016645 0.018666723171567853 -0.05032343084490044 -0.13934710647347615
Ni 5.501186063945832 4.65975570809505 6.971282583227153 -1.3761397725451654 0.1338084360434341 -0.5095533086884967
Ni 1.0107734521693692 7.859748732578369 11.1402043734771 -0.17673917396868918 -0.3907485451427464 1.17590225834422
Ni 4.7052497783867615 0.7393279335684839 10.042884477073414 -1.266304045267245 -1.740725286139299 0.1754878180600913
Ni 8.34446504891675 7.346160477168423 4.450117863803803 0.1083902530806456 1.0079045780135867 1.360170907920735
Ni 7.2403484260405095 6.315652237685514 6.977736096007298 1.9421228820866163 -0.5217819895442046 0.778344403589124
Ni 2.524218043362471 5.096221290973962 2.5473101178054836 0.2545734086393487 1.4238100820379351 -0.08860227182044095
Ni 2.3325934411084766 5.696315827313795 11.326265445265044 0.3517055723076717 -0.7647995750251538 0.4919417662543205
Ni 1.4113111336301074 3.4165827716506034 3.5640167854021425 -2.010747168123234 -1.0598529460564199 1.2565536507487005
Ni 1.4807845222718048 1.0637433738994664 2.4464171586679795 -0.0434254181734865 0.7944320531796061 -0.7260491937298336
Ni 1.1334540911582554 3.5241200192642985 8.163723789361152 -0.41107183008113074 0.5395346855419354 -0.9375982762888563
Ni 3.9307187084846067 2.730465739638802 6.838740940198111 -0.8352634853736712 0.5507925178439417 -0.06346819575697457
Ni 4.146276988969915 6.990715232955088 5.963981431286308 0.8112889768359447 0.3961514613258726 -0.16211859584203692
Ni 0.7015424793203817 0.41257024234728207 13.311182503160442 0.10006399260313735 0.017070325218725438 0.9516390706526385
P 0.4743395789572369 5.830890281228463 7.941751246597756 -1.3270509854383146 -0.543513210573709 -0.09831024313682424
P 8.722821632703159 1.5949669711640648 8.289866687752454 0.8752392544356603 -0.528614953305638 -1.6216369299148587
P 1.750389831287857 3.8101557710020764 10.220930231220276 2.5664648911829344 -1.7969460563052406 0.7456636255266512
P 4.106661365963087 6.14982343050463 3.794740364519604 1.1592214552544293 0.27144164514959707 0.8595179870456615
P 7.056126651035026 4.084443756193821 10.332244655055222 0.8589783124921077 -0.37202602903257864 0.008083291228766725
P 6.391350938513999 8.137286294219521 10.259980829557952 0.967061832965612 -0.2731277746027683 -1.485901709162357
P 2.4789795577353195 8.66380895926096 5.693874080964871 0.32026458018957105 0.3921577667854472 0.0996022224753704
P 7.089124456834492 4.139531379430273 1.4855411354397445 -1.4164852662417475 0.31453050591927123 -0.13609671785697852
Ni 5.479954280739868 2.757868066889147 0.6193729224666574 0.20305595748634706 0.2583015082232132 -0.6702765668449037
Ni 1.6683562819877735 1.291305005595369 7.044200888026173 -0.3954253817931255 -0.5397403737948382 -0.6127813008419124
Ni 6.742652059951966 1.0933455548697757 9.052790562674083 2.4284688994207144 -3.3789157495374647 -0.8210357718100634
Ni 2.574394789829875 1.854102436956884 9.198052106776862 0.6455011596724366 0.04285129083757136 0.4313987145639409
Ni 6.310348855895891 2.2812756916742867 2.765716341695891 1.4154640240660847 -0.2951274188023111 -1.1526381456099568
Ni 4.549178828577835 6.97108998192636 10.181732671700479 -1.4761646843802514 0.17298356358099884 0.14145515395541444
Ni 8.670408520420853 7.556725728671074 0.36203385174474717 -0.811509577487183 -1.026468457058703 0.08071258465971905
Ni 7.781612849412828 3.953794352484897 8.176602518047865 1.741298899254582 0.47868078747935633 -0.1652417148520509
Ni 3.1194017029332546 7.919372983610766 12.378348681646326 -0.46340072139183414 1.5363920046024249 -0.4019140748412626
Ni 0.10926518250659695 5.129063920369945 10.188586904722557 -1.0179758462066597 0.3431926497406541 -0.3939020031700636
Ni 8.846059081139837 2.403207832716961 5.87874668406261 1.2755422760360613 0.553622016872937 -0.5296899315373716
Ni 3.996194022730684 2.6642054153515753 11.33373399428444 -1.6538415396718613 1.2689923907326857 -0.5599268760450421
Ni 1.4524693926480308 3.7681668618243327 12.607910263342411 -0.9988491526795378 -0.14109082863746022 -0.8901693933829314
Ni 3.38154941655839 8.42157859342405 8.031034272347615 -0.5819463177389268 0.6178355754363681 -0.2317124448807751
Ni 5.561850909683937 8.11197428440433 3.6568807348629635 0.2886464390636577 0.23201094995780042 0.335330473383758
Ni 3.1640559950414118 8.619611068339516 3.3317304886213703 -0.1878352838818507 1.2519094671084696 0.8407057394351649
Ni 3.7775413421994504 4.200205353192113 9.208686254427313 -0.7152582737619165 0.7874075422326569 0.01367981147993773
Ni 7.545151394575991 6.316948417055784 11.592325429862697 -0.6477609022408909 0.12111489973616563 -0.5714402760012804
Ni 8.187143559856226 0.09555580366006361 2.3810212582283903 -0.8942337932602922 -1.2111829359233852 -0.9155119859127782
Ni 4.658030511609268 0.24001499447659727 1.0974367351074856 0.45068404515611415 0.6190679051815726 -0.10446160745020075
Ni 6.183359789704419 6.113055750902901 0.4112996214434686 -0.23998214108873508 -1.4671331703056023 -0.517168144921277
Ni 8.098464809277576 8.757845859771637 11.479729431495457 -1.0431724000769456 1.0168059942682748 -0.1321665295646369
Ni 0.04342839852064162 5.1746857829939366 5.6160932779225945 0.4890711295747449 -0.5647728912834338 0.8092778599431869
Ni 7.118817918042144 6.482640303880655 2.7504588500240215 0.43964192840933963 -0.9238593294362089 -2.131545050839613
P 8.636762624936253 1.8173256293314208 3.4269722882649742 0.345635711964508 1.3196996872795659 1.0215203690248085
P 1.7109567687557148 3.5256809113228624 1.3298955515368358 0.9827031390472947 -1.2730079396499818 0.4741420190687382
P 4.854118717469332 1.0967776917938696 7.8109986962206355 0.1640518083090078 -0.12272158210165314 1.9451804379660178
P 8.353748249054524 1.7604945535617182 12.204591273049834 1.5368224072716241 -0.04170920681332817 0.4755710382057809
P 6.437839963392749 8.003022193111818 1.343940841656791 0.36018147098916675 0.39917919240860283 0.3031487464448908
P 1.8531805065597204 3.3429835162810053 5.955177452394585 0.6233158818246491 -0.22884900729005106 -0.4953731605333727
P 7.3481777704137015 4.035481036883077 6.039597979901186 -0.9412374157033402 0.4728999191315211 -1.0049930607937465
P 2.6673545835399057 8.995521341765135 10.24855893345923 0.15416591665386353 -0.1537815367312513 0.4904201874034715
