# total energy = -340896.25700820447 ev
CRYSTAL
PRIMVEC
9.01918350336337 0.00000000000000 0.00000000000000
0.00000000000000 9.01918350336337 0.00000000000000
0.00000000000000 0.00000000000000 13.20048673021953
PRIMCOORD
 96 1
Ni 6.314195167710741 1.8645809265970277 11.35391024157528 1.3052418599830231 0.9814682381989289 0.610149262535704
Ni 4.655260646934396 0.24878425917798028 5.956138989330951 -0.9519686860779153 -0.2723014220467311 -0.14961583538933587
Ni 2.5432835135191887 1.5298429455598443 4.677922247709145 1.6865063768947341 -0.5945511509871308 0.6433905410873371
Ni 3.5352674436360076 4.386606224313429 4.975989130047749 -0.16035070530833673 -0.1648568207088064 -0.027754287295132844
Ni 5.161101560510686 4.528405829256755 2.5318399733365085 -0.19046732218805906 0.38606039563845773 0.6018440851041184
Ni 7.2775702473708614 6.304815216741332 2.524421694805413 0.16429452044743317 -1.5407381973862628 -0.1552727765647971
Ni 4.944352539648327 4.634020469498858 11.322492817337931 0.22336278736449916 0.0811185618488861 0.6516280985057811
Ni 5.762049765406616 7.75140207826404 12.27114588356789 0.045970553192843405 0.7705452192596793 1.0032519097329238
Ni 1.8542539613470526 6.3636834282580015 0.484786531323415 1.2137764076821742 0.4923598276283456 -0.433260450363028
Ni 2.713574719532096 1.5472499699549989 0.4398168817719951 -0.31216457679025594 -0.2635889818743977 0.34605043090442333
Ni 0.4545253664267194 8.879034530092323 4.651560977811654 0.3018937909918672 -0.02242207644894203 0.6684120028323393
Ni 8.555949334297907 2.461623824983578 1.550463505080384 0.8707876464222101 -0.3264622243598507 -0.5123136450424531
Ni 6.918823199525439 0.5593508281016848 4.83896879050701 -0.6038063510368117 0.3877516672979515 -0.21889909516619074
Ni 0.5721409323994924 7.33265040176527 2.2907202164025713 1.06271664075746 0.38609741952398025 0.16112563580114833
Ni 7.676705199486492 3.9781815130646336 3.6734575712928357 0.6010419009177971 0.04594021417554023 0.18769798697303802
Ni 7.622121100191427 4.04998323389874 12.644904460637818 0.6061637955253947 -0.6178186061555037 -0.9564719732649076
Ni 7.713223873981819 8.644120873410358 7.0491522067352115 0.4418633615406906 -0.11647817229510263 0.21564973499095763
Ni 6.7497495833018295 0.9787167110052795 0.566369556798218 0.12301725896520103 -1.416584253713457 -0.9616874560275762
Ni 1.9015776178244492 6.609961256306752 9.189373815588691 0.43957919349220426 -0.7963192428999898 0.2689646443640142
Ni 0.10860179385851515 4.834562017388112 1.3703693483860808 0.24656776472605277 0.044313991426026905 0.40298108265319627
Ni 6.177148672537491 1.8771987644876087 6.9088308459879295 1.3790317493809796 0.9401141007321745 -0.006284547457131113
Ni 3.536728551383166 4.330353576047845 0.544584620671764 -0.8447850517108613 0.517752042449205 -1.1091890732873866
Ni 5.973964503846279 5.560885893847276 4.665184454676359 -0.3672026395020063 0.7455227290734129 0.5296935310817974
Ni 5.320344266583664 2.8015839133393072 9.137628053380237 0.05029617715139079 0.45223544880363403 0.5836859261378529
P 0.41389394419865155 5.503415655792392 12.321506299171633 -0.3603359942891601 -0.4867095713211037 0.1752589898787369
P 3.9431960997854603 6.3251354374471775 12.682050870313406 -0.27825506852700466 -1.3757451082099081 -0.7491240732714259
P 2.3729652499554077 8.46636178335642 1.4554193480461157 -0.6244247986181117 -0.04893169270369638 -0.2764578674172658
P 6.198470022625649 7.669697293810308 5.835789708801611 0.051854779887762305 -1.0036689426656846 -0.7455427836780708
P 4.7307782714217685 1.0874970846995584 12.701204910576614 -0.13046805881629145 0.06504325355357832 0.5974001904001518
P 3.9994848247855423 6.076711043695812 8.416762586850577 -0.10772099492776288 0.18306665884861378 -0.5751300661480417
P 4.728766993473521 1.0538465105968011 3.912875408276843 0.44391073098802264 0.15099986022105608 -1.1715601793254404
P 0.48747695379858313 5.639884923213679 3.4985250933867955 -0.7928531387282604 -1.0295910618480848 0.46718024303892447
Ni 1.2734906894026028 0.9762364355085605 2.6819300118674128 0.9592269103022254 0.1815031710162358 -1.8114331941778221
Ni 1.9455100612590595 6.629605038240766 4.856987315551901 0.06868830650533331 -1.12088142202365 -1.3022524383373961
Ni 6.081788844076368 5.588529691656161 9.334222806515438 -0.5468006230757293 0.44243671754565733 -0.562963605988837
Ni 8.653527881930641 2.2353144694793206 9.98920403858698 -0.23405343430912595 0.2666010292278441 0.6035952634672701
Ni 2.4502055385150463 5.023243338811237 7.148618469500539 -0.8908995866807365 0.3034752765463741 -0.15910217761321632
Ni 0.6492296986742407 8.999675130252731 9.018757017046942 0.4122252269592836 1.0487856324986646 0.05225355798807775
Ni 1.35298577386835 0.9590639098876413 11.580153757039078 0.0724043219043398 0.9069124171692251 -1.4273651463790449
Ni 4.131534692230857 6.887950533979008 1.6963812692666258 -0.10749010986387939 0.23044720501510635 -0.29936819635653605
Ni 5.4584460062409725 7.761097700660305 7.952976322678292 -0.010073325075602007 0.0960507576786862 0.8720883675115044
Ni 5.437593653701285 2.99563164901897 4.658346109652315 -0.33700271887985833 -0.5218197847606755 0.06009593685063199
Ni 0.8348959070117183 7.525678969695372 6.85629319945725 -0.43511190174947 -0.8419038735083243 0.4638650626227624
Ni 4.9587561758965455 4.430367303259175 7.212349824827503 0.11520984710564029 0.2053861482814205 0.08757948698288144
Ni 8.345378454218285 7.194124760477613 9.162616603530088 -1.2991468028288786 -0.2509566378223678 -0.21024090527056047
Ni 4.56280499560034 0.4959838477931478 10.582236106015745 -0.825065718905063 -0.5829235940505316 -0.73367225749273
Ni 8.050063324803494 7.0640320558788 4.7173261590459274 -0.172527964100819 -0.4274327879376574 0.4843580403697916
Ni 7.03662275684415 5.930266559185904 7.0303679530006065 0.8108164080749004 0.6851617114868523 -0.26561244006232965
Ni 2.5347874425449732 5.024803657578263 2.562161566763488 -1.0912700269151205 0.7568978036795738 0.8788989626754348
Ni 2.4413216426449806 5.082833085017862 11.310137437690821 -0.10919346570823131 0.9640240745805526 1.0416873308909866
Ni 1.2179505566433482 3.1774313333366537 3.7485161193337246 -1.5811986193941543 1.5293363833072242 -0.5977593735117835
Ni 3.6353172475818365 2.711112482402626 2.719273941664375 0.2852808650255345 -0.6386180593993581 0.05179950116979466
Ni 0.9005384273486997 3.236299544853323 8.052771785645911 0.527449215132311 0.325853130020942 -0.1999860603117717
Ni 3.626613735384259 2.4354772116563486 6.977368524268354 -0.241667499210958 0.40668398542608025 -0.5563497002167451
Ni 3.9504024275013814 6.845515275026052 6.106241654718929 0.9248268355558008 -0.3326660391777174 0.1025463927053589
Ni 0.9242769186482056 7.4562583133381155 11.479895609951525 -0.23656257388422483 -0.1205024629631473 -0.376757373069977
P 0.20605587675723186 5.629891667757808 7.9836677026338725 0.2340783740097904 -0.8578989633849999 -1.019338273771825
P 8.385198149920152 1.540972618152394 7.788234620349498 -0.0783278864776264 0.598234256265673 0.4942858410064649
P 1.7331263252709257 3.1340851368376312 10.425638726499812 -0.1576343348184382 -0.40185699635108213 -1.0913168209926558
P 3.996553590107602 6.121915192021467 3.7975029132714666 0.11598169227465832 0.7685109624384701 -3.0853237935430735e-05
P 6.851125207240449 3.85230076721843 10.5277187486795 0.27931899101514474 0.5864598893385642 -1.052517331626955
P 6.371061120462787 7.877760840842338 10.12722911518348 -0.34592856061457844 -1.5484144829845978 -0.13275325530604234
P 2.4244918460017897 8.528963936893605 5.660698493263782 0.2451318036104746 0.26940970232123285 1.2662186846422903
P 6.981903369794719 4.074506394173571 1.52451080420108 0.37765700206611086 0.13702874275294463 0.8462523802850072
Ni 5.370923848349481 3.0406463944885123 0.4869854082910516 0.044179008510059396 -0.9334899105474376 -0.7216402660288604
Ni 1.3792586557663213 1.0364936013033932 6.774951888103581 -0.5275775131800591 0.5650125180980656 0.8049661199417105
Ni 6.6667370172225535 0.7163243075747556 9.156279725115562 0.8467812562052837 0.22235080116021708 -0.5220663535538429
Ni 2.6571326684103984 1.5722150702274276 9.044102726868323 -0.020111426037894398 -0.0721811501499402 1.1412864680425636
Ni 6.393356542382384 2.0509533370122983 2.6049575930614193 -0.36877332642323585 -0.31007349858918215 0.9612418838497252
Ni 4.29347413420754 7.067793055450188 10.537038271118627 -0.795673638896191 -0.8396055643924507 -1.0911718107743593
Ni 8.174654327391403 6.935716130454001 0.2334074530166855 -0.07617793001415912 0.2608877808931507 0.01003604407976336
Ni 7.5528988658739085 3.9073538640619656 8.236100221587936 0.019127207747754154 -0.6990227857396606 0.06631440695651807
Ni 3.058405167045019 8.366140614921727 12.498497856699132 0.8010876108229107 0.09525345858837143 0.03679402889989792
Ni 9.247278778294273 5.069349405499335 10.165879924687623 -0.20689872827120495 -1.72979038439435 -0.35595303473011597
Ni 8.568684421575604 2.4861560044420337 5.651814597393716 -0.19732188321604727 0.420501865145779 1.011874104184296
Ni 3.5721108087418143 2.6162757665917193 11.55797648642496 0.15851005255517217 0.34243803096281666 -0.3207001250650928
Ni 1.2231726639618945 3.290829529046642 12.584644589087898 -1.0288472417035248 0.19097460084178078 0.4599271610209369
Ni 2.975040852804391 8.355155249267169 7.980275587672724 0.7809533019668808 0.37989848980211993 -0.5424660002561175
Ni 5.627609814300826 7.806500271025698 3.470315792764658 -0.47062192173062173 0.5330367365224175 0.6571783389000488
Ni 3.085426641183819 8.488792493030383 3.5762235564745555 0.8776926010721593 -0.9521895438394699 -0.4645109237368774
Ni 3.412128529611633 4.153243867214866 9.355488237665126 -0.2238078453217178 -0.015911529023933887 -0.7149708244284848
Ni 7.4540215557992555 6.220125082507912 11.239211479586647 -0.43607683676590064 -0.3779603922391426 0.6970715755505608
Ni 0.4110005900919337 -0.021615375474314635 0.35244805000211865 0.0032321337840524977 0.1535588791974839 0.5719138732035892
Ni 4.455287307613482 0.3805184551964396 1.6639744405856778 0.8127192815245681 -0.08565938714203312 0.04840024568025858
Ni 5.837116430712766 5.615271571102603 0.37407695425186993 0.4398075074529264 0.519281334609538 -0.24932141621178996
Ni 7.95749042408232 8.859120172649577 11.139296963395186 0.8535247455767042 0.4969528463156667 0.8449277479363126
Ni 0.31789736137364316 4.997800221806713 5.598458910908299 -0.610143091888117 -0.5656421812622645 0.9331613235634251
Ni 7.8494586426288695 8.728197703157315 2.6739570535434147 -0.5085570062134983 1.0589646299141957 -0.5590457589916695
P 8.526177009153654 1.5801068558988058 3.669510776538784 -1.4645432980912392 0.8013197814383748 -0.2245688918574584
P 1.8119990860665869 3.168493322364841 1.587820963652783 -0.23217858588391627 -0.22657538076452594 -0.33538343810888044
P 4.687531285942615 0.902694012234939 8.240931798255545 -0.719449943245761 0.12932906011584178 -0.5879017639914134
P 8.406826152251542 1.6917553299856543 12.460849980414027 0.2823341236923847 -0.09447441433050181 -0.1365014094945649
P 6.415318254507876 7.80742022775539 1.2049250516529428 -0.7613758940555855 0.36299605761982645 0.8451277797622607
P 1.8284681153648004 3.213589240487003 5.821467245206014 -0.2379435133921515 0.36377741587054124 1.7476932328166999
P 6.752608664510775 4.001478064366542 6.001337726146431 1.1068300861369067 -0.365412380370803 0.1750219341672663
P 2.486994788519106 8.487223155079732 10.229282079812295 -0.40211513510847524 0.7545092488427393 0.24076041401565632
