# total energy = -340873.1115882284 ev
CRYSTAL
PRIMVEC
9.25083978277795 0.00000000000000 0.00000000000000

0.00000000000000 9.25083978277795 0.00000000000000

0.00000000000000 0.00000000000000 13.53953911131102

PRIMCOORD
 96 1
Ni 0.6133732421112713 3.2925219492957534 12.19701322046846 1.2247858714188002 0.31981515135697824 0.005120609056016988
Ni 4.399357196003935 4.481088366903888 2.708151940575035 0.08931395317548489 0.483519089408264 -0.11709935081886928
Ni 6.411932930730631 6.938527743668828 1.5548127214713736 0.35659941006486323 0.7794864876133671 -1.3896781733512327
Ni 7.772546469606151 7.957369000835373 12.879974055885981 -2.363067234086453 -1.7355563403438499 0.8035229597372807
Ni 2.2180276390297045 8.034243480765042 6.126993184213944 0.48154653906292555 0.15979071903980868 0.1067678869858742
Ni 8.434323806637277 5.543436324324251 11.346201444781881 -1.06318021065744 0.26511338893872405 0.01126271739801286
Ni 9.257593056560365 7.485576163721887 9.406080138659895 0.29512510480946597 0.33561226629023494 1.1427447977556449
Ni 6.840829623026563 7.045171426536363 9.4516812290769 1.7515917965401577 -0.037718854707012466 1.4497499418321484
Ni 0.7641240047449507 3.4267053826747946 7.845011999218793 -1.2719635575458674 -0.5639467958377126 0.36060673145204347
Ni 2.529965961921209 6.77269718684341 9.729838259747083 0.5675458260428806 1.0211902393788994 1.4067058182574805
Ni 8.164227032809778 5.734299654036514 7.226702508913722 0.15385327050945116 -0.1964911597846358 0.39197367579909914
Ni 2.7354456187440475 2.110125841929867 8.633582273598178 0.6485975392095733 -0.3487148651104639 1.1388521475694582
Ni 8.368642843039124 1.9656739762136501 3.5268605264060278 0.3293143490966651 -4.060094308006852 0.10886770693769637
Ni 1.4750556798153418 0.412804856214385 2.6528559698973457 -0.4139558364971452 -0.4344256743157228 1.1910745952092843
Ni 0.6096229515982162 5.272858506819695 9.516956080801537 -1.4138030914238942 -0.9399006991697878 -0.16831495446073594
Ni 8.879363214634445 2.9825540553121934 10.058266204837702 0.33227625993846643 -0.555861704836733 -0.9718800802898616
Ni 4.66849188247732 8.383212915949983 5.870066831213866 -0.4912876776100894 -0.37700497030440877 -1.1450616188142797
Ni 2.4321013261599624 4.0740421585542705 4.1557446518504 -0.7968928560152727 1.3062191362946278 0.310327266471201
Ni 4.47636118769281 3.688790929111308 4.934362872618673 0.8636024415276805 -1.6433722647094213 -0.5377559963749577
Ni 4.539424163586979 5.5653978183498864 0.531279438285536 -0.7725113418471147 -0.446150933172451 0.053066283697360224
Ni 3.3171014310253715 9.2341329264639 12.192138952902283 1.2074067567104045 -2.5748423166133527 -0.391869546121067
Ni 0.45008019068232774 3.7680151223866 2.813055540449216 -0.04413015754999496 1.58904022692576 -0.983903587113299
Ni 6.39764963385802 3.851568708755404 6.261657661270043 0.26725023277606874 0.2342796913873191 -0.086089018480284
Ni 4.015475090872595 0.7755145639672612 1.214844353551362 -0.5009182587213179 1.7508508046090752 -0.5997265245404833
P 7.007011711769831 7.797681001732373 6.74022673864207 0.17638616150464462 -1.3408606376278973 -0.8372404065943838
P 7.5631537074872535 4.6282877320832965 9.314025030383105 -0.24806208988339212 0.5137159247066185 -0.34828214844841954
P 2.3715175753706252 4.855081324135732 1.2513481679680247 1.5694198815916711 -1.2817365777722314 0.36706379993129684
P 8.31551526924417 8.675419197242212 3.0091622462413996 -0.5655215965240002 0.6605575397849268 0.30962766930101515
P 6.013490003528377 1.178890039027337 9.242942501342002 -0.9336467478402758 -1.0181565947588982 0.5122691649577629
P 1.8850066519071873 9.250932451801118 0.607563714626815 0.4299568399110918 -0.33078116345017866 -0.19620730999562985
P 0.15467404385367614 5.494628892782864 4.611986827019027 0.3432088476905702 -0.10248957132549445 -0.36497477861275207
P 1.7608881323865668 3.775341787621774 10.339090252663569 1.6574254003683777 -1.6550792687337044 0.9295928894858764
Ni 2.4102415913737048 2.7368424955755013 6.407099366860203 1.6071284518860387 0.722155257992066 -0.9338953735159723
Ni 0.030603628700761446 8.09551179371019 7.195466122760833 0.45175850916721555 -0.9457389031181195 -1.2959684051008973
Ni 3.0665331803183933 1.1712118418743134 4.75685960595267 0.798626807987244 -1.2440012680049868 -0.4147341094240664
Ni 8.08969301538579 -0.06748025196714358 5.3937059293363285 -0.19812329607142007 1.08195903392684 -0.34126997879664456
Ni 7.46793481194982 3.8297737298487498 12.982983083739754 0.13395653158552412 -1.7344888183112837 0.32950435362028413
Ni 9.319203650583422 7.793767896436314 1.3435605405238529 0.2213133610346382 0.658348190838434 -0.49224464220671993
Ni 8.11185802789018 8.942870230845898 10.833797420316861 -0.6655596209852086 0.9236667538094285 -0.7279605518199334
Ni 3.7200772697998925 9.227463070864708 9.733764316219064 1.1175564714154753 0.041068230795219596 0.41801020907217684
Ni 5.667545593004927 5.5231862356881445 8.269680132576596 0.2783265451948884 -0.27111434371716536 -0.051895660428026756
Ni 1.5898678543529 4.981244279283844 6.208325643912337 -0.031392912488984646 1.8529264283256026 0.3249840971524274
Ni 0.5838861897916783 2.0354808144265593 0.8722737243552711 -0.2962437917949414 0.1656060401700051 0.1862345150536341
Ni 5.927790222292704 0.9436596809465189 12.54446459281869 0.9926221979332195 0.6210594816903046 1.0902073899785611
Ni 6.491823184481849 2.7758532876168265 10.5797286517753 2.6457775101713334 0.5436744187419217 2.717485577339597
Ni 6.16132767666388 6.15735906632816 12.348737171464187 -0.8691102587197871 0.5835673982821176 -0.45395140305347625
Ni 5.5010489757035845 1.5596361094178632 7.1236527773641996 -0.19532053651530235 -0.31997893062835214 0.07681376382594514
Ni 4.391345968612948 2.0314381973712927 11.127172082693942 -1.6936879822448379 0.19733576717311818 -0.3796537207811655
Ni 8.541920326018982 5.949557448679528 2.648212048245758 -0.4161646712230058 0.17357568863904302 0.2940508979086807
Ni 5.331638343820069 8.283359349600905 8.0799500307574 -0.36532624841489986 0.5548049814374445 0.949516882103313
Ni 4.877209333280348 4.904471558593554 10.901861400284435 -0.7484357889551497 -0.7753143585135486 -1.2432430496827234
Ni 5.578385997630423 2.8927469011416496 1.2282118172695775 0.816755913487787 -0.4555637418459186 -0.4722931387854576
Ni 1.7448934301244254 9.154760719749513 8.717107182363158 -0.7887028640053126 -0.46771014740046546 -1.2310804461782603
Ni 7.835923974058395 0.6344022514706119 0.8398846835454331 -0.30325107635071 0.8102980736775852 0.3932399441060324
Ni 1.9546099716413416 6.298221606146337 3.068885668916001 -1.1774708883829206 -1.6843093692434152 -0.16640436770158437
Ni 7.6690758248392035 2.7703305361706154 7.67204441937704 1.1061762546029916 -0.9542459121478664 1.6566661536048501
P 5.3353941848370905 8.576657230006456 0.3285167531540749 0.893815474775951 -0.5736835635095023 -0.6922731257206529
P 2.919602089497345 7.863713497248374 4.003154822235973 0.19690459317297057 2.013745074409293 0.9111159137276115
P 6.300941353089698 5.866050116510441 3.3368464238005684 -0.6715901434500047 -0.7313191838795211 1.455629283431061
P 4.560738098816577 2.1428738153295095 3.1814665408592107 1.0253955357094986 -0.26985450316813525 -0.6672807174413734
P 7.866007705554338 3.086394733676877 1.7300689591151244 -0.33823016352905616 -0.20199692009421338 -1.0251258269878798
P 8.411899770614472 1.7931458112692087 11.884181266438423 -1.6101780373456396 -0.05203167178525878 -0.3623735935444792
P 4.668010838800264 6.799663385278426 9.910996533274725 -0.007906656441586384 1.101314041414684 -0.09507528113929432
P 7.773517807800208 5.807649563947747 0.045103395228049244 1.5409778242008945 1.8792013028617314 1.4019243377084372
Ni 3.7961746791743147 6.027976818879744 4.772416743485489 0.2776467455190444 0.48303546490362614 0.4344238745435099
Ni 2.2088785583256803 6.9256135711078395 0.8275172356250994 0.36232165726062115 0.681870185219774 -1.7574328287019667
Ni 3.1069408491911723 3.9733930199700604 12.600328565068905 0.019996497726584916 1.0291963975128275 -0.04899879849620593
Ni 6.172650704754603 0.14340097029864685 2.342123956534461 -0.5201521672502655 0.9307771396019647 0.5984587135716531
Ni 2.6913098613740782 2.570558647592856 2.2614140783642585 -0.48364353080127026 0.7700919337723446 -1.019065993947045
Ni 4.016224408908011 7.956684438679561 2.0921699615997245 0.1698488746067591 -1.89748673143448 0.8302724599169831
Ni 6.024424496341478 6.088495813789478 5.728281057569338 -0.01652705112074573 0.3423189888864492 -0.24779855180936036
Ni 3.6268658065301773 6.538724942994895 7.359633378564428 0.0848489754255958 0.23305404651033412 0.015450787337431455
Ni 2.5211684131350345 1.775125175059462 12.946507946926916 -0.8669019382145586 2.2204080325206084 1.2362167389635614
Ni 1.5058609768268694 5.843394809489051 11.867392842109137 -0.16547337124688274 0.1046277007144198 0.13109797909080648
Ni 0.1502650935366509 0.14216413299821404 12.73829651706879 2.5453332514106424 0.20466341118278297 0.5338214372072418
Ni 0.3767867108947506 4.657548138824275 0.5380954571558344 -0.436625510180519 0.9755251332416166 0.1341748182439173
Ni 5.736196076224911 1.0992958121543088 4.740016601667719 -2.449570200175704 -0.6633757259600124 -1.8412399931266097
Ni 0.475157367600901 7.773860088878114 4.5040498767274055 0.264225587017132 -0.6821941442180961 -0.7272018192770379
Ni 3.6195576429748897 6.838775936559128 12.184596743096428 0.6388867396797125 -0.2663215503142123 -0.5493902381797764
Ni 1.5338632693355463 1.028434378187852 10.88916092212614 -0.2973172273647783 0.46576793607243017 -0.9994636463350852
Ni 5.579505349263574 8.419365198448796 11.092511035594004 0.4095186266613979 -0.3084678446649591 0.0726568042347781
Ni 7.317506903630165 3.8942428334143155 3.894459303068991 -1.5492362075549448 2.248342039926715 -0.21399034501066372
Ni 1.013651535958296 0.8750869047820595 6.22640086007775 -0.7392204410044689 0.41905227718344606 -0.113871587910191
Ni 6.34992455059001 8.100757019958099 4.306155908658157 0.16793674518571078 -1.921782627867368 -1.0446448708574139
Ni 5.263404148397539 3.288692101559185 8.912307305840887 -2.044529921000634 0.13271777408241656 -2.2060962438836262
Ni 7.620148132378552 -0.12612040128437252 8.366772323202568 -0.40739001035416933 1.4610825932361482 0.821662606760785
Ni 2.774058624667806 4.544058834398624 8.415907234477952 1.2337489941493591 -0.46402318546718146 0.5235231406050274
Ni 9.21144986692268 3.378887791007352 5.365827598082894 -0.18955946566180903 -0.3555707116900328 1.1875025615873096
P 3.5643023759929515 0.48317784583183027 7.108623862792149 -1.7033895258033178 0.5651228184236848 0.8250402649837661
P 1.4438618475261913 6.41353332604084 7.994352933845098 -0.4386353415216962 1.26647039564178 -3.291303609544435
P 4.422021753865269 4.5527823764652515 6.811187156595921 -1.1404084363129843 -0.14290294214553453 0.6992467288250087
P 5.367540853640412 3.6624722894723303 12.560562904488197 -1.2097446608149618 -0.7665296703423832 0.6907474331047457
P 1.339253349446205 2.3092039175118715 4.048593097869973 -0.21086671178001745 -2.516186968863989 0.8975320043955897
P 0.09964449736635689 1.2934709425663102 8.297801760920542 0.41474233695418244 0.1241500870180636 0.11278632526581221
P 7.284509157552051 1.92281483475587 5.59230388632527 2.681246906722537 2.721761064786499 1.2064742175938061
P 1.2221469666026832 8.077491157500443 11.2748210386946 0.28222639446992687 -0.4141543256611964 -0.5103644917358823
