# total energy = -340867.667441625 ev
CRYSTAL
PRIMVEC
9.30371491192879 0.00000000000000 0.00000000000000
0.00000000000000 9.30371491192879 0.00000000000000
0.00000000000000 0.00000000000000 13.61692720752431
PRIMCOORD
 96 1
Ni 6.7086482389024225 1.5888977174096268 10.300047758166778 0.7074500905714074 1.6406664357424843 -0.38757966049646153
Ni 9.126172011337907 2.3282174140618075 13.026387875245018 0.8113936207346091 0.009618496926370531 -0.5095188559061354
Ni 1.0222456637470372 2.282117507223431 10.694748554879444 -1.3630772829342526 0.7930467427963052 0.9430988943921113
Ni 4.315072228364411 6.853358218915359 4.13155273243107 0.05858387108147975 0.8488980454379703 1.674679302352819
Ni 0.7096882953828476 5.144303024852326 11.402161161621995 -0.25718847766469255 -1.8098200840544314 0.3391624455353384
Ni 0.8612104553729909 2.19055964986794 6.4787022757411945 0.7286192684498548 -1.5438641446097539 -2.2697590721499106
Ni 7.953094523238952 8.195633064383175 7.468121642556275 0.1565076774131627 -0.2330373343397858 -0.34513691795121854
Ni 4.647782373358793 6.6840585206836876 1.9006093780984163 0.7451440055777554 -0.6116991235213272 -1.6577185061287643
Ni 0.4615628735006941 7.7071043039036 4.588291629807506 0.8389375917911488 -0.950956442763317 -0.31936572252438544
Ni 7.427909126443899 7.537999983682749 5.02994269289135 -0.7951882146193402 0.8335806983546096 0.4355523317209983
Ni 8.387782686165815 3.9957687363981003 3.2952827453248066 0.9463785935846476 -0.4857389798777183 -0.9945397266709065
Ni 8.375213367469822 8.877260425555079 2.9433120499496352 -0.32246107362025755 -0.42400499320303103 0.3207926847788991
Ni 6.3990671289030345 5.553666476091184 4.129482655887873 0.4052025157845473 -0.02451572575317713 0.4920600369997396
Ni 0.06789013727352451 7.469078064437807 11.054071976061753 -1.5512208420851412 0.9311818312395512 -0.17674020240995367
Ni 2.50175030252788 0.2822179543985097 7.9467568327165905 -1.328113622374874 1.1208755084863793 -2.0454735158608255
Ni 7.441241349753564 9.153106265686464 11.602779024616401 -0.2758708845655442 -0.8362042520203855 1.7961459290014485
Ni 5.561742100538352 7.5212532970411585 10.975297422842674 0.4499973035017347 0.02032199938680371 -0.7478050973496863
Ni 4.91954388269259 2.6647606895541536 12.365395223129992 1.538061678995364 1.7405483942418023 0.17505433006709853
Ni 3.8473186630352085 4.581242205102877 4.742516518947306 -0.16464213359483904 -1.508531530746731 -0.20121041963717606
Ni 7.237573729047431 1.4958512656859946 7.665336206676516 2.6586309690952343 0.3240669846547967 0.9117993129478812
Ni 4.577539326612126 5.448869432574037 9.530623101161899 -1.2727572570917565 0.18178702080524178 0.6278366525131381
Ni 6.175759366252238 9.059175961056747 8.759143253557506 -0.2626991230702766 -2.5249356615908964 2.6929420836722784
Ni 3.55215831097719 1.7477679513495077 5.951645901899683 -1.3071817573182132 -0.17068268336196413 -1.0220266192372658
Ni 8.47001822129082 5.777588283918841 6.959611293798845 -0.08149034336600805 0.35129393869154985 -1.5687105142294724
P 0.04650833991813483 1.9030562550910486 4.002845141875652 0.22892151239919928 -0.015418648547915382 -0.29712028086262376
P 2.1384495432681936 3.8284321219894157 6.5785823059860755 1.3274744461289785 1.673941909966162 -0.7424790571510825
P 0.24170027644066353 0.5585187461836577 7.685488983306709 0.19347808398992483 -0.3390428892383387 0.3007735613444949
P 7.578024564756148 4.025875557493759 1.0795128194609134 0.5612319680097109 -0.06019183899854794 0.07809520164153001
P 2.1624438237396713 3.8773975729864643 12.537377182338759 -0.24909335936138388 -0.5587277135306183 0.6431707117670471
P 1.1227071761669736 0.11499205419595569 11.460537320140137 -0.14856245442415705 0.3402618492471043 -0.6884920614116659
P 0.7613890385313552 7.993668023485603 1.5230944033659406 0.30936901632298974 -1.1899337967366215 0.8556962993067263
P 8.690255758057328 5.797842471040363 4.54187167517998 -0.07375260840211813 -0.6997761189659174 0.4278678185925469
Ni 2.5502226566404813 2.2052223043941317 3.6216942753989914 -0.13986929752553331 0.3296887017169483 0.2884032127046001
Ni 7.79579661710042 4.107729640311928 12.22495006598178 -1.3020578058280867 0.9153718607904882 0.3622697209767632
Ni 3.6363941447843864 5.606986065615046 7.38693742720377 0.2800368430177758 0.6679952270098948 -0.12110975752984304
Ni 6.313361308157299 1.6244844265230052 1.4611642257938617 -0.39498340915970037 0.174283513339345 -0.0743367630403623
Ni 0.4359888222560265 5.737275287686614 2.2126141058034334 -0.368201770190482 1.727539126466328 1.217137353734607
Ni 1.5068854714398419 9.39758928322407 3.115199111267432 -0.9267325372189459 -0.29137515084873045 1.3104825395566722
Ni 4.9294802500999335 0.6335718134823821 11.604549521543007 0.03816545532612782 -2.4850331689690037 -0.6122732508572424
Ni 8.732168993235305 0.1613171109325131 9.641655494338599 0.4701089866499452 0.11784702761817123 -0.20574661694463278
Ni 7.079057036269983 1.3717117990978105 3.842874278474827 0.22843428835013566 0.8947197317577752 -0.18063208126519215
Ni 2.784043617016277 8.575727028858456 0.06533161570328164 0.8331302410807523 -0.29426558502264805 0.20845424568378293
Ni 8.104689252204542 3.3548823423392644 5.533252265075087 -0.04206016239484369 -0.02356621735571425 0.6254321568367035
Ni 1.291095110348158 6.788427593319995 13.004355748225045 0.4220242153275764 0.698587497974455 1.3907976316676565
Ni 2.233133448796781 6.361591765685077 5.726762089961617 0.23485536138513105 -1.1549243705409722 -0.4872929546283995
Ni 1.611422010942565 7.907050438689381 9.55170252778626 1.1552552715178297 1.9046310557887456 -1.6113201213698831
Ni 0.3762626947202769 4.6855182405911755 0.22719206358016633 -0.8880993982277802 -0.3456531954660047 -1.828040206606884
Ni 5.515437511974357 8.823103501699139 0.34395554507421017 -0.48550166705593156 -0.33943215425695733 -0.05098883234304121
Ni 8.861248732382759 0.357048662913493 5.5483391689962 -0.8194018357510663 0.3577219537050807 -0.28521761588776684
Ni 1.9932464663708098 3.265380605954768 8.666398242193422 0.8293124099965589 -0.3237121724185392 0.9406830858617671
Ni 1.2550339117799347 5.686216500859367 8.015073080127994 -0.1700460782192297 -0.38667566062495345 -3.7146462865731182
Ni 4.730808724241874 1.1271636555565965 7.917003552783366 -1.4467481788913472 1.9467629519617895 0.1518696644205191
Ni 7.351162783051413 6.176271070566286 1.9685720843473877 -0.1295123797712415 -0.4082302468672776 -0.06340520372952306
Ni 2.7344455134127683 1.427664339910322 12.578854073292574 -2.4736848338357205 1.3245932679264414 -1.8948076419404205
Ni 5.4529816745160264 4.2559936393788025 0.41109115107738303 2.064202973949529 0.10674783238121616 0.6306226998987075
Ni 4.903067003780227 5.166734281237255 11.967590707159749 -0.5704611999174627 -0.06280870779610473 -0.9460818882798352
P 8.572349780385736 3.4753654490107007 10.224065249759445 0.3140656504677108 -0.32525843385973663 -0.05255951926427077
P 6.278100229061952 7.956899742592513 2.813651758998607 -0.2241755130737817 0.31527818271857316 0.029223158531175478
P 4.1514850110204815 7.108252093315155 12.972519366547903 1.8316060695812715 -0.7718122588975611 2.34929743399587
P 5.017865540708324 2.8044466635746135 9.779513288400684 0.870447746584288 -0.6916025820161895 -1.4716027760411818
P 8.39373706363838 6.506627375716046 12.597155410677393 -0.5473431258427606 -1.008258618918896 1.5504554246740265
P 2.895502120330857 4.9111054133681895 2.620182870457202 0.3528707962603665 0.31393221021364 1.0811779327864413
P 4.230343297672768 1.3452799453485014 0.3121805679147539 1.668134559255766 -1.828230211130503 1.6334809737376383
P 7.060430999238615 1.6048814994375444 13.02852586890626 -0.13133786301575445 -0.6891230101274455 -0.9189642061274367
Ni 3.358910850848046 5.102799153125586 0.43177610019418655 -1.754886151020713 1.6000031536951669 -1.1474789700065207
Ni 1.3283378806960933 3.5912897354297053 1.937907040363677 0.08275146946661878 -1.375282823861509 0.7104595668216926
Ni 2.8051072273254762 0.97687144666313 10.252293650836805 1.0393810513553132 0.00852706363440467 -0.15555585502285468
Ni 4.101328684528921 3.432698612933851 7.5785688320719995 1.4953836805108633 -0.8129666216486838 0.4636858567324208
Ni 2.2836712275951787 6.960583531995537 2.976129043166791 -0.24810605574745012 0.5504803859201616 -0.2024448062649094
Ni 9.030287926600005 1.680464878479919 1.6668619170695478 -0.8151399751509187 0.1993805655172889 1.2044649004732613
Ni 1.0249251336096916 7.9431581558316084 6.9346382625303145 -0.7252570368458412 -0.1532961124544005 0.3431638533852477
Ni 6.237675588252115 5.654416403669949 7.84709450939805 0.07370607143489888 0.052861880996037995 -0.355765087089026
Ni 6.149718268524565 3.776973275425731 2.7807668486634056 -1.5631595025042564 -1.2290539026665348 -0.38438660748046055
Ni 5.890628418749571 2.069509016593649 5.791959732171765 -0.48447374001204946 1.0422282909961214 -0.44504895835752384
Ni 9.198554912488778 3.549702130269757 7.865055330821154 -2.128460755487334 1.1732262541739538 1.4617297399018438
Ni 8.66952708148096 5.617713248780464 9.465084942990039 -0.5675995620989515 0.23452034664321547 -0.6337597028657924
Ni 4.423404683505894 7.9747349638658065 7.026933904469516 -0.24870203746023617 -0.05082865261609311 -0.2307241128255768
Ni 3.254030073897691 6.987182852611261 11.183051235089357 -1.3564831746565027 0.1465420815600186 -2.1706684992036362
Ni 6.323651216727076 6.431648738135728 13.297446954111349 0.728561675739042 0.9711678847141855 0.14271679427665745
Ni 3.6344310609614006 3.0830836181462633 1.4050079336272112 0.7790704831218712 -0.6963511524447684 1.4486510523410148
Ni 3.7025435570186658 8.841227138131257 2.48205247755145 0.7841597247193204 0.9673891343980436 -0.25250187082230063
Ni 3.446226214254335 3.5774272003763894 10.7125995924679 -2.860949019974292 0.7820789309308918 0.5800285318909236
Ni 5.179796696817696 9.059548109648782 4.448622402473688 0.36725791821997394 0.9306048756901586 0.6030836139381742
Ni 6.596259364107753 4.426791235693416 9.991229552781062 -0.1855616573563256 -0.9696406494363817 0.16075334006339412
Ni 2.1848843838394014 1.219977514410207 1.2952529404926727 0.04131634225028368 0.989827923017534 0.17440924028393187
Ni 0.5345253960836601 0.08397905127869176 13.571106421264524 0.16823422182147157 0.6031833727408322 -1.5447385767949073
Ni 1.340469924796445 4.583958889824735 4.47919254856643 -0.4289991039835128 -0.7160308902618829 -0.07749844859779556
Ni 7.932979891839442 8.328266822584565 0.6988401639250178 -0.9413024646133208 -0.8501663706274326 -0.6598965091621602
P 7.036101785034306 3.5507441463274563 7.630422156143243 -0.5975254031241064 2.1046268862925306 -0.8959065529770248
P 2.641733995421968 8.367323817318672 5.459080259568006 0.6421343000827328 1.5947190224780925 -0.6696947261995048
P 7.4021471401602525 7.443381204157767 9.520479260914497 0.30045705854534066 -0.2838945262009691 1.0051624964920753
P 5.251863271665336 5.8204039794325055 5.909541940568287 -0.09242190267684727 0.6388422595950223 0.6463521948188223
P 3.8493189617173984 8.709933114861194 9.247840411274975 2.000233155965787 -1.5305913387602477 1.082557329632471
P 1.894282852033816 5.858753891841745 9.80346570215556 2.06997947142199 -0.9040296963047914 2.9468948280084923
P 6.147057406091513 9.376004664886024 6.575777235973609 -0.0749653977632967 -1.6830343591857337 -2.0336559544006074
P 4.715987906564068 2.219540721472691 3.582150696380798 0.7568497240504579 -0.5237884784512721 0.893799533936351
