# total energy = -340892.2690290119 ev
CRYSTAL
PRIMVEC
9.04373614661193 0.00000000000000 0.00000000000000

0.00000000000000 9.04373614661193 0.00000000000000

0.00000000000000 0.00000000000000 13.23642200542923

PRIMCOORD
 96 1
Ni 6.354635264000332 1.827069780724752 11.34754436717254 0.26359695229419766 0.9306313580527198 0.4239754255166763
Ni 4.486443616323033 0.5446987845682406 6.138099287572304 -0.3675073152266187 -1.1425517079082324 -0.7269794188535867
Ni 2.624926245709947 1.6374949896406723 4.864464540255943 0.26060753064857056 0.5583780435006835 -0.3356333493361574
Ni 3.454589529712541 4.024797075645716 4.413340386251001 0.23619156369805125 1.311292437052477 -0.10804495392608489
Ni 5.227360720337645 4.812208025713341 2.694696859117802 -0.5183387681906106 -0.9080429312292426 -0.16956785303123054
Ni 7.354257476008036 6.241235860059713 2.665987519632237 -0.5419322392398344 -0.6521058094731479 0.18587790304516374
Ni 5.145352123564893 4.501926492114271 11.514006082520833 0.016111817960198057 -0.8159868965322463 -0.44329752288405594
Ni 5.523027576787975 7.877907869737183 12.27581512074417 -0.07344510446402835 0.24004024802018015 1.073887826882931
Ni 1.9452442771991183 6.394997457140694 0.1855114405624653 -0.6395626827008147 -0.7260065134173561 0.5762415540446657
Ni 2.711529060299258 1.3383553386203453 0.2594050931486064 -0.18428613307801164 0.7957440871228102 1.3649310483135395
Ni 0.47721171446487604 0.07378874525017237 4.959210334613029 0.6678954682072368 -0.42575437179397 0.2118247048179126
Ni 8.717365519675472 2.4158802913206476 1.5472186095452856 -0.15208486575511873 -0.7610840738467796 -0.7038050376196524
Ni 6.868283285869018 0.6201868477863882 4.887932130437418 -0.5242849584717164 -0.1408979959003638 0.3754527953259405
Ni 0.49628133589794016 7.247848879886708 2.059534489121886 1.0805930068172485 -0.7380017381060192 0.38775989482806766
Ni 7.6706344875763195 4.09045459798473 4.05517588877092 -0.06384074860504489 -0.11262743109044474 -0.6707977294556964
Ni 7.441891276485316 3.859088703494509 12.605574148263562 1.1304832067794723 -0.25094918162320007 0.46795517353173605
Ni 7.579356061547714 8.67358479438027 6.9644489467560255 0.6034016593992253 0.8823961771954159 0.9900050720253467
Ni 6.882554301055101 0.5929344541477676 0.2697646925755128 -0.47936161559646473 0.08162224095818202 0.937130078403186
Ni 1.906717962438209 6.229524222121832 9.219008886564433 0.8576937893527294 1.865717923663316 1.0232545781070959
Ni 0.2139449461043194 4.716597650208098 1.5568149176656612 -0.15337735931429713 1.2850301609218384 -0.6695993382722211
Ni 6.203568700205444 2.004363178511809 7.156801069122516 1.5123131092763504 0.5070241145087397 -1.5146849519426366
Ni 3.582015767971041 4.063920276973343 0.007908747009017628 -0.7235097151374313 0.01762002707460836 1.5946927972258471
Ni 5.805499622619486 5.609793178622755 4.961633151449754 -0.5145751873831202 0.6397979386400723 -0.40333563777913767
Ni 5.471713419521919 2.978889023509765 9.231517277631525 -1.1475257640840562 -0.26440633556937043 0.8667366162812881
P 8.933185232223439 5.549417198025612 12.580133214917574 1.5582198991107938 -0.24763580097925095 -0.0767361165104743
P 4.0155815088050195 6.091354025662401 12.651596815678301 -0.2751738584985196 -0.11901996488034987 -0.9928016609338773
P 2.2375197327021845 8.428924608176779 1.2905537683620678 -0.003971068832606063 0.30639964928202074 0.6611113554058677
P 5.935720375258531 7.703743604557467 5.895210769223663 1.8440406958001985 0.2601012804361133 -0.6452152530009017
P 4.752501281569791 0.9938070898501294 12.654337067643691 0.13640036514032639 -0.02195182168074284 0.1075091360272729
P 4.011267646800101 6.101691015749659 8.362558961319975 0.39983225261156946 0.009409980459990246 1.0390360093110687
P 4.794283341240073 1.0447775851535295 3.732074859591197 -0.44788539936505445 0.02153813118209194 0.5692190999802454
P 0.095070464474438 5.789573603771139 3.7690709742447 0.3277133231581324 -0.24069330822314677 -0.5055020214372583
Ni 1.4668939563895478 1.0944910011724773 2.7146048348650296 0.11172677365304629 -0.2678906945735451 -0.5845644720880643
Ni 1.9750524305915962 6.585883589924382 4.390216458032182 -0.34991402762488766 -0.3269131958543402 1.6027971715005365
Ni 6.160005024570867 5.530705708532578 9.495768908827168 -0.837564622703022 0.17143421681600798 -2.084824249744306
Ni 8.839139423021868 2.3799857036948144 10.137550389098555 -0.205907053781897 -0.7296076005050532 -0.12318823732542655
Ni 2.2991980112630768 5.481670572703083 6.877366814166168 -0.28372303362011136 -0.5373425629866229 0.06420430259205072
Ni 0.49351304835138754 0.0738927482125551 9.164448028124863 0.48538236786924793 0.1075685285102986 -0.43664042257885444
Ni 1.240565422772995 0.944102717567041 11.58188203326615 0.6131289139893182 0.11724358970621744 -0.8510672851751472
Ni 3.967134215806383 6.927356968502412 1.4371183604461633 1.1447078350192865 1.8565172310006544 -0.5345547158288406
Ni 5.651123051500068 7.872915727542812 8.263881854984822 -0.8906278210765888 -0.37161773785056645 -0.16821648120965868
Ni 5.488995998749171 2.7559247596328977 4.875874117416122 -0.7137562352950934 0.4498597494826059 0.12480726098608827
Ni 0.5765128385743266 7.46917622757303 6.954032371793205 1.1312177709526519 0.1857732591464994 -0.21673011253932997
Ni 5.2203518250466345 4.525621080065817 7.404467393125663 -0.36096411479146223 0.7158257162296123 -0.47108986250597573
Ni 8.164169240893768 7.123922567405783 9.043798261145788 0.1392925990864569 0.20747465537933302 0.4465491970521342
Ni 4.644627600239245 0.30527039955939295 10.34864474966 -0.45964691077635683 -0.3649292700867973 0.09067175275495998
Ni 7.938916911844482 7.261016559297948 5.0368155363958556 0.08114761531460862 -0.2547983801659612 -0.9477677606226904
Ni 7.1717006239508265 6.048088793311183 7.107442167549256 -0.15199256315162854 0.4654316357789339 -0.2890927825724569
Ni 2.6339428503617373 5.192551381014936 2.2170076353995514 -0.8641968805785698 -1.1988349558809934 0.7725681632269792
Ni 2.3881883721192616 5.171325732952999 11.292865035793213 -0.12361812577399356 -0.5996311366131996 0.1956640358976501
Ni 1.0115961182855069 3.465035044630111 3.5269638346743077 0.3539933399005839 0.04866738329871618 1.1732097991137214
Ni 3.80610145509447 2.545874950563208 2.4110536494925023 0.07800084215551083 0.43692607214007334 0.10585411692235318
Ni 1.1103989325491064 3.222047949560602 8.047929199519722 -0.3810020072789438 0.8551810502332046 -0.35139575437673676
Ni 3.7085918950587606 2.8274607102805014 7.048063711017401 -0.815474475672202 -0.8733428087438959 -0.6262014309025603
Ni 4.103115828187846 6.815775355469525 6.381967242514516 0.5187586293368486 0.1294928393872157 -1.0963903788608216
Ni 0.8809059957553608 7.408646503466278 11.610856354212395 -1.145116383311615 -0.4165336245266504 -1.1176785988156366
P 0.37179702491449257 5.54214603439468 8.06787696770473 -2.0795162072678313 -0.7697471488384162 -0.6989947607152026
P 8.485918231562518 1.620818340715997 7.840634112392796 0.5666225428976628 -0.13754142072330508 -0.05430941207584195
P 1.8675857173747221 3.1272424665468437 10.441485028871519 -0.8246821103133991 0.9056962853739369 -0.3588660946118529
P 3.9331749876544553 6.398352683144519 3.5179363775394865 0.8448354453328224 -1.1141194207094685 1.433985222798724
P 7.129873345601248 3.7700079052797313 10.384793466263483 -1.2673633397696946 0.29286510513069564 0.2641818782633901
P 6.435251125450742 7.69911321179747 10.265625967591756 -0.07526621683316716 0.7001129334800458 0.2723690420598729
P 2.5701121626663155 8.24476701487246 5.9992761333838285 -2.2744842455397216 1.36820251997596 -0.9777817904862774
P 7.116886540907195 4.047722946049215 1.9000355460117218 -0.6779109434617099 -0.5018114599595487 -1.2690265864047308
Ni 5.597339954344404 2.9182779057802786 0.5647134763986087 -0.12110178711004306 -0.7396739836021197 0.3012697842546231
Ni 1.6408321281727793 1.0866319947106862 6.997222541136791 -0.6714836997791274 -0.7201703663515533 -0.14152174552729174
Ni 6.929916345750613 0.8360535877608235 9.144421579437877 -0.26676763671269543 -0.3969626443732583 -0.1139194104289909
Ni 2.6670519673428847 1.6382184885094218 9.13155596080434 0.640439171768497 -0.7430112755054687 0.25973875489037207
Ni 6.643329400103089 1.9315520611080343 2.827577374473087 -0.666827946174671 0.5682855324223827 -1.2622298751978713
Ni 4.182194254542162 6.780007380145723 10.534285515645255 -0.059635709384761815 0.36016115927419257 -0.9127827599070731
Ni 7.980979327326404 7.402768075157687 13.014062513933098 -0.5007241404326409 0.3518325848038392 1.5592521970300501
Ni 7.631511286248691 3.9102310297792373 8.176481382892714 1.2050997058437827 -0.5886610107549409 -0.15932586358824818
Ni 2.999771009609047 8.338333506073484 12.362976838209592 1.1768270841513344 -0.280993036283458 -0.3844675972300411
Ni 0.014369591906950384 4.801039011927021 10.201667763220717 0.39771880581299246 0.605472425885325 0.5695404878754062
Ni 8.62934283855624 2.5609056395614784 5.779088296415787 0.6422841953970357 -0.1168833781533213 1.0008641262270375
Ni 3.6037930839204 2.4716168354219343 11.473793111022152 0.8146213836432874 -0.08195751281041368 -0.5506346521098388
Ni 1.227397743361755 3.2601311212644024 12.619379411052888 -1.2575450681276923 0.5487770300758097 -0.1872094773723937
Ni 3.1140747871356034 8.406270049849061 8.19538369521238 0.18473607613123666 -0.38357311044022974 -0.1308820064252585
Ni 5.6122982934558 7.997565538892486 3.501708297913436 0.4456940481406905 -0.8139531539316691 0.15834241662905632
Ni 3.1867231172939094 8.507975903323517 3.727680508337129 0.010034758528182718 0.5567531063027509 -0.3210749919060083
Ni 3.223467816090523 4.2055361367951924 8.989873177337133 0.4397964517093329 -0.6926325659426007 0.9580678569971179
Ni 7.01700752207633 6.033112366728069 11.498797231926133 0.9201260876460218 -0.6466643267426023 0.24083754711049488
Ni 0.251736005139862 9.102158393019877 0.47478799325456533 0.9900994315113658 1.0134386204579384 0.08763065193579102
Ni 4.717049837001067 0.33739646245262717 1.633506702126691 -0.020573967496609728 -0.2818001055657856 -0.8288658093774436
Ni 5.970574933260537 5.673325423034818 0.5013150792772646 -0.124304867428373 -1.4004356689780526 -0.7070240587775823
Ni 8.028079103681995 0.023639421162802952 11.079096442538152 0.0734672159512154 -0.8360101337317086 0.7284364630150874
Ni 0.055014853979709594 5.085907647761265 5.907216328576974 0.225041974839135 -0.7448845812687817 -0.3849005710024016
Ni 8.05792343201791 8.857244982212324 2.6973448649774254 -0.7280232867370688 0.05460277494654467 -0.1569527353703813
P 8.536897770601778 1.6260365763068527 3.8300646420010387 0.9661956283105746 0.5496329503182018 -1.0049534658050627
P 1.95137593011177 3.212904732606781 1.4531212510493154 -0.12817463479642444 -0.6069744643521482 0.5360523834202897
P 4.735408620795584 0.9901715080346634 8.261856962525908 -0.6523724328709732 0.6057123098102729 0.9143503615045092
P 8.386364787222591 1.81177682338656 12.451951824714815 0.448350511926931 -0.758489830757042 0.426060333070163
P 6.343511468893309 7.5348337499120435 1.2879491724345695 0.14179325402112355 2.9611945324606164 0.7963120438111383
P 1.955843535626298 3.6310509038005363 5.843575559334599 -0.7336655726245106 -1.5573853190246405 -0.19484513954078056
P 6.8237067118181916 3.987636364999571 6.065127191670233 0.5100431038407216 0.48363221794736055 0.3527026461136184
P 2.277420695313718 8.234574724558952 10.215817592346285 0.3283126473050281 1.0369819549955175 0.37305035653203494
