# total energy = -340860.3139122166 ev
CRYSTAL
PRIMVEC
9.47843820441717 0.00000000000000 0.00000000000000
0.00000000000000 9.47843820441717 0.00000000000000
0.00000000000000 0.00000000000000 13.87265240737516
PRIMCOORD
 96 1
Ni 7.100174687873938 1.7512551621920616 5.574489288949644 -0.7751626634270328 0.28646074426624857 0.28264239896142296
Ni 6.177079089262089 4.561412982693788 1.7997127286353274 0.10346787607836375 -0.3864951691830311 -1.2903831977036355
Ni 1.906445627604704 0.40881545732359476 2.3630532650237988 -0.21373683423896095 0.7883737628006681 0.9382567358084615
Ni 8.21431768286136 8.946252143841612 3.912102065780111 0.40797622187494254 -2.489527200184616 -1.4243944937864952
Ni 4.199384043193644 4.749626326106655 10.781867299942277 0.7767359214514236 0.4455495521430262 0.2554452697213407
Ni 6.779310604618043 3.85860576169479 13.110364075697072 -0.2677202304339519 0.03912344836402294 1.2043409733008872
Ni 8.721973343829765 0.1392761680066797 6.276306961021197 1.5247017127486904 0.3061929325878533 -2.3721298585093535
Ni 8.881324843525444 0.6379320520918447 12.756750093455423 -0.40689353033372505 1.2689168002997437 -1.7975713485940656
Ni 6.147117746736629 7.811550416827071 2.654879205615663 1.2048932462599313 -2.5746302006025465 -3.491178083979007
Ni 5.109238263916198 7.6039252323853725 12.095467909344764 1.0447582565068263 1.5792713204644544 -1.3142803160362075
Ni 6.221049563155037 6.193078692610073 13.751848646352201 -1.0068619956816853 -0.1807048434846565 0.2600310893198102
Ni 1.1261806112504182 3.4793355434683524 0.6002846441902705 -0.6947596395879325 1.0678130814437607 3.213652180308543
Ni 2.8813219330234476 -0.16481392351643856 5.524339821322957 2.139139061136787 0.251976851556766 0.3341706487477019
Ni 6.652631280716501 1.253115852978025 12.962467268327245 -0.2521899960088367 0.47874789327186584 -0.839516090002438
Ni 3.3409408701958925 2.7607846369474336 6.008092757337011 -0.6414524435243598 -0.2787183813166684 -0.08199916468162653
Ni 4.066060334252446 1.1295549351792584 3.0907432814665934 0.36357892670648995 1.0801674892440558 -0.23780081716670012
Ni 2.3232125465684783 2.7732866966725465 3.2758467493708836 0.09294589350111734 -0.7592529341753117 -0.37898960483460536
Ni -0.019621314508685695 8.152906883044068 13.618726828140455 2.538837359273653 -0.28348752057053755 0.8332510829293328
Ni 5.5724305722155325 9.004497145366114 4.249234940023257 -1.367841022871483 1.7726239346201085 2.4002829239048014
Ni 1.1285502207510083 1.6242914851504475 5.460345199306222 0.4261284673039371 -0.3709808755975159 -1.6624107693981112
Ni 1.7668661495819484 3.6698711041917957 7.775413871943073 -0.039412954579983735 -0.5148178995215457 -0.7672302959538335
Ni 7.430678342578235 8.000654733412158 12.753517946096618 -1.2357338857898719 0.3663261504343239 -1.1443923606613968
Ni 8.522774490772164 3.8744252747207297 5.4991745684266915 2.1674139968220802 0.03801067491581841 1.3041278009832378
Ni 4.939507874607934 9.47967019930043 0.1730478426090888 -0.34186621761974667 -0.3703684388244976 0.06807766950452791
P 1.0664380165215424 8.948555404276185 4.68238059985511 -1.7522178601599305 -0.9130936062792726 -1.2508365457592652
P 2.254882487009464 0.458270155444709 9.376525836958749 0.36332438749352264 0.6188925559459728 1.6566887793126692
P 8.003687833572913 8.085098137575184 1.4835414200344008 0.069095569246081 -0.12621648262878907 0.18219634042851848
P 4.3287742003638625 3.240336729238842 8.568748706458813 -1.149103907204453 0.2795678738011572 0.29609672469411585
P 8.570801736130123 4.126362156823462 1.2433236786777868 -0.964346748027294 0.6460292642617648 0.5291446005568629
P 8.59697170345464 8.606412227704991 10.883372840353355 0.20441195729360925 -0.3376447233392314 0.3457627244606755
P 4.117414511349233 6.046049162317463 12.858269851523502 -0.5977539741951448 -1.4692561301858762 -0.2711570240296427
P 4.064496391982057 8.740873349206472 2.105840684328953 -0.26031828154292586 -0.8923574021731857 -0.0979780566083861
Ni 0.3931248510544878 7.499008402137249 2.560752629189426 -0.8977094105137186 0.09788755377710884 1.8344674502894667
Ni 1.9382552655406244 6.056162655665981 13.867602174768423 -0.8379402608748858 -0.44558606180791643 -0.45079100304762365
Ni 4.080041030305927 6.919098608276852 3.755243395279053 0.04593481485890154 -0.20422683786599663 -0.38793190162955765
Ni 8.991123069344784 6.632963521861603 5.387971638095402 -0.1672949978366538 -0.2575330054883049 -0.5337718149162292
Ni 2.3115540678255755 5.703451020722155 8.836823577104363 -2.7534182866804646 -0.6335578712676314 1.23345871660245
Ni 7.250388973335343 4.49306396625877 10.249836887807003 -0.5751254381623515 0.36141971427164205 -3.8271227939079964
Ni 1.34799501738165 3.172518505331955 12.443838419683509 0.11253050050126426 -0.7410646933020592 -3.2126795319826287
Ni 3.648430877430457 3.104889850185115 12.320218735569126 1.0289120335031894 -0.959102211798903 0.30805595393852103
Ni 6.07664556018908 2.839019664218914 11.060027228622339 -1.1538149395268773 -2.006952734077808 0.2694104736521812
Ni 8.05154446704683 7.8225833186618186 7.241274507352273 -0.5498309252616208 -2.1404516093006234 2.1043872594778983
Ni 1.9014599692154623 7.995526898452881 1.1497127292788778 1.7744347625766022 0.8449395750108545 -1.0359344875676093
Ni 1.7304689476528858 5.9070099552608415 6.46326820277395 0.6266462317494628 -1.0839259278452236 -0.15779091500096054
Ni 2.6672134969881345 2.9773859021773674 10.074112334306047 -0.5471065843519223 -0.6670076662856448 -0.5568469515681378
Ni 4.013502395529359 4.335968334807653 2.9563314478427243 1.1861527324276346 0.48765368040192797 0.5510876804868573
Ni 0.4070230846973485 4.075481901626793 3.1597605277807785 -0.7516057020426992 0.2252900862941991 -0.7139313274203768
Ni 5.261575719490129 1.8306560373378322 7.298512898760926 0.04634619136470728 -0.7972911198949558 -0.717482792217061
Ni 4.297258394006015 6.3690648509998935 9.110157085153624 2.9829923450619984 0.7950102942805792 0.07275167794142955
Ni 0.3787062511652976 5.458878884947258 12.232862607407975 0.13032741947336912 -0.006588451850795106 -0.600401696230637
Ni 4.1106184713015415 4.817690989401602 6.93045756837888 0.2917222497755041 0.44652888533716 0.937241921390702
Ni 6.770580963217871 0.15825484441880536 10.396276859255867 -0.27344119207812906 -0.07968620027773374 0.08988936606298067
Ni 3.943257691493869 6.774817825004925 1.0432973579825804 1.1799921121428776 0.9891365533774642 1.1186373631844801
Ni 7.448327194138629 3.6817855007607623 3.61836242855557 0.30582449350484103 -1.7165324909431792 -1.3787538131292447
Ni 3.6959178518222813 4.508722345838669 0.5061239453872245 1.1798995524290712 -1.8252878406727273 -0.40244346498217143
Ni 3.2056930383402156 8.02644556321658 10.244246505073212 0.20194961179604573 1.4422685458534386 0.422729211814401
P 1.0320312865729753 0.6522245887556035 0.18308456060978795 2.0773929902772417 0.33519909001221626 0.6720233743326812
P 6.01965171248089 5.421713929540004 8.40878300398058 1.22289379660241 0.12332296313107795 0.22044972748276226
P 8.158157937697377 2.523169674666268 9.475035243117278 -1.0948834552979918 0.037513680674741846 -0.5990176713989167
P 2.2670622798424973 5.087390464320757 2.0400432634041694 -1.293884783098991 0.4066600741666803 0.10534426716547018
P 4.7128310297814915 1.2995791560655945 5.163567722701925 0.4246858213201395 0.1111881275407569 0.6923944817898656
P 6.023357781739813 5.358758144328327 3.8458601061130167 -0.41810816810262186 0.6675224011385342 -0.1141109576145067
P 8.46797016224252 1.4353009098213891 3.975985790072218 0.4322201820239718 3.6101404561485437 -0.6157668658327975
P 2.085275317395232 5.023477356870842 11.028993874758811 -0.44777098527437725 -0.43048828693452956 -0.5525077007628355
Ni 6.914169820515624 3.566224384635988 7.7180636349659935 0.8541862904201031 -2.6379148195938056 2.016431877212837
Ni 2.001466968578364 0.7042280388555523 11.724860035608684 0.787675708292379 0.09958113942944785 0.3876557651500356
Ni 1.1096217800602952 7.703401439220142 11.322900332492194 0.16704045862368652 0.6088344003790224 0.8931829833982746
Ni 9.04769986578087 0.779247032112832 1.8719896097785242 -0.6975901670581922 -0.5621117995115028 -0.052072038104890965
Ni 5.4452488910998635 3.470947125836264 4.8741559402692625 -0.8743265128134038 -0.577823810930121 0.41733040939633287
Ni 6.61098302413413 7.006849987302702 10.111123739017664 0.38369215251659733 -0.06365845739090972 -0.3039712423461862
Ni 3.0050629411442586 2.066337398266517 0.5719261055310093 0.7164895750658563 -1.0488108293096454 0.46349662353975013
Ni 9.31026207688425 2.1635293015427175 7.120263289376141 -1.6494950897777074 1.3738599753720533 2.6767490188521834
Ni 3.1213349401192105 7.731533443211147 7.687793295361656 -0.10202111632950818 1.0035303602052912 -0.7705747869460341
Ni 4.584966901129654 1.2825084892233438 9.67034793659391 -0.517279730798477 -0.7460819440109925 -0.05672830592997972
Ni 8.540811958290657 2.959490611228911 11.824424391916875 -0.6459423609749133 -0.08349477539054652 -0.17467329257859596
Ni 8.532015967824467 6.181287515735137 0.267446450205994 -0.2392529762321944 -1.6737210522046078 0.6890602752103101
Ni 7.208181488910832 0.5535057091172225 7.919814083533828 -0.4073869250303758 0.7698044844389129 0.9132800112584659
Ni 6.608859854021602 5.047903291602925 6.240904047238581 -0.3688951967130808 2.8846684750784193 -1.7514442152187
Ni 0.3214716511318462 1.5063418026490782 10.358792480487931 0.13440853152127819 -0.5883187969241739 -0.8695326909691863
Ni 5.341649563734068 8.516016364476483 6.616907995729406 -0.12579070794528013 0.10629274712166854 0.5365167246512179
Ni 8.751337544761078 5.098593978039547 7.70154176968408 0.6265791259569532 0.6089449578149577 -0.43829261347029674
Ni 3.06056867408608 8.37946050817648 12.90943256417264 -0.5301403888112289 -0.3415936806846504 0.04727615937814439
Ni 1.4001832970226447 9.544692283996623 7.527523335023549 -0.7471561509117777 -0.15052497746716656 -0.6167958213179442
Ni 8.181806640513265 5.874887528870843 2.8852621197010286 -0.711384392628807 0.2069951446397532 -0.2674474363885394
Ni 9.3297402669791 6.503743976575429 9.747827532356602 -0.45036497125379854 0.7091202791849788 -0.6957145473020342
Ni 1.7085737558674339 5.80836785097028 4.193730154925236 0.205909110664426 0.3538421590347003 -1.596899832179495
Ni 6.451631524438453 0.8739546367886141 2.3821845442877625 0.40979656291313293 0.4718187702522003 -0.5940292170453898
Ni 9.659855305725298 4.153404140444195 9.815594572698277 1.275236057649552 -0.5952134671614782 0.1309138881044584
P 7.799910894960172 5.496129146296533 11.82669921703744 -0.5302900270152158 2.002669276211106 3.079680479214367
P 3.919438376793938 6.736306931401336 5.902133298908628 -0.5153393192426545 0.432582707569713 -0.18487363015036548
P 4.30294545680743 0.9985439651106368 11.869801466009372 0.4001796086486592 -0.13093702803291 0.7375104002918976
P 7.061351005816271 7.883937247851095 5.304125375526524 0.3068205388695232 -1.100014091656338 1.382919257360844
P 5.042367883809546 8.66323546352914 8.830720410874644 0.8435545217378697 -0.06965375574239616 0.6333046176062449
P 5.483901961273489 2.0953982891817526 0.7148012364471851 -0.2800283583773435 1.1295164719908288 0.42690648312054225
P 1.618092586696904 3.766816568079935 5.052697485544519 -0.5539984263757491 0.5389009086126785 1.4522356843684796
P 0.9404373487809683 7.238692580840429 7.828767999458358 -2.113844805346372 0.7160200916286055 1.0316353459716232
