# total energy = -381174.2268195842 ev
CRYSTAL
PRIMVEC
9.21357702377540 0.00000000000000 0.00000000000000

0.00000000000000 9.21357702377540 0.00000000000000

0.00000000000000 0.00000000000000 13.48500129692969

PRIMCOORD
 96 1
Ni 4.6544134148114855 2.3194442688911496 2.4233761800794804 -0.7001810677138199 0.5671714734225973 1.0555892856840594
Ni 6.285327084063976 1.0597271846546155 9.248472372965766 0.5917658749325099 -0.4182986868468731 -1.0749664046590905
Ni 1.4233133551743642 4.874129582476188 1.723126832017424 1.5159640757653763 -0.32460640209803454 -0.17849292343500228
Ni 3.4140448420059863 1.9293045698265245 6.719697480259945 -0.5768056540782517 0.2771988593483484 1.8441556241115078
Ni 3.5137081030295563 0.9300829444898144 0.5321844923413447 1.3090717752520744 0.8415408337419507 -0.2785682288920493
Ni 8.640667448448129 6.376624417287841 7.6953102362200445 -0.13210713708161118 -0.5256517569122561 0.5260405077102424
Ni 5.303316420324014 4.982978779641063 4.594232173399472 0.017707444582092086 0.6993757982037051 -0.14100598223313782
Ni 6.764340945635151 6.888447826099927 0.8455382417553797 1.083137370505657 0.09290269896800774 -0.7789609541272005
Ni 3.8270710660204634 8.685316441969459 3.466791648240047 -0.37644061316050653 1.093327937885414 -0.21060908724325664
Ni 1.1809041476741213 3.1356013353596603 6.009617245675549 -0.09456183183798553 1.066129265983435 1.473800555023449
Ni 0.48622901361957693 8.078491842030994 9.549241297730443 -1.5009961416016342 -1.165661297342502 0.6093897586618601
Ni 0.15397545396817022 6.920345229230518 2.8586043602822255 0.8645419226228144 -0.02367034703374633 -0.46954771482983654
Ni 4.736948636430155 7.872034011484987 10.091379217166525 -0.08704289775312106 1.2260655094621722 -1.381093517006015
Ni 8.472252476806284 1.8038248664078318 9.098613545143971 1.1642597890092854 0.4202475830431278 -0.4395010319561012
Ni 2.883573153605132 6.765704555012196 2.301336826264763 -1.263830644026088 -0.48718214008214805 0.6748521020307281
Ni 0.9424844189594201 6.015461417485408 11.29190828357784 -1.2265542761731327 -0.4328367325620481 -0.5526298281629967
Ni 6.998743554833694 1.965652130586253 2.5647797084059145 0.322311949636903 1.2853227524615927 0.2707147942859015
Ni 3.682860160821155 4.355193292318978 2.991405171883347 -0.11803214704578383 0.8886460147598697 -0.4368702792014734
Ni 2.2703451177406824 4.090054190675706 10.621217932836279 1.0131408867118616 -0.7527894379381551 -0.9407946717389669
Ni 3.4791295490292367 7.011688630338744 7.616787527329097 0.553436126114376 -0.839386249292793 0.8118597617377501
Ni 7.294232178693075 8.953210403097435 2.025420603754405 0.09516629819120385 -1.1067213284731843 0.6528910243786046
Ni 9.138891617797261 9.241401874074255 3.41927078280774 0.6807766950452793 -0.2608679833988088 0.13292937587259043
Ni 8.75078811922133 5.761876141239525 0.6398405313013062 0.6293065521904452 1.8888465392609795 -2.2183241534083855
Ni 8.124071406816388 7.3712576813423345 11.957622381450875 -0.7235392828237862 0.09071006219206314 -0.22535179277006995
P 4.111355980403587 1.4220971630272707 4.483507091983474 -0.10422892261410438 0.23878657811873716 0.7552456127881315
Ni 2.4233089209683154 8.965307829530268 9.026346854949058 2.663215246031807 0.07342916362442838 -1.1096490436429405
P 8.852727133732264 -0.07593000835918857 5.470325400135204 2.227211942816319 2.585048310612077 2.3374389919953873
Ni 1.597781646821061 5.748580949813342 8.844852289579833 0.57483464639481 0.9223696322645598 0.4360125591868685
P 8.77284542225271 4.48785958569777 12.053002250586689 -0.543572860167051 0.3372642000713611 -0.3209274105845505
P 1.4011362756436503 6.995767569504064 0.6606097762859907 0.5179872983884628 0.3670959387208129 -0.021698568019356178
P 2.6282649384841994 7.316178918801991 10.559685981054841 0.16024708985093694 -0.2172661875484581 -0.6329649748786389
Ni 6.899329060385666 0.5152195332470765 4.866183793781842 0.36842931282025576 -0.537870667575951 -0.8689084271216261
Ni 0.24107784564225032 2.558785355293043 11.29580562659466 -1.4074396110997116 2.2891235927194513 1.563890210022694
Ni 1.5695696744392391 7.652115145129104 4.890079205399171 -1.6117091292781855 0.6992953226747569 -1.5979174748107319
Ni 5.562494337731153 7.906133459487967 4.668979158488306 0.8736037757147664 -1.3635071713828195 0.534343371148983
Ni 3.5503597118260584 6.772817436357319 5.2030128157078455 1.0175259031534347 -1.1300085811358989 -0.11578191755902639
Ni 5.89542693799802 2.354870471963686 0.29324051110263133 -0.2349435502235631 0.03984592835234428 0.0724850545436042
Ni 6.217754711285306 8.6772637757834 6.918695998970445 -2.7947652250583674 -0.19442527839454257 -0.22869268421784483
Ni 6.002672972787182 4.478802639632671 1.8867138893783824 0.20196221020153607 -0.4140206282968096 0.18417300453891505
Ni 5.153052195119854 6.866630076067218 2.356773996945425 -1.9219047552675288 0.38740791080528764 0.5717338959822992
Ni 6.109320125079667 2.6280345990624014 4.809371957431891 -1.5074308414833844 0.4750185081364206 -0.08880256075670512
Ni 9.195112863869722 4.094808396341617 9.500237046421757 -0.2655864719204007 1.294178145969694 0.1650817922354189
Ni 7.104312718632166 3.2834608170002495 10.768042729794152 0.7171480345854617 0.2494162899184414 1.2631775838231212
Ni 1.6809710323976363 2.893339545089368 8.4670431204429 0.26726745916724937 -0.07731152939797008 0.02895884912619529
Ni 1.3264233807892425 8.010808906329864 7.128010038346748 -0.5649330710103818 -0.7592966429290535 0.4413856505733237
Ni 7.148095635927535 4.954536467837443 6.3461495904262755 -0.24640115724120146 -0.24289674363236874 -0.49250946583233246
Ni 7.209190864165243 5.8840205298305825 10.330589470776838 0.9907136680565969 0.13498908661509654 0.2929360675779471
Ni 6.054554624152969 1.364180618810375 11.428525358719309 -0.3721129323194301 -0.8280088606937868 1.6864274440276827
Ni 8.297572272891532 3.5181214063512063 0.5486113785462927 -0.07002399459762133 -2.2257803525761153 -1.794683228412993
Ni 7.877626652646244 1.259136628893603 13.158974220276848 -0.14511100554044687 0.09739827284551612 0.15089264521923043
Ni 3.8977576277818415 0.27740605789054784 11.790813336257804 -0.4563954937185946 -0.2457172438002994 -0.49538395916665007
Ni 1.704355090498572 1.3052874354450554 10.470954628989805 0.8370948821554551 -1.161778160238012 -0.40916484286640503
Ni 1.6940727387095083 4.004939167532899 12.831315471411468 -1.046126340498947 -0.5110754017599779 1.3399041872518989
Ni 1.2042605650444411 3.339138462037268 3.648879567959823 0.44268842854514734 1.3816679014522462 -0.1821562312192024
Ni 8.096145055317596 7.310788976331916 5.316475250812492 -1.1098526750133144 -1.0609068412422311 0.1936457199160407
Ni 3.729305801832509 8.984877466806228 6.281326548986187 0.022235414359432673 -0.6029504307944197 -0.6459482745121843
P 7.227148125488617 4.314137593777698 3.961502680727915 -0.15535248076279695 -0.24107228882912027 1.3789911259510315
Ni 0.8595207660162071 1.049527755057399 7.222377335384337 -0.37785497700952986 -0.003360431831800664 -0.4381028660569939
P 5.162385548491109 3.6074286069707373 9.742145035340169 0.3429229410190352 -1.0365829197848857 -0.9635265661188437
Ni 8.832881089150147 8.364628685365375 0.4680294352244712 1.2933973019396112 -0.11766782172782962 0.34610468118112653
P 5.231708500875444 6.0295213357919595 6.4728003394653895 -0.6273800245916937 0.627402393189197 0.1396443259989208
P 4.9236341310090195 5.765847192871322 0.3369755177982662 -1.065335566437546 -0.5009249435895373 0.10895820976897364
P 7.186414902137855 8.269876260814538 9.922169113840635 0.48069987479191406 -0.4976496152723752 0.07476767993019381
Ni 7.09195731204692 6.493636843561239 3.2139342445670462 1.3511301378747054 -0.4952353494039277 1.189900372395525
Ni 3.3867081594269965 4.385386183728263 7.661880615255653 -0.3947311839395782 0.45044544678274684 0.2974118439611136
Ni 3.9244862142872847 7.712897111753167 0.10725893379678174 -0.20780761323871952 1.2383651527651316 1.1263622426325635
Ni 3.3631766840961106 3.554579530033398 5.147817962098915 0.6553086326811617 -0.21320101634014893 0.3691980726654803
Ni 2.9747414967527908 6.0101912515146685 12.48236414639508 0.3819476590216648 -0.5549651611643927 -0.38012089022557116
Ni 8.522678383026308 4.517858991992744 2.4250484442817344 0.17500445066576958 -0.5956158448062193 2.4859199424493315
Ni 3.6163934172671164 3.973244463093491 0.8549314833763032 0.6763592827038739 -0.13930416905068266 -2.516524811819382
Ni 3.879652949228517 1.892947795489924 9.588833880264463 -0.6944063700135717 1.2763393180160598 0.7774522307921579
Ni 2.27527438136716 2.2659318144190324 2.061155461652151 -0.13068403148183944 -0.27681679341858134 -0.6865953586095852
Ni 4.584399444161758 5.453857052834333 10.372582190085991 -1.6264356368550827 1.0485699169434328 -0.5749529171402291
Ni 7.427442073107309 1.9035618360463773 6.8001762315208 0.07526364573000587 0.024816801933363712 0.5928411102745597
Ni 8.64168094190404 2.349978062644696 4.591980375211975 -1.1434801332597726 -0.5429933335144971 -0.18521790086366163
Ni 9.15734641227172 1.6117217886282778 1.8101997402455139 0.6739653285504006 0.4389233050757602 -0.5957261451318385
Ni 1.179761664142003 8.312258714425376 11.965565406072157 1.2668681453008308 -0.6591298061994648 0.4841454101383534
Ni 5.6386721913081965 6.768229075075102 11.891195256277383 0.04643772263724905 1.009870443490706 1.459804754964989
Ni 9.111103469951546 5.227175421054459 5.0173242301465235 -0.6033818619048834 -1.1438835393457785 -2.601654037489558
Ni 6.083135139609668 8.781027078514976 13.306998624943445 -0.3277153800406614 1.693556084652664 -0.209997936021819
Ni 2.0701801601981975 8.976345694622829 1.8651375350597175 -1.5474780872132576 -0.2784450730506237 -0.09972974919217019
Ni 5.297677711278398 3.319642533376283 7.032211872820947 0.7207128691185846 0.08156233425452404 -0.006397418885911563
Ni 1.029921263473951 1.1240655919512403 13.147080413892887 0.9851950522312131 0.7050970169581986 0.495203724835044
Ni 6.73459951949259 4.982398324298131 12.901410521537672 0.6019124764482086 -1.2349260451765958 -0.6340137278581275
Ni 4.880293465403502 3.621755719006575 11.956490032853315 -1.099500128134397 -0.5747963369577068 0.23775145198600342
Ni 6.969785282725246 4.165347540873045 8.674671996609328 -0.09992129637768597 -0.2570930897374089 -1.3750275133175933
Ni 8.665111067889336 0.46223593808740726 11.089849014630486 -1.50520632302824 -0.9055466471699501 -0.29423858843945455
Ni 1.85302536690389 1.2279486711821503 4.92044807612671 0.35221593628518694 -1.2687645909925958 -0.9722521189172998
P 5.374675573197042 0.4586196091651783 1.9402622768003004 -0.9703628723143869 -1.2787659251796817 -1.2248488634462518
Ni 8.11770482519789 8.7999517654099 7.82843444436937 1.7690349317172693 0.017422823462137735 1.0638795507173096
P 4.519314737138508 0.386504021630965 8.367119115193855 -0.6615091050649188 -2.1037395985915706 -2.579682418314473
Ni 5.885872458781838 6.316579536813531 8.442149878450344 0.15951072590554466 0.674679838118922 -0.32174604983110394
P 2.3308783177892036 5.256059984547931 4.260613161655646 -2.2669259735764897 0.9937874218859143 0.22649747633873898
P 8.750180023147783 3.6306283935342347 7.293942872379296 0.16343834309472496 0.08390409501382323 0.6418622773682687
P 2.765206331531562 2.2225819352366436 12.129596557838342 0.6150500422714311 0.01166020994674766 0.2894015720621274
Ni 1.4281965509164825 5.620862347214773 6.448109796164015 2.198969403030858 0.4447499390598663 1.1362082821887076
