# total energy = -340891.57301677956 ev
CRYSTAL
PRIMVEC
9.07297235338732 0.00000000000000 0.00000000000000
0.00000000000000 9.07297235338732 0.00000000000000
0.00000000000000 0.00000000000000 13.27921214928176
PRIMCOORD
 96 1
Ni 6.277544218600307 2.0564254797659096 11.204415000876104 -0.02797231684320989 -1.5411691142760942 0.37924440115788877
Ni 4.530643191269449 0.45911962088731867 6.010702657387166 -0.35662460687584385 -0.7030966986987182 0.2211341551442966
Ni 2.6984471506792636 1.6247697462454647 4.668041562963444 0.39569689028695726 0.04971870738136598 0.8039096536527381
Ni 3.46240049728585 4.243556199507764 4.985853268362123 0.672766423146293 0.6284663156773369 -0.8167425437513482
Ni 5.196572144380262 4.49780810425897 2.993864945671957 0.18559790991089972 -0.5287139407773475 -0.5874531064897689
Ni 7.181602404559145 6.014781865765147 2.4708235125395657 0.22967381718419155 -0.18731772081548387 0.014217172040646483
Ni 5.122355230385869 4.262545930680167 11.593111117517324 -0.5421212153221889 0.9061608837151813 -1.016111282194095
Ni 5.855560273627297 7.622231307754463 12.484490731884994 -1.4800539921323284 1.0753453852650643 1.2766982440173753
Ni 1.9369435066128338 6.3942861540973555 0.517302778107764 0.41826834782956995 0.2614863337090981 -1.3498319878885723
Ni 2.747314179869215 1.509125640405302 0.2540668161148396 0.13791500201263987 0.3303695298340569 0.8527996944852215
Ni 0.510359232352274 8.938229658271666 4.5083717659904705 0.8680561064236599 1.240361100149238 0.044689372487574645
Ni 8.686409310115874 2.307293165822751 1.4462127426878788 -0.04426616890722699 0.9440630580775935 -0.3054701954892159
Ni 6.796545457135914 0.7110633614673554 4.918885659292122 -0.38272387506605704 -0.4109957254275567 -1.2545294212298201
Ni 0.7969127333385467 7.198487206141488 2.438116354439518 0.05158841360025309 0.3858120270730775 0.6782143336347417
Ni 7.676623777118324 3.967547307011012 3.7632357640812395 0.7214430624163898 -0.1834240421880325 0.4722296325373738
Ni 7.409923754274169 3.7175415533294105 12.690903575215879 2.3001839642986712 -0.5028483858644952 0.17070273796662216
Ni 8.194028172516642 8.758131156708254 6.4769227864519925 -0.6849454817109881 -0.6282428868126213 0.26223683872187736
Ni 7.038058908678303 0.708545611634416 0.6455020631148513 -1.394006111302625 -0.7297790930859108 -0.6791044495491788
Ni 1.6731105430379005 6.359019510491462 9.382612957434084 0.9585797636365299 1.025966320611304 -0.5621645071263093
Ni 0.141396830617875 4.856018126436553 1.5375204147374353 0.08683078174231498 -0.5902723211061188 0.3074574011225737
Ni 6.19414545656651 2.097181271656229 7.173616374278232 1.6427765401069512 -0.08413240897454544 -0.3201684209313389
Ni 3.464750397129927 4.009972525817587 0.2502108028571847 -0.15627139303264057 1.0826036094893743 0.6540889013414477
Ni 6.103905673365015 5.6707891912928465 4.8244042615072065 -0.0034799881288004584 0.9775519338636584 0.7874345388158503
Ni 5.1517698068124975 3.0142500999950133 9.21747306541866 0.8048589049398848 -0.02801242605252595 0.48840701362818467
P 0.25422650042856837 5.5614054363886405 12.676083782145165 0.4171110942966752 -0.5103236111956179 -0.9211524720280071
P 3.941489730361636 6.1352437199342855 12.64769263700198 0.3233306207094044 -0.5451003525551709 -0.29200944199861967
P 2.2741586707240318 8.604353347992978 1.0980328914663842 1.0283517901243453 -0.8701294440129209 2.0512340724936866
P 6.004964909659775 7.745188229325613 5.719807739121393 1.7589850036804353 0.5326952940225986 0.7973931926904589
P 4.876241781851407 0.9820857483490314 12.574311343762952 -0.36708899674227746 -0.20045297264586123 0.05408315499764879
P 3.5750777411607118 6.35138006775512 8.423987193744624 1.2706826339509147 -0.6080301593101722 -0.6179659303666454
P 4.678759465225251 0.9240640900367889 3.663415829353255 0.1490674190850336 0.4876377395623279 -0.07466072203868432
P 0.48575877506567283 5.470421669452728 3.852458467079951 -0.37790511352117495 0.522354574218223 -2.3449173026503036
Ni 1.5793323006117337 1.1735708302379877 2.5280031990157834 -0.7430644973409074 0.45381436325497976 -0.3724155511615135
Ni 1.9994835051658104 6.61756293117413 4.84261008786676 0.3210307689316342 0.32448350336692505 -0.42572017612192486
Ni 6.316213226845307 5.799906661103874 9.491887836669836 -0.20581089452366488 -1.1552843249835523 -0.8940000799829313
Ni 8.661349760427303 2.307311311767493 10.434672190599613 -0.3503356885433386 1.3691260602314936 -0.7243736057996235
Ni 2.3963806815331354 5.3403061726808945 6.8658303033494565 -1.2946329741189253 -0.9494533758552294 1.3931792445259554
Ni 0.5397012249999349 9.402502727465684 9.133575289904462 0.24578794913723473 -0.7745330002628339 0.4375922449691625
Ni 1.3915852833396098 1.2161230706577557 11.556805618574957 -0.3612924446651584 -0.4770476227513075 -0.08648882502186395
Ni 4.191314024595818 6.864919376923413 1.4226420677653808 0.3484220164603935 0.655848821455348 0.5652300334255104
Ni 5.3903436153066995 7.628446293828564 7.944447941239239 0.15161306832502275 0.33596476453364726 0.8289725101586367
Ni 5.294188254119343 2.6740590009461425 4.953332106195681 -0.4528609982027749 0.49940850694501093 -0.22675484376518368
Ni 1.0223788186484322 7.646782770990261 7.180348519777479 0.1843460397816696 -0.6636981422964376 -0.06132081039666858
Ni 5.202034073747575 4.959549814161495 7.2854670703701006 0.022465528092367758 -0.6317277600374281 0.3047268895652881
Ni 8.519475691462716 7.253932140300381 9.301290998775997 -1.3980764247172568 0.05888777547514374 -0.23223077927809038
Ni 4.315595600133128 0.2818936223765515 10.56954918327172 1.6989862545293 -0.06850601529119814 -0.8128421802556776
Ni 8.23524668599788 7.090028894419119 4.439665775414195 -1.0129310846939008 -0.14825237938290595 0.7002990813489229
Ni 7.2951869456711025 6.405237231749095 7.094525459526164 -0.40130858004677983 0.13023383131829827 -0.5658026180995288
Ni 2.6131702833646795 5.212041562272737 2.603814234255753 -0.8037240200044932 -0.6290093326650006 0.1019738080313405
Ni 2.4675218578937756 5.055541861846174 11.400402998952764 -0.29807133192198343 1.6099129566097112 1.587246368250131
Ni 1.2039652876806792 3.4270884888181024 3.827626648997891 -0.27654811313822697 -0.14113248050867305 0.1855166630510031
Ni 3.813161609146881 2.756550465742844 2.641938864158496 -1.0527883259001547 -1.060139109838271 -0.5627304069321083
Ni 1.0261350292100067 3.5540465912048433 8.162744563781597 0.2563760090657262 -0.2977057210524486 0.12291210084590444
Ni 3.8351182022845864 2.7721831971379958 7.232363870380151 -0.8106246037790684 0.14950707772561347 -0.5179847272853013
Ni 4.00248732361155 6.802733224292903 6.187222778647473 0.5012735851782076 1.2849843952855675 -1.1883564249471725
Ni 0.6559976775535693 7.574226210939751 11.418250442903666 0.25846888703901294 -0.9408838890186634 0.8601265671639381
P 0.022161642313289025 5.6175399164477255 7.966213094659918 1.5079386343577383 0.6309494871105069 1.518554462200372
P 8.511201140660406 1.368340328125229 7.69985784476586 -1.2951214837195695 1.6608128287833719 0.25760602481808537
P 1.6888067852396487 3.2845883847599193 10.404183374244264 -0.7763240307249856 -1.5408950346791013 0.36760193182295403
P 4.146293935691151 6.132422025526918 3.7949594119762757 -1.3891081597803754 0.971958756046597 0.4939737090826848
P 7.003527175834457 3.953329959305729 10.516020460877575 0.22995998096604267 0.7823998046054202 -1.20197118751713
P 6.496810741889121 7.651047068004608 10.471694454359284 -0.30931399471533827 0.5148248415000811 -1.564778269054602
P 2.4152524640647175 8.68161878070401 5.684259833372 -0.1611480043986515 -0.26821336802028645 0.6874016565609645
P 6.777437777322687 3.928597036622512 1.6343925407420972 1.961012262791952 0.37627169168281005 0.19207734698765627
Ni 5.45882641076265 2.819498748052514 0.37213431287528403 -0.8599301348824157 -1.2575162717722856 0.042101814266056525
Ni 1.4550870169639076 1.325951401208138 6.916066444070184 0.4773944645677649 -0.9037553595974822 0.04548178648188296
Ni 6.950241609099852 0.30957344648585394 8.886820382223373 -0.6758640882350102 0.16123953567119328 0.08565604470792344
Ni 2.6479651324072826 1.5059682460202102 9.438545110209295 0.14668940577116027 1.554203578862549 -1.4158072663381165
Ni 6.3717488907279085 2.1093934924675315 2.7106856831104413 0.23173841302270415 -1.034678246563005 0.014536245942962062
Ni 4.288530923550576 6.891802594058546 10.474417253367807 -0.2710392675048558 -0.3617393023945899 0.30147804361068725
Ni 8.270422599880064 7.203105349078303 0.3162348228006074 -0.38642214985325063 0.07987774746324953 1.1013477228660968
Ni 7.731796522106087 3.9455544219838226 8.32993041106667 -1.4528607195469883 -0.6134294759488725 -0.4382825861679677
Ni 3.016082840413946 8.345084089520634 12.350105494315391 0.721415551612564 -0.6434697310647047 0.6290083042237361
Ni 0.13931639805321555 4.891947097025526 10.318851161798216 -1.134433192566156 -0.9825681561313271 0.45317904366382594
Ni 8.481822856123262 2.5076606876628706 5.747588273224012 0.38707880960064306 -0.06505456640748797 0.50364568495481
Ni 3.5434039946137155 2.458222061213549 11.489997693818685 0.4853713121256544 0.8086651660598525 -0.35435792232885427
Ni 1.1934224937856321 3.5167748207049696 12.748163103848961 -1.4153192709581044 -0.3543584365494865 0.00657122545961449
Ni 3.1006247969664833 8.582405827827642 8.119680607720108 -0.6236064164818744 -0.3928324242549686 -0.01494145180118072
Ni 5.515169569186265 7.802375174179728 3.454254782691209 0.1438208259741136 0.8663782045006047 0.6675823078421922
Ni 2.9338998566778565 8.543500922300998 3.449580387325694 0.8511724432944436 -1.045085300828942 -0.5338234940897709
Ni 3.2478882115194163 4.325875277829417 9.408959054604855 1.207182042294108 0.38528623647659455 -1.896983823656133
Ni 7.46021524012636 6.03652978053832 11.709556366817843 -0.10739060817153764 -0.8499403706595555 -1.14272320048909
Ni 0.40758695241478166 9.16388355410963 0.3662804311015453 -0.06274751554086613 0.14711235224119182 0.22596371532245602
Ni 4.720921567833068 0.37361139277727506 1.3557143797738114 -0.3517855336159877 -0.7879952964153268 0.9277846326325441
Ni 5.874704245330008 5.321906184712603 0.2978039867262541 -0.5936962591860034 1.5454106631612676 0.6204812405893313
Ni 7.958711561103613 9.099283990828445 11.0310549958926 0.19175673042344393 -0.29623350738229626 0.3465785354937515
Ni -0.014706380916077205 5.180576494090273 5.891667981771978 -0.2524162530870298 -1.3883607400913895 -0.033064643764452735
Ni 8.001944274451203 8.795384781263387 2.6410497128661428 0.10383965759548569 0.6382002551356493 0.24762808766976707
P 8.618597914615373 1.8285849975865458 3.5917874343762954 -0.4944005122074581 -1.5690141615128206 0.49695721719104097
P 1.8216169548056542 3.1999012606494475 1.5989498814722076 0.4743317664820411 0.018611444453600207 -0.28807154039679417
P 4.677362227480124 0.9723141571055153 8.296532799769192 0.9162704613453576 0.38822115073520236 0.5385561236787499
P 8.342244249168525 1.4880219066704659 12.474026872849576 0.7546897402846615 2.1202987885018323 -0.05135135788878253
P 6.4412750780065195 7.725209544164776 1.4754004948052337 -0.539740116684522 0.557689244963775 -1.1913646156458773
P 1.9544361973440303 3.2694637398175415 6.138275907300657 -0.6261618359138765 0.05969150232336171 -0.5372374048673264
P 6.807777796931153 3.974533495736645 5.95520872917747 0.026441739131296396 -0.005870856958480212 0.764520096111522
P 2.250369337167394 8.573033447368449 10.31914331150856 -0.17027979149659062 -0.44044282704408017 -0.46216067833714597
