# total energy = -381166.5956416776 ev
CRYSTAL
PRIMVEC
9.21691150289654 0.00000000000000 0.00000000000000
0.00000000000000 9.21691150289654 0.00000000000000
0.00000000000000 0.00000000000000 13.48988164417845
PRIMCOORD
 96 1
Ni 3.5239293165245904 7.686009915015982 6.676290839299813 2.030304521429871 0.3950178619420616 -0.024291268447196875
Ni 9.037734463442478 3.9889317043592327 5.368325420260695 -2.0152561117371808 0.5161034511021886 0.7204151353725077
Ni 1.936731120313128 1.423303080941684 1.4959332630267916 1.2525350165076106 1.4326397645144229 0.3956557526363767
Ni 4.917194483808407 2.2002057443768943 12.29297791430092 -0.6682268834047266 1.0590980701682664 -1.6195098562695267
Ni 3.4907668699639864 1.2284207101586337 10.18514405414592 0.7811826443688675 1.6001365939492378 2.5992318012013107
Ni 3.0391658710396054 8.490452709169116 1.5607115584457014 1.0627935167419826 -0.36504934060442934 0.7140022898676284
Ni 0.8935426748928107 3.4104138379697266 0.8437943965962956 3.086177142682304 0.4104552795430544 -0.0693627068645386
Ni 1.8626087203019055 5.373330203051803 0.6578201705049697 -1.6276186014195906 3.190632836595234 -1.2593430405683794
Ni 7.139668285686807 2.296854275403714 6.927809286132224 -0.44904599533205886 0.07265423313161681 -0.2521830540303012
Ni 5.968438509632829 2.015028781105883 4.907146207199076 -1.3916378681807646 0.9022229821133558 -0.3448137302838449
Ni 4.647562963051343 3.156045522188861 6.985923754740873 1.5006202463194542 0.16401555575443366 0.358916231123498
Ni 2.8019225763008753 1.175064011120463 12.797121759002966 -0.9263443006415917 0.07561305864962461 -0.9148388711051535
Ni 7.1527747334381075 1.3763521351996835 12.965354352691705 -1.2970482684286373 -0.22389989081489184 -0.7479475364648215
Ni 6.035795696810398 8.008067226778248 0.7081131682544395 0.3231074489550049 0.6328983833067616 0.546800108855097
Ni 3.8441340291321366 3.4027085001918875 4.747696408209504 0.9865250838965463 0.9135193809627816 -1.4663538689374165
Ni 3.139243093039339 8.220618416365266 4.282713375888418 0.2826172021504423 0.49200244428892687 -0.16148456180246382
Ni 3.323120471828681 1.476235802063849 6.005546715885649 1.8600800086512481 -0.9170734168626271 -0.2729503684846396
Ni 6.571353540015086 6.4560131130391545 9.320132327926915 1.486907267608736 -0.027186844827437048 -1.815779644071976
Ni 9.125359638387353 4.764986411962432 12.623668706800629 -1.762007592556843 1.8765075580796522 0.5308852373970535
Ni 6.791195306375156 8.345138886913839 11.77619399755518 0.7521901137912593 1.1823678114639058 0.78534654593857
Ni 7.983513375294799 4.286333778614656 9.783307002267124 0.8431120348838126 1.6532974942429335 0.7596424563042465
Ni 5.722697222751553 4.644097404433559 10.253092045332533 -2.1822145521700222 -0.1301754672765371 -0.7374193832399881
Ni 4.6976476586072975 1.089743063979965 8.333144920346493 0.40045317402501995 0.5291520567560306 -1.3618066437519452
Ni 1.0769960757661474 7.170480419886947 2.6712120281786227 -1.5048671945212664 2.090578892839896 0.6436090848560465
P 3.4666093456628904 4.558997663162281 7.914931260616423 -2.1010281131976787 0.8374556079289834 1.2845820176408265
Ni 5.839678259924201 0.9686605013155244 10.560216117540188 0.3743143108461231 -0.1607713377855231 -0.753007210375916
P 8.890669428055874 6.14924665698674 8.803564086903666 -0.3668848511512714 0.8680422224665889 0.7628337095480346
Ni 1.6131530181999734 6.484364331944218 5.035557135972559 -0.7072999381467883 -0.45959523160281496 0.18292987616043332
P 4.717786609617559 8.901066103909226 12.630305804568358 -0.1394358095325405 -1.2103432136309091 -1.8877155109803294
P 0.45571358470963436 7.738961069960582 6.497806275263836 -2.394167297925367 -2.2882810422134976 0.5635169073891457
P 6.836662329411136 7.917612460089597 2.8263059149268006 1.4285542815911396 -1.9946186379924875 -1.0258053695534075
Ni 2.7801890996499847 5.977028670887549 2.499620792042222 2.594509713135293 -0.2949191594462469 1.5368548031714564
Ni 1.1484087038794217 0.6177662394270326 3.43629123790401 0.007236884068071407 -0.9547449632714717 0.17378549065700394
Ni 6.444565709307007 5.74751836466031 1.7649481724234035 -0.17323064659479845 -0.0735122102565379 0.3656250106022413
Ni 6.605612799010574 6.118674162478256 12.901776099113315 0.014079875131833815 -1.140825983466377 -0.9374365539000113
Ni 1.5741562668386846 2.488446208882112 4.918167789632976 -0.1291033172582809 -2.298804567452641 -2.632593407380892
Ni 0.9061873553921138 8.803772389097182 0.810537015850151 1.3755350490816312 -1.512512626881666 -0.7544179746805136
Ni 2.8116464176353495 8.061055249367719 11.788132662655222 1.3303859633488186 0.68720471005881 1.2175132490167868
Ni 8.08693633606649 3.4945918881192535 0.884958043784821 -3.641420754319064 -0.09479014579870772 -0.5548792863188056
Ni 6.980326324558479 4.529190172284851 7.585872783093336 -0.6533880186196812 0.438097209630039 1.2282864283728911
Ni 8.249071021293723 0.3127814123129625 1.580420079702105 -0.23300673821216644 -0.9004206387972945 0.9660927841841234
Ni 0.16955153368396506 4.5044335487546165 7.593184558762188 0.16051114214560097 -0.43324425241311193 0.5614811079060394
Ni 4.835053371037949 6.102295711244739 7.619098826341341 2.477435302017088 -0.35157573159802674 -0.25972769914677846
Ni 5.908952564635013 7.161844174076139 5.270456570188677 -0.22228369536770753 -0.22166251684394084 -0.38532428880338154
Ni 6.3751531509279316 4.591533359760095 5.415364848350383 0.08970476085600035 -0.3322662326361374 -0.16001954722116313
Ni 6.490871471263781 1.5036100283798564 1.9234956358047823 0.981046320170162 2.4239563562623414 1.0665840941326663
Ni 0.06989552452687207 2.745920623743279 2.7530287056742235 0.07922700125312808 -0.7796857481083669 1.027215619637373
Ni 4.113986755758421 6.470262457781427 0.22784849713472144 0.5185691390338618 0.32724615371372673 0.7808540573848552
Ni 4.778986900101831 0.9917304300929541 0.660847925839922 -1.3423714178454689 0.7993487737549331 1.9926779693263488
Ni 6.318349327094412 9.14995957442689 7.036537501000713 1.9432024883040404 -0.46051080143854883 1.657527987384513
Ni 8.167123463658832 6.0586444197186085 4.379691872336824 -0.358882292561769 0.48663938020480063 -0.06375204554598052
Ni 1.0020533706565662 5.255049581397486 10.678981548724545 0.7288540101684803 -0.9046524174904549 -0.6308219603937071
Ni 4.653894981057773 3.0667981708697027 2.3278138801833324 -0.045503640858753885 0.7920928635234681 0.8270387834710337
Ni 3.842032573374544 5.650851399811056 5.5824904910018995 0.5845094504804127 -0.11552609279447845 -1.191609898887464
Ni 3.5380311906873825 6.341188833091405 9.529211507058296 -0.8650186051489167 -0.8959667167909989 -0.07724673759830566
Ni 5.894694002981524 3.5093020784224005 0.4084022577390292 -1.1122867383761037 0.5116251036158609 1.0937817375933807
P 5.014184040550274 -0.1017113803585979 5.6023750552625575 -2.967924137874966 0.9142364616344643 -2.7986123667185994
Ni 4.8042596706602465 6.9977739374932275 2.984446912523487 -0.541061406599107 -1.5053379635100979 0.002535107717027892
P 5.768228764166057 2.8580166979706467 9.115638562126245 0.4983924069756707 -0.7333076750644597 -1.1417978604613432
Ni 1.4192845076508493 7.440784775162888 10.162696266875674 -1.430972404114329 0.4197829847018835 -1.0235032037827922
P 1.1999957559638301 3.2169969560702607 12.21147184671335 2.2533932291973775 -1.1783836300051769 -1.7705207722341767
P 2.7041219313718674 8.899655916492947 9.259859258711124 -0.38673428177703073 -2.4737771364392103 -1.5378030260173388
P 5.183839725330997 4.905507440384603 3.720347224716478 -0.36720315372263856 -0.00821724570346972 -1.062684244857628
Ni 2.116709745657463 1.429920823195857 8.014419521989357 0.2882733719949551 1.1278622242168577 2.1058054799816635
Ni 7.576623612686563 6.903134693111825 6.963220659029901 0.9688767746871636 0.03094759742144993 0.4792870536047874
Ni 3.546750388699148 1.415938768878893 3.6007052652753346 -1.27228880209577 -0.17361245541424938 -0.3084799288498171
Ni 5.0888686721457645 8.091812082100553 9.04955146531445 -1.163857154254228 1.5693887712434196 -0.8726882058790325
Ni 8.942228829406629 8.393426284782379 4.664234512061578 0.48955989628570534 -0.19143508541796708 -0.4141617818603642
Ni 7.189854367266154 3.7469140496098317 3.049940440252876 -1.2612181461039054 0.13975205522137868 1.0373120846414263
Ni 2.2855266915173926 3.7057974086685155 2.719519703251841 0.635604212273699 -0.6942513324929462 0.49231251933017794
Ni 1.5427726841430602 3.3765601230678093 9.299950979125052 -0.12069658125182438 0.2641749362848547 -0.9087733816373639
Ni 1.7846336514017633 6.428196474984707 7.827368760667826 -0.5263531538546549 -0.3310562714884363 -0.5130027006896778
Ni 7.007046150178043 3.7450245828102418 11.871068273172629 1.2364106001419222 -0.891827754921961 0.7174190288586612
Ni 3.2469242667935183 3.477282528852768 10.735301484719146 0.3626247903233368 0.12610052587621506 1.0326918122605955
Ni 5.18808872140227 7.00409673858844 11.026480300520507 -1.1819248103892162 -0.8123197320933042 2.0856945681644015
Ni 6.975727085860941 0.1833501714677006 4.2333402258784565 -0.07199885893580503 -0.5790527982412157 0.8223048683304742
Ni 0.16419005642873896 9.042776113878455 12.059212160164556 -0.5798899494305303 -1.6999766434670271 -1.7847338305097649
Ni 9.296084484869308 1.6166185768177574 13.273840684377308 1.2901440851096362 0.6085248395584035 0.056802096590708624
Ni 1.905448923640896 9.040176944915117 6.5985351328866475 -0.3977077500693989 0.8589430883787981 -1.2056278104331108
Ni 2.1490242363860563 4.103258271101238 6.169543217178821 0.4272512680544706 1.9945013956883328 2.435967521790605
Ni 1.1373576273296262 1.134666289254113 10.396179061837659 -0.43689419046087336 0.40698403316500226 -0.2540977545545108
Ni 8.428164823161177 7.420627390330192 -0.001482079323775751 0.02961165221884578 -0.930227951966714 0.6807440420351308
Ni 3.195023839727715 5.529741186412963 11.797292429023186 -1.4440701178385518 1.039150680512062 0.03047837109451525
Ni 3.0958683088497327 3.664542514058937 0.3200443383523611 2.776639204881618 -2.144233444940559 -1.1779969360897196
Ni 8.537458956378421 2.4172179189931886 8.858198249836581 0.19627981510477807 -2.0576402331303467 -0.3516145552557622
Ni 8.283422449401385 6.771093223009765 10.820139465711847 0.6844911677823888 -0.15930040966695144 1.0934528934990522
Ni 5.122445879711156 9.20261578821253 2.8413193416090037 -1.4455461881634462 0.5477406183914955 0.05819974826918364
Ni 8.779236971436166 5.526819425557012 2.0376065268242978 0.08573523468529105 -0.25351822790195694 -1.2695539196631103
P 8.01976348711327 1.0966188797482281 10.562468730641747 0.751263745322248 -0.47573121793272904 1.1239338356967288
Ni 7.475292890761249 8.702552270106477 9.151009380614564 0.5539053524413106 0.15091887047147556 0.3047657132230235
P 0.6149541598145699 2.379548402847221 6.828334850126116 -1.2758546650701577 0.04658967483408105 0.28332296996821527
Ni 8.48562304769114 1.8145333113913686 4.671020002099908 -0.36277134320353005 -0.6084340796168102 1.065645898589113
P 5.035548840752464 4.73188848378035 12.28307618657995 -0.20490200955615034 -0.5935733604548938 1.1223932306824864
P 1.1608699678454966 6.859216111160387 12.61257984091484 -0.3895761221012 -0.07855851443119374 -0.5057629884081289
P 0.6535896082561322 4.762672967246837 3.68306113207716 1.1087656125967227 0.9831191435387908 -0.666470305724936
Ni 8.688736120191427 0.48831932983270093 7.087530062311592 0.16551990821410204 -0.47295185541537904 -0.44442726561312496
