# total energy = -381162.21757491614 ev
CRYSTAL
PRIMVEC
9.25832279078412 0.00000000000000 0.00000000000000
0.00000000000000 9.25832279078412 0.00000000000000
0.00000000000000 0.00000000000000 13.55049124992682
PRIMCOORD
 96 1
Ni 4.963988488106509 3.4937113237219584 2.2813469528031853 1.219828270303209 0.9271904506919709 0.3798573521515394
Ni 4.02603709302928 3.1757434954684736 6.320003139412407 -1.3001184227135287 -0.3110438329222514 -1.0273655149516758
Ni 6.251256391453129 8.44430301915776 4.594564755011793 -0.726859862556587 -0.8340082728103315 1.0225958614771744
Ni 1.1463192014676589 0.5250394694926377 10.949256977201399 -2.1767663845712577 -2.30853670713874 -0.027170903987837076
Ni 3.876885517407231 5.190474831647302 11.420109336712613 -1.2156132037805967 -0.4280405967249854 -0.23978853702069022
Ni 3.25613350981523 1.5540742414146655 8.118885018781178 0.8384920196132979 0.5212561989477216 -0.21966914056299586
Ni 7.722616779571246 7.843076813737508 12.236661903721155 -0.5058956573312513 0.8515082293673076 0.07903082608192197
Ni 7.973322894795919 8.94829832158715 9.939799854057172 -0.16403329636624653 0.12543023928206787 0.39737247821716726
Ni 4.185298756831297 8.345831500950677 3.4927336448649946 -0.27712352602572277 0.04598186604675307 0.4762264124015927
Ni 6.774064605221067 2.984466552429893 0.17174558587332442 1.0962140011839572 1.8057384577858901 1.0963155597588279
Ni 1.0569578726095574 1.0976204250696466 7.101852736159984 -0.15869979996847508 -0.44699682611251407 1.1118815325178852
Ni 2.0424600120936662 3.515394315038336 7.546553112079665 -0.22388137887213055 -2.135208872844445 2.004830545528483
Ni 5.418673964852284 6.594925322991952 12.296284574847688 -0.3955511087377123 1.733140017592873 -0.31028510037935597
Ni 3.842250132900584 5.837594541745299 6.816357548275013 -0.02680375045640545 -0.37918012357885666 0.17918480729570432
Ni 2.2072026028210865 2.760498472611582 12.136592399048997 0.5454932171182153 -0.19300731500109342 -0.4321641319750557
Ni 3.06198648679882 6.522432657745481 2.523223405850902 -0.614230117473297 1.3357120035474221 0.22089658521219377
Ni 8.8128398049561 6.701099765526631 8.932361971052186 -0.8838293100975166 -2.1709284377332416 -1.0720062935895023
Ni -0.1957903752617802 6.165894657918971 5.414166087622589 1.5470965355041226 -2.607300437142058 2.63143795362021
Ni 0.3865914405233914 7.5502638477413235 10.896532682176417 0.9125102229719769 -1.0045955682450116 0.2675060575406167
Ni 7.792276398129925 3.7404548769127235 5.2610186200056015 -0.448078489212467 -0.10942692187527606 -0.5937363683953194
Ni 8.510157467165184 8.34421129451158 5.342525188046959 0.017515897396576288 1.1405051097918488 -0.49009931372894294
Ni 3.290592986194204 6.959879137979263 13.33198904230529 0.41259880824861844 -0.4415273183575105 0.11256803860741903
Ni 1.4407894071929779 5.731068282955274 11.970354589236353 0.5998537941469669 0.028886858237679284 0.3872585297116169
Ni 9.27489490641914 6.803144996222237 3.375467731964382 -1.556924577338138 -1.347178352315809 -1.4804658828587665
P 4.133905808583128 1.2186915085215109 0.4663722572490476 -0.013151449780293478 0.682629946203934 1.4130297035929793
Ni 6.049887876879599 4.158421846587299 6.708374029522052 0.7890419925122862 -0.03399126934378017 -0.5211042467508896
P 0.7096930086081881 1.481803775908414 13.095614810324749 0.25844780399309036 -0.456918198991284 0.6210754225299046
Ni 3.1779747511931733 7.453190336233119 11.10386818560708 -1.3822883086450644 1.2239425495818985 0.6131787933906472
P 3.021425775886331 5.034185089370715 9.327886766964637 1.6211875010822658 1.0510011520927447 0.32793520936095133
P 5.68525810318011 1.927332771692662 7.025252153216214 -0.08191457538762022 0.2742852852459792 -0.1887148582733266
P 6.519960685635546 8.173997035181264 2.279178653671548 -1.0804192002435458 -0.8540644201302582 -0.6005749885837077
Ni 0.7530821370472155 8.352404909932156 13.097809958591663 -0.07907042107060576 0.23407991667168715 0.11612027473505161
Ni 8.277755055541059 4.860619317292096 10.505262085456913 -1.595492153198691 -0.8499018041121363 -0.39543618042640283
Ni 8.617813241301324 3.9522852959215675 8.193453399934196 0.8405612434375008 2.1223423012944225 0.6467885110252926
Ni 3.584276234506247 0.9149194661712713 10.350894370933222 0.02897838951022106 -1.2740656914905348 -0.005907880844002729
Ni 9.047816030237763 2.785329293581063 1.3149271418426398 0.4626257908990226 -0.4051330959991926 -1.6204177127957773
Ni 4.6265689242613455 0.999556273052965 5.201017283488445 1.4264747733542917 0.8495706460249628 0.1846381171007917
Ni 5.491231438356318 3.1304147484637834 4.505633012318115 0.86065441464295 0.4152413880777881 0.448802254752369
Ni 1.2590300196937807 6.366365115209115 0.7851409303995723 -0.8326147348969144 -0.10833703124520698 -0.15436749114170836
Ni 3.209184556371443 3.344781947840129 4.159824482447431 -0.7481861348381889 1.123890126942987 -1.553539720026305
Ni 4.376733091352532 2.994863648607643 10.694480903401715 -0.033428197751458555 0.24214032508231847 -0.38159104701319446
Ni 6.285327018286719 2.792569301783201 9.122136288347537 2.733831879908105 3.0596114763786337 0.774619389329053
Ni 0.04265586929630452 0.3076920161006043 1.65104591137527 0.4955191991929337 1.047898601908021 -1.4671251998858024
Ni 6.113899918707708 4.426996524254586 11.877641747629946 0.5221625128120749 -1.0671862464930395 -0.9846630909871429
Ni 2.644130616994355 0.2947016637880471 12.466858057091356 1.9495515704505197 -0.10493006244618701 1.551287947877651
Ni 4.260652243733087 3.069957902479179 13.060762781071388 -1.0125346205864305 2.5476824683691093 0.8897688155104031
Ni 1.5231607025566878 2.2734181254063683 9.9569684873181 1.7632666617749246 2.8902914776921516 -2.5672981857175077
Ni 8.932429556806504 4.335635397734514 3.2176994355830875 0.2098344138607612 0.00430711201578613 1.5744944679011013
Ni 2.632844721855728 2.696458655815945 1.3881391787480697 -0.04590936093760481 -0.5467702840584261 0.2302587431533841
Ni 8.040445732987095 2.149245503913946 7.197085693153374 -1.7822848547486403 0.1363725972261845 -2.4570168862617363
Ni 4.956998454612117 8.111605199792251 6.976537637669935 -1.9946659462906549 1.2651177382686276 -0.8048653326977879
Ni 8.45161709393997 5.105650080818673 1.1252546660948914 0.5963714920253214 -0.6334123468287027 0.5078694932281704
Ni 1.8492110463606417 4.754083800179562 2.4014042499403003 -0.9734551380864654 -2.0879363130107267 0.2380468717392352
Ni 1.1063695398407725 4.596710834169409 9.969367232822325 0.18091156017882393 -0.7023562209882679 -0.28944708058808216
Ni 8.087116936755608 9.250101118739698 7.445263360500804 1.5884463020955029 -0.4972233263682341 -0.0884418349831767
Ni 3.942101141161527 4.769091540966858 0.9012597371413041 -1.424426118355379 2.639823349470428 -0.7604315278644452
P 2.0679018823487496 4.791172640151129 5.874124179037313 0.4366823315603835 0.7526446848301747 -1.4754707436370202
Ni 3.1584396906989136 8.762344913991317 1.2240659647380596 -0.9126732309124024 -0.44245240127494123 0.90146759200457
P 7.46177280119908 2.805901286196345 11.018554595349968 0.2050069105651308 -0.22092718133981307 0.4482803208106279
Ni 4.820290064442336 1.3531316096765558 2.785384843516118 -0.5054786243984908 -1.168094589374343 -0.6619577625665632
P 6.19541019007807 8.477114514130108 10.924405787922398 -2.878791961692984 1.3312413693705782 0.6184888927496509
P 6.417952488229974 6.765667306705288 6.3268867021979425 0.3457886926026045 -1.113317236523147 -0.6841785216379765
P 1.199582330862671 7.934632365030273 2.2588668199187723 2.3500384259269524 1.7197903357588447 -1.1018526875269732
Ni 7.971276805521401 0.924392581762611 12.55771367920243 0.27019594566795396 0.7184161026646078 -0.8787187283438286
Ni 8.23452794774594 7.444496771397048 0.886464011939467 -0.677773132332265 0.2919639334726649 1.3715413545412056
Ni 8.279208612174992 5.713986677925933 12.605194986190492 -0.5401376092332568 0.9597966667627663 -0.8095653092766186
Ni 2.1599110914444615 0.9791601885653565 3.0080873106474306 1.130228410456189 -1.2067760651049408 -0.75317896006709
Ni 6.813958716912898 0.8765196477324129 1.0802684770230393 -0.8787400685000673 -1.3150986981724446 -0.04171280635775397
Ni 5.862777178970126 5.675509089577998 8.330394173998956 0.667571766319231 -0.5793536173110861 0.10614362313831399
Ni 6.65768749128133 6.527959876283432 10.372616247204139 0.5986415190064207 -0.841469357074067 -0.7146995730449692
Ni 4.751648861359662 5.806718036177357 4.462488303593329 -0.39441288136821107 -0.25529897395146356 0.31656167741668706
Ni 7.637514279067344 0.341535814032721 3.215965351777128 1.7530876643593936 -0.678500754526909 0.9955254876229436
Ni 5.624643865712851 1.72492732499811 12.325784367858521 2.210828359251973 -2.8039497197711127 -2.804651630934144
Ni 6.734346401656908 7.834790615091839 8.279526172637055 -0.4868877487701808 -1.4130379311230954 0.853516518046588
Ni 2.778737367954564 8.63948697429519 8.144495390505929 -0.3501179161055777 -0.893111763840707 0.33654917628220743
Ni 0.12377081029552595 3.71873485230631 12.405311506547426 -1.1200720387484773 -1.0880322367041133 0.1689150499385801
Ni 4.41602541208127 7.164015890983021 9.316951762249104 0.16176558337799238 0.07065288643087186 -0.6649638963827387
Ni 1.1275618400641658 7.597953466985841 6.76967616035174 -0.13498368729845786 1.294518560028248 -0.016618839503603634
Ni 7.145804770607566 6.134675594418192 4.241290313869748 -0.999131459806647 -0.03253473940291171 -0.0474201411551764
Ni 4.391194591111789 3.661148086299535 8.485168328880798 -0.9484012804416312 1.0966518600523243 0.16223686658745606
Ni 6.209251382229216 5.4533000910364215 0.41706891239118926 1.133473399756048 -1.1726886365029288 0.147870570563455
Ni 1.6244097175165095 8.112484740430618 4.395630253425912 0.9168157923258663 0.5127224504450977 0.9360167907343493
Ni 5.028148663094764 8.827838287420887 13.137837390127626 1.0557011286715754 -1.2141037091146056 -0.9121376701239066
Ni 8.656438962809403 1.714780203528106 9.359879826227179 -0.08454018593592537 1.0152198807280775 0.6272401565797198
Ni 0.24317632152799812 2.0366920771704797 3.4148322676086913 -0.2413759361124682 0.02458591686948024 2.0340717017817873
Ni 1.5508708618265072 5.624134657974849 7.854338637237611 -1.015199054792471 1.7204819625092307 0.2526563941222939
Ni 0.6508804407012045 3.111833295187964 5.765747181577715 -0.6086454242966679 0.6534713223621068 -0.4802381046641471
Ni 2.235125703508616 1.628779645740818 5.158468810733247 0.41074658553122806 -1.6431709473318927 0.8116887833775247
P 3.2581240491546923 8.844531042904844 5.691911133735169 -1.8005103766177313 -1.4473395326184428 0.7297343558909045
Ni 5.754871430126241 0.8102957926568726 8.8592434432041 -0.9043932502917973 -3.613959315674002 0.11096521289667342
P 6.911319236418886 4.741011048796675 2.5932385439939303 -1.4732241136946886 -0.728955568743351 -0.31809071246670384
Ni 7.092365733084881 2.4232455585715837 2.909236201217473 0.07815845077929764 2.613561073339789 -0.16771897274794983
P 7.933678757811833 1.4670552681513733 5.008410845337555 0.7310361054214636 0.39128127771776483 0.4044468685654454
P 1.9362948278814978 4.365354612988813 0.10180081098136566 -0.11966762576667778 0.14877302777306636 0.23581206887144548
P 0.5552419691819145 8.489678057774993 8.857806551550683 1.9799625786422095 1.6228816009552371 -1.0239107236338558
Ni 5.24867264693968 6.409638514616779 2.1339581617868744 0.8762072747758846 0.9471463249886074 1.216173961380073
