# total energy = -381167.69684161997 ev
CRYSTAL
PRIMVEC
9.18784721206659 0.00000000000000 0.00000000000000
0.00000000000000 9.18784721206659 0.00000000000000
0.00000000000000 0.00000000000000 13.44734311668622
PRIMCOORD
 96 1
Ni 1.48991049266888 8.953281478228694 9.230538549793513 -0.5763577679075557 -1.0583365094118935 -0.8099674298110437
Ni 4.897637086476418 3.9193151147360963 9.168653804858717 -0.8884539533537215 0.5629065274986563 -1.6412534185942058
Ni 3.9193059268888786 7.048144606250458 11.743659160569493 0.18937408912388032 -2.142335199476581 -1.9096480493873629
Ni 5.7833363704151415 8.07444551616159 0.5359886867845945 0.4782221026753828 0.8477220228519982 0.02782139308764241
Ni 1.9099329282258748 5.568230491354432 6.7005692647897215 -1.2394180195096784 -1.0076839773623485 0.07307178028500964
Ni 6.2796087500318 6.470642469382145 11.752036639662588 -0.32325862982088843 0.09324311302656199 0.42249858386083367
Ni 6.490129893330879 3.976169513319202 1.2784751585716396 -0.8259044127562745 0.9664511959648064 -0.792588572212964
Ni 8.964573342459245 1.0412035980982366 4.878427135513658 -0.7152045377058457 0.27524173562197757 1.430866474664084
Ni 0.645658506313907 1.3274509781655706 7.713692045436512 -1.0918791212540293 -0.145239303588195 -1.769656110241036
Ni 3.3100046508001184 1.9511128594555904 4.846691392439013 0.620858421423092 -1.7034622880227825 3.705650253722095
Ni 8.244990336216473 6.227798479571209 10.703897135699712 3.4730433220515096 0.07055672717263978 -1.27449635127005
Ni 0.731740365681227 7.150938240922046 12.579411469463375 0.5028926088388693 -1.494701309731858 2.250985648197149
Ni 7.652980588591417 6.694513554688538 4.352044342995165 -0.7782292181674985 -0.7106948227609502 -0.07813788195400737
Ni 8.980477505993077 3.991072201506306 7.434901522171061 0.13440364642527175 -1.349780051604714 1.2826344069961524
Ni 8.60154312319362 5.947256752626065 6.506442916065899 -0.5268262368363313 0.6891870305961614 -1.269423821843149
Ni 2.699793777836806 7.342927496383032 5.596770701166762 0.4292186761934866 -0.4709667066645502 -0.7829816452508193
Ni 3.997430191780952 1.2720850108317316 9.01106476816551 0.4568369521313874 -0.2669563556847338 0.6911513534113839
Ni 1.0841384081465324 8.019290869313759 7.025174069421495 1.5193520184010028 0.9584908034671492 -1.973963680746297
Ni 2.2358534325792223 2.98029875339308 7.586722428381 2.3664405214340603 0.7448470431626268 -0.25799966071207825
Ni 4.920358632645782 0.8334617785825102 3.2234358355302604 0.8384578239412528 0.7669703574242276 -0.9490419993494235
Ni 7.657308064630953 3.040019760308107 5.0677390522954076 0.9760018157677192 1.0698041437318608 1.3277829785083326
Ni 5.284932410243978 3.290912304281745 4.240149226869727 -0.1766846665816699 -0.30064577751737903 -0.04164158680018635
Ni 0.38104023738175224 3.063908163074118 3.4471727782672743 -0.5550628630845215 1.031940535916868 2.569339898737885
Ni 8.595231072155062 3.7145180002536415 1.4358666565496674 1.2678713897543648 0.1334047728471122 -0.6032412225619611
P 0.16897737331954316 5.051946980497631 4.587413100309783 0.43064203890357444 0.08814461545773207 -0.29390100259437774
Ni 7.429458641479297 4.365596417641267 11.393503871610028 1.0348690224175725 -1.9320711542775693 0.6561298430308764
P 5.180576841545381 0.954617325918665 0.6676018418239315 0.23818031199330594 0.7356748897450555 0.5926541910747343
Ni 6.3159466857777895 3.0902313453528185 7.24546924459076 1.0860987671268263 0.9817459173403479 0.23646075819903792
P 7.179962650282749 1.0919388904343565 7.228565443279642 0.39494972770828757 -0.31099266796934183 1.913449425411324
P 4.181811909745685 3.9536684754830635 6.5113510640495935 1.1102943905364233 -0.0173037813857702 1.3671041447054586
P 4.0217504233661945 5.905066158202403 9.971850814706135 1.1179267102707005 -0.502759939915747 -0.4832532373413871
Ni 8.17616417270871 0.6156317028217531 9.133610436785702 -0.6283593577858275 -0.5133204890404126 -0.8921247173370893
Ni 7.193321780137279 8.10088814045412 10.301310477807741 -1.094035762585716 1.2406863446991407 -0.8329055266644558
Ni 2.4798918425284584 8.942550072678426 11.19446937490251 3.3757278387277867 -0.5218269838495271 1.5125277963903176
Ni 4.146107935457716 7.795291154146319 2.870523273620764 -0.5076432361499774 -0.8350428847224328 -0.46981639511019085
Ni 1.6968759390947108 6.499354491937447 10.485323763099043 0.8419334411946789 1.5771306199723676 -0.0804737291760356
Ni 3.374292017782341 8.473446157284496 7.517656462060853 -0.14226685122343238 1.2792433790367324 -1.0400312833448022
Ni 4.129514683382557 6.095530231025251 7.5028915915820145 0.35857041774830506 -0.6584286663673823 0.4486490170039564
Ni 3.030969730798676 0.6934316367070417 1.3572269534286816 1.6342507620241276 0.9162738037794672 0.10835271497449082
Ni 3.6547051148664376 1.1652303476899215 12.541462904100122 -0.6199971018640613 1.9957828335039178 0.794817975764115
Ni 5.211787958543896 -0.22396020742440423 11.79044184103256 1.9745231527941927 0.2564665118970035 -1.0629105019358212
Ni 8.701690657866513 7.463563930351387 8.21492770012017 -2.63762762737069 -0.5743625918543979 3.798695391805238
Ni 7.524350727543666 1.374207932656428 11.236788599187221 0.194222161244801 0.004579391840566307 0.5232552316556214
Ni 1.185131224763452 4.37950681832886 11.019250696967987 -0.5765207758479812 -1.0512024694702735 0.5390407766246523
Ni 2.3967969522916115 0.23619566356421062 3.438244028341117 -0.15353496793808397 -0.07766916984770493 1.9768528293686343
Ni 3.0239410276771386 4.152576179898975 4.816394466238658 -1.0795144290410892 1.5847817087597222 -0.8590374478648174
Ni -0.05095855702351002 2.711995238941907 9.721702486357131 1.3931651034585684 0.9809411620508655 -0.4129669902213146
Ni 3.2111526025849217 4.59058842030822 12.58635013168218 -0.6198970859510872 0.8691480539362579 0.37973265364821696
Ni 7.264334651282856 2.197448231209251 3.0095418335175643 -0.5261551789112358 -0.3932106335299938 -0.7146838893156853
Ni 2.156764443729291 6.200703518126222 3.7473847673207854 -0.6752963886569983 -0.4122221416354901 -0.7897495601022722
Ni 1.0448787369853152 2.718757494494132 5.762414723515724 -0.22706980390244122 1.147751249831301 -1.3135094993084542
Ni 0.948470656130026 4.899373589600563 13.38237878313035 -0.3890714145506396 0.7172200254739778 0.5044499260236602
Ni 6.307833816684563 4.863035653854573 5.823022357687259 0.41256538390752173 -0.11139767244840171 0.501704244957723
Ni 7.794004855535841 8.425494782655338 12.560450509160214 -0.7780057893027826 0.09926797906440324 -2.6231672289709858
Ni 4.867280439269149 5.8780263238407215 4.406277448767063 -0.3540221362559903 1.2797498863595056 0.2922873782503547
Ni 3.4042352118648136 7.929277530121985 0.08842108526894568 -0.9060909497091945 1.7930384937207184 1.996965540958109
P 7.43204042654747 6.423269929127702 0.35236037229171263 -0.049080302466418695 -0.4267995252290327 0.2346015935031121
Ni 7.678228792745648 1.0884934477277204 0.8382927486495749 -0.41747233429083586 0.5032710752242107 0.3031209785307489
P 1.947134521610328 0.6075206712979706 5.879823466756503 -0.536614683681663 -0.5591005234890049 0.48781900233519854
Ni 2.5844127924769738 4.804031299022526 8.907251282452759 -0.29123116907169844 -0.4485150625292533 0.5205563446672197
P 2.0019859694999758 1.8638374987346915 9.363304779658671 -0.8603561666762408 0.25032543199627205 1.0249867303068543
P 9.725887550764792 8.622546541933275 11.271213625142488 -3.6609125444950883 0.7084199106838444 -1.6042069073638694
P 2.9254013662673435 6.149527209123653 1.027273902931487 -0.8053085908827937 -1.746345974760186 0.8112195570505899
Ni 1.4331387847107333 7.939071775256051 1.851941074157218 2.2079620934477715 -0.8078071889349314 -0.008159395882340787
Ni 5.020846117665728 5.815337642274379 0.1328737276776048 0.14310785906748902 -0.771831799281587 0.5620318382031869
Ni 7.013469670850871 4.640432491464223 3.297880367611646 1.077154670559661 -0.006842476843130151 1.292389429500387
Ni 7.454045320633853 8.920343045953253 3.0772231912620036 -1.3502906726925454 -0.12053151642886983 -0.18463194645320458
Ni 3.960219410549281 8.063704922764103 9.583961956008313 0.41790942182825447 -0.8128794612515162 1.0604245022891738
Ni 4.438851123507962 3.315508171283519 1.0111850636685786 -1.646002760353733 -2.5807437696994517 -2.0977252740766907
Ni 3.20066926890953 2.8830178270521096 10.91134861924336 -0.49367906066040135 -0.1648352234422516 -0.49525797511174713
Ni 4.39949038602735 5.018337835375298 2.3156057839982713 -1.3223705492435096 0.6600109232528375 1.4255383775829515
Ni 9.200342689912553 6.033273378278139 2.005334939810826 -1.1371264231276028 -0.3192909034223921 0.33213279238206667
Ni 6.449519608628661 1.0299484852565584 5.322162485954806 -0.5001155603143644 -0.504261464161938 -2.568732604171189
Ni 6.391911806573703 2.472183238712811 12.946846342685161 -1.4067220162073968 0.4952664597521793 -0.5676975211293964
Ni 5.710577808298203 8.664626882190325 8.201400432661556 1.3261169036598193 0.565167298508375 0.022612338082877183
Ni 6.159560338285377 6.556273205451077 2.245315996428728 1.323065261317689 0.3197084505757849 0.6021019667511953
Ni 6.589992604740022 6.081178813671209 8.82507425815296 -0.5950208915346978 -0.17495971347076322 0.3049644594973909
Ni 6.992025235444768 3.0058960957415826 9.474823194048183 -1.0505360395308683 -0.10932330641787623 -0.128931567567107
Ni 0.3998817556710824 7.9260158443597035 4.583567067464456 1.5746412778916108 -1.5188329126727391 0.4807165869624624
Ni 1.0152663054026794 1.6008445599753474 11.50338133648646 -0.37053247520618765 0.4955202276341982 -1.7318590939979208
Ni 3.1646988470522484 2.556123410893686 2.9067509552001414 -0.49111464236733493 1.114996938218415 -3.1159759712112916
Ni 5.16566496551106 4.134411805949589 11.410433398893355 0.12138280868557161 0.4556606724350991 1.0895869827857427
Ni 8.594937061044096 8.231245316778798 1.0645453239547944 -0.2304595463102805 -1.0449760289445875 2.1042594756507826
Ni 4.154551567050779 8.899449881380212 5.20970231722548 0.8159868965322463 0.7482861507511629 0.5669716987069654
Ni 1.2961939219309673 0.3536301327771983 13.425638842970153 -0.7947171885201926 -1.4054326079720116 -0.7938823513237231
Ni 6.071219187287226 6.999559270163278 6.624214579271777 -0.18521224443670684 0.1699154661786364 -1.2414720738252296
Ni 0.8823034556070629 1.9203335712763072 1.6673765180328528 0.05201264562186526 -1.9364438294239679 1.274327944012986
Ni 1.8347855258323353 4.366542765904691 2.23458550966318 0.7946354274396638 0.4971785891732276 -1.2252335004791803
P 0.2874950897194972 0.1841446715065165 3.133459247727359 0.5505109820477808 0.7029141503742669 -3.557277546711241
Ni 7.849582143355687 8.32609146360708 6.203985417152384 0.35740159425118445 1.3663685520910147 -0.028970161980104946
P 9.005541953202952 2.418149509225538 13.103709539448172 -2.2995836117105104 0.2020984786690842 -0.0875792298725653
Ni 4.815405853878034 1.5134865086294893 6.8816102815061 -1.6183500316334707 -0.5398907833297735 -0.255617790743463
P 5.928862682496237 8.104774599827207 4.4130681866456625 -0.014578154924491023 -0.8521540904814228 -0.11403690984346168
P 0.6375943328109347 5.676472519426114 8.812662395346573 -1.559515735104082 -0.560976143245163 -0.8838758470647358
P 5.286659725520906 1.9801372688162935 10.640667289932248 0.745322954357781 0.009182437830216444 0.651056285162711
Ni 1.828014082432893 2.771321168426573 13.311107733477957 2.941187236100754 0.9527035073614107 -0.36265615778190446
