# total energy = -381175.24870582565 ev
CRYSTAL
PRIMVEC
9.14298036792603 0.00000000000000 0.00000000000000

0.00000000000000 9.14298036792603 0.00000000000000

0.00000000000000 0.00000000000000 13.38167595507776

PRIMCOORD
 96 1
Ni 6.311481656190488 1.5359658491343224 2.9122404026213 0.1502149024259155 -0.7735570095028097 0.37480230622613514
Ni 2.1857483231043875 8.25189638625095 9.286174100724576 0.672500571079416 0.3905351435803597 -0.10670078119336464
Ni 7.961167895526441 7.8783507790731235 6.925231644408454 0.7042737497259548 1.8080750763388669 0.3351921480336808
Ni 0.21867449079678689 5.291435905005804 10.542258691079654 -0.3235635626558169 0.645005965203573 -1.466533074827758
Ni 4.451022289718486 0.2995761528565334 2.630743579205569 -1.931873693554783 0.6013872000723578 -2.157429631915859
Ni 8.309213730371711 2.4472558484739833 4.021594786342527 -0.6144589456546514 -1.333470515811413 -0.5370057484724945
Ni 7.219242465096171 3.461614665850546 2.0883847248364056 0.8237292594818265 0.16301899616911925 1.763759542250943
Ni 5.975138836255823 8.701045298347356 11.233622525605918 0.3957701667270539 0.20929602485878793 0.4877729795886116
Ni 7.067962711415822 6.48594800816247 10.496118640496562 0.46731291196204683 -0.4763917343348634 -0.39092569415055906
Ni 3.71702382329407 4.1316488414041945 10.389399030386375 -0.3406855670480842 -0.6494097506982235 1.753346317337419
Ni 4.945227809220716 5.472274914315826 9.033032402419982 1.558949835298283 0.2725338497725113 -0.7250698605356997
Ni 5.718842809713604 8.270310348774354 4.001589030931674 1.50084367518417 1.1814093042053782 0.8018365731737932
Ni 1.321727532427086 4.010970643118995 12.024813991617672 1.7144956630188086 -0.5605441979140668 1.1586023336131916
Ni 1.4611762694712467 2.201510821312107 6.980752392880828 0.06510470291913303 1.19045393090615 0.6157303561679074
Ni 5.186849352222684 1.7319090620633417 11.893794168203264 0.25549412068140515 0.5852494139702309 -0.08748769860002352
Ni 3.32104134221732 6.007770133299529 13.23522665198608 0.1026618352373006 -1.4868766714811168 -1.0867076043554187
Ni 0.8842148914843719 3.5694286907144814 5.056493309185239 0.37200057511128193 0.37300510511639634 0.520429332171052
Ni 3.5070827073743205 3.2268595011281582 5.51414702164871 -0.4947784643721672 -1.0191336139601868 -0.8097062057298572
Ni 1.3309802285907821 6.642356973846607 4.3374564158855975 0.058577957544208796 -0.6125409026963321 -0.04730341307165402
Ni 0.05042536549606304 5.011075554053658 3.0798193474587836 -1.9059574879096528 1.308587122306172 1.3872387106718045
Ni 3.12326039022812 3.7228844737297706 7.822887631377261 0.7910387112273409 0.9509908955456783 0.30213033248270543
Ni 7.5860496957200025 8.696034945088753 9.424714025517085 0.8605292019189955 0.3500587807328681 -0.3720522542848238
Ni 1.7404486057559228 5.348734963165768 1.4315447842964222 -0.27063149054347585 0.7231947550001738 1.080661655271655
Ni 1.6552817433400853 3.249424376752666 9.632117050078097 -0.3206607871867252 -0.33655303293694944 0.22486328316942564
P 4.289228108579392 7.819469985304149 12.66374923364247 0.7136860441787902 1.3677878010360445 -0.7010686125250958
Ni 8.732899442057155 2.7435981291634226 10.837109751666034 -0.6881081957096858 0.12434291975516006 -0.03552467526917108
P 4.215233968211021 5.179992116923502 1.8865223463971326 0.019549382886837302 -1.2099094685276002 -1.0290269618144987
Ni 8.351893162873818 1.413385910926149 1.5929549602587623 -1.1575870049748 -0.03510661389514599 -0.5287082843503926
P 4.967207534099693 3.0823729818841987 8.970580360507194 1.1890061427160297 -0.5694664401043612 -0.9766139954304214
P 2.856376792383966 2.0806131914973327 3.184129782233857 0.3169432291258219 -0.02571206005412346 0.32493781729552423
P 7.084246359506279 4.771538610582641 4.703270718838106 0.0019782067722933674 -0.543924844189831 0.5365306086082888
Ni 8.849006150142902 3.9200711319930415 0.513425892896816 0.8114460712390993 0.1474216559514945 0.02183509359722046
Ni 0.8864914936037003 1.6887907665020867 13.064209032220566 -0.4861606407961692 0.6732852717642404 -2.0057481722467454
Ni 4.293296734856907 3.7482196724151473 12.86689620082779 -0.0872879238843916 0.3915281036212483 -1.0392625234995778
Ni 3.939819969654685 7.731651658572628 5.313676204826151 -1.286586706775681 -1.2094849793956717 -0.9052892797435055
Ni 5.50609479881139 2.3044424946430246 0.8013246311878628 -0.09490661677191396 0.0697530003244218 1.1255546591296035
Ni 1.0466335381847116 0.9074152042466035 10.342563198994924 0.36581167269175063 -0.057682442313132916 1.0483945677078332
Ni 2.48139573728351 3.2384345143131767 0.8187913809419385 0.38524509882601393 -0.8299058206061837 0.32146708513810446
Ni 3.8961165233479 7.090491015118734 7.50393567445936 0.9000851098347467 0.39841171811495907 0.6121017582763846
Ni 8.079770637261088 7.347801912485231 4.596378306398381 0.16607578071757204 -3.6675557608432188 -1.6370252394454707
Ni 6.1261808724458 6.767131227350519 5.862311715239165 -0.4952122094754762 -1.466652631124758 -0.047275388047196
Ni 7.318352372620344 7.337982351536803 12.961919196113652 -0.4663376925329711 0.2689047376603562 -0.9247368469451558
Ni 1.3775819996840213 7.131561283070634 6.678219400163288 0.5107344734807914 -0.05316552827938585 0.42622282678995627
Ni 3.534310503002272 0.36255300184421874 11.002976216274801 -0.2835199164703697 0.980952217794459 -1.0451644908063096
Ni 0.7484352324742937 6.45360014351113 12.86504931878721 -0.6682407673617975 -3.0556751174387053 0.8669446185270359
Ni 3.321105343080112 0.7615170088290527 0.012273536887495473 0.22738502115001483 0.7453216688062002 0.19216219339197874
Ni 4.142876421334055 7.347445336249673 10.409257583812805 0.1533295367954972 -1.3865051749398893 -0.16753282487907278
Ni 0.46178085381553846 4.745343971739766 8.086988105987988 0.4789774927841687 -1.1839672947405415 -0.0882258623176287
Ni 5.144672783642517 0.09884476109260544 8.628652093846835 0.2834862350189569 -0.9598388328546115 2.329830326410194
Ni 6.214959212119206 4.784302211219518 0.7058508869683351 -1.3062785287776537 0.4023938426911586 -0.5363555164830053
Ni 6.260582684309762 4.0046071287613545 10.876867087632647 -1.0245115904426485 -0.45703029908911613 2.26033777883601
Ni 7.373603403170952 2.473413915395262 12.696373216301858 -0.14506266880101468 -0.8479719340792752 0.2808932774808002
Ni 9.190158177767394 9.118248636929975 3.485913050558687 0.33554696026993824 0.18461703405486915 -2.068846643369127
Ni 7.190186073388438 8.181788012552117 2.0560807464909803 0.4330822729139509 0.922130005449928 0.08440211769616432
Ni 0.8057416050185757 3.083186707139702 2.491641361118527 0.6862161208932956 -1.0176606289590862 0.04279395523707469
Ni 7.315463190814289 3.9160207916763246 9.0466289285712 1.2141816135403927 -0.4786759023833498 -2.2761629187937253
P 8.954790433358278 2.4369242806232165 8.645659865984886 0.14776849776795195 -0.06590380178166069 -0.5806682223574516
Ni 4.9242538121856185 3.904336062726519 3.5979575324531976 0.8761064875319622 -0.45366318238909614 -0.6765644567361445
P 2.1671332150122087 4.9933107431385775 6.204293925483879 -0.2625831663177027 0.39534567759512557 0.14260572262008991
Ni 2.371817117202585 8.473531374100904 3.5408715057365288 -0.24948082460778973 1.8684206673064594 -0.4396265017903719
P 8.38323529968128 0.48111642876315125 11.756712548784384 -0.989721736456973 2.133415528389448 0.622174054910722
P 7.9573278437588995 0.06517665007166286 5.092610824655049 -2.2248352150540263 4.03579018404385 2.3611877576755527
P 0.7344739014051597 7.379253765057478 2.186753136650228 -0.4361981928351133 -0.4439382417918483 0.1924720113229137
Ni 5.69919454483635 9.143803267144923 0.3891042169226505 0.6864297795659985 1.1949021964854907 -0.8629858909896041
Ni 0.2380082371483199 8.56616805150265 0.20825880752634973 -0.760271091027181 0.7136356505568291 1.0656011613941068
Ni 3.9140093359885646 0.8075436864552006 4.931790370928439 -0.6948966793864291 1.3641602315857861 -0.8173390396847666
Ni 7.256070390142977 1.358628601317083 7.661357682371696 0.3456879053586821 -0.17025228069276485 -1.2336700612823075
Ni 4.135836326426896 5.440100766292065 5.247677600816626 -0.16184528757599223 0.4467433153408113 0.8373396511764095
Ni 3.096215454208147 1.3135719939112593 8.711364066025565 -0.4239355734176764 0.15367946393574825 -0.21862295868666864
Ni 5.562872707088617 5.8312008958357975 12.128174470729299 -1.0543656976896034 1.0199136866593208 0.0032233920333041262
Ni 7.377790888193652 5.7678583276321564 7.646758171270718 1.1670298955552545 -2.7127472913236637 -0.2394779477588069
Ni 4.640592845309466 1.7697701438952238 6.859594188124685 -0.5375132842365324 2.3464447950384235 3.0069352290308404
Ni 5.668474130696015 4.246978396156034 6.872654935624528 -0.21278475473833677 -0.8594357117445005 -0.2791050752321258
Ni 5.035459882777548 7.219187607213777 1.2973934900953898 0.7010313315292571 -1.2907282397478803 -0.08264862534016733
Ni 3.796366607195802 6.772041007824733 3.204844118625625 -0.07593701764794664 -0.8284582895263797 0.25042441946798166
Ni 2.477180823319613 5.989045309442563 8.950013226099848 -0.6142866817428453 -1.4188141714852402 0.02961242354979416
Ni 0.6078043080645543 0.39917703842812857 8.049706689113396 -0.7623734820821644 -1.20149501921166 -0.23736578651181056
Ni 6.3017078101440545 6.215425504119551 3.2798887874418305 0.11977252677565825 -1.7980266909639293 -0.6290849230979424
Ni 5.486976826797273 8.97748331070837 6.507442240782266 2.228969291827058 -1.4863889332114208 -1.6542336329039578
Ni 8.008473676110397 3.2643457207636852 6.133584857972836 -0.7060082159185582 0.5451134651812934 1.7879919324357467
Ni 2.0404572215853247 8.02119156184528 12.050881543033 1.9514619000993554 0.7751657487508263 -1.1103206157886683
Ni 9.050718583703633 7.786646685672066 11.196113448519394 -0.1755893766349621 -0.6711975359972763 -1.5468761919632006
Ni 1.427868391878021 1.367360147598041 4.821297452807624 0.6878737111013766 -0.7216040134742863 -0.7676843527721166
Ni 0.2740480372847395 7.016652305417145 8.798251637352477 -1.221037974340594 0.3470102237145314 0.10717540683693799
Ni 2.613328944439767 7.892915546848586 1.0598890311670497 -0.829274871890404 0.20236741605975472 1.242271172687757
Ni 8.05236912500556 6.137518168140447 1.3216077593838604 1.2829527095675195 -0.32556053848118766 0.7963896911266091
Ni 1.4256283616802883 1.0205211861654273 1.7582719317455557 2.3506061255049646 -1.4125406797717028 1.0758611485592182
Ni 6.573034896462079 1.6897233505027753 9.812314222164115 -0.8202767821568518 0.4662394763922099 1.2241132708318079
P 2.7288870737015785 2.2853702375309 11.77826986796893 0.3323168833684148 0.060376701315844404 0.0057052779148934005
Ni 2.4498981698092686 4.4362746623350455 3.743778012537357 1.1655731085040701 0.6718845347619719 -1.783494301675709
P 8.130907326632189 5.068612329703993 12.277621056839664 -1.400952203603155 0.44803092380398324 -0.14311454393570838
Ni 8.9579630475567 5.415533577960196 5.9618842575715245 -0.36450940894055933 1.2928056911021995 -1.2539565794454854
P 2.446048975061328 5.809970895349531 11.055593154172481 -0.9512174097341874 0.8179059679318302 1.0160359488714696
P 6.398029108646562 7.185998588365738 8.543143283964078 -2.876300305619382 2.48255822506595 0.546900124768071
P 2.751397091443692 8.839780882920401 6.62255144970649 -0.7534959770868764 1.7863932204900588 1.2933762188936888
Ni 6.253323157873028 1.969562551572184 5.273678408475043 0.22225721300514625 -0.8328296791211979 -0.5318409164421034
