# total energy = -381177.58177858515 ev
CRYSTAL
PRIMVEC
9.05877579554390 0.00000000000000 0.00000000000000
0.00000000000000 9.05877579554390 0.00000000000000
0.00000000000000 0.00000000000000 13.25843405187688
PRIMCOORD
 96 1
Ni 1.9469754644143484 4.366148666004865 5.360450746919204 -0.5889086079893728 -0.33258247832497556 1.2334594879333982
Ni 0.07691534602773457 0.37567920073963146 0.8369230664544671 -0.35166494887772337 0.2888495562133993 0.6648250568120292
Ni 6.735063780539912 2.1582079939672374 10.804695168182873 0.4836119062323865 -0.1123968031368774 -1.9001938459529986
Ni 1.7412325528779724 8.75851342861004 10.142913563394183 0.5823782630700228 -0.2146269501533981 -0.09526168611848755
Ni 0.7163924335222684 8.370707244968255 7.921370233908378 -0.23012967377468752 0.8188001976113253 -0.4131785920114884
Ni 0.8295691524184848 4.283206516567253 9.284456881449529 -1.6942474542927337 0.7498123575877023 -0.5635549597159326
Ni 6.155084731217751 8.68933155931613 10.831239192460076 0.39663508583051044 1.2791698454863196 -0.4860572824490855
Ni 0.16880756576289652 1.3437244205634375 9.561744190957551 -1.938838297798074 -1.3326475056894855 0.9116399045518815
Ni 7.036059717560834 2.977112249866183 5.493579419085007 -0.09469810030553369 1.9599501400760244 -0.6295194395321998
Ni 2.684350739870031 1.7605277449162111 3.9489712142196125 -0.23127175779893072 -0.3010820937238492 0.9785286959546309
Ni 3.0768040753970833 2.7199064341188985 6.673884433615289 1.376878193373087 -1.351023437093512 -1.8282754625461415
Ni 1.1299735513924123 1.2164576820915043 12.32241511529808 0.4457123029731356 1.2829740497237583 -1.4965152230121452
Ni 5.741044333424443 2.496544204031173 7.544804179037035 -0.9277807759778022 -1.160997830428562 -1.9295522445104574
Ni 8.482773357975322 4.358312825106707 3.7852429039383315 -0.2136008228817289 -0.9133160067027238 2.6221418730302646
Ni 2.81534063511554 7.047401304618052 11.688263681981612 -0.6694910948291308 0.3227647209036054 -0.9370732570233217
Ni 4.0830709871302515 0.7504751708577942 11.525503754812483 -1.4445311166353703 -1.0381824030615217 2.0996047504875905
Ni 5.017855100565888 3.5966056783765126 1.2890302510942944 -1.0430749552671326 0.7282251183352297 0.4861796669595627
Ni 6.656533254821841 4.4265525817377185 11.974897836158672 0.049311444640618304 0.9529716734211329 -0.46115666255266385
Ni 5.212020896879321 6.835362544036336 6.571847291080303 1.2995520086870973 -1.5656449879302714 -1.604847626271662
Ni 4.412683596286759 0.9497945046128015 1.0940500708539898 -0.04853728547875512 -0.2265139313989712 -1.6971998520528384
Ni 5.030057271305563 8.75781590288847 7.531068357587467 -0.3308729518330366 2.1746994747398998 1.2479581957702055
Ni 0.3795065334326624 5.102826415738978 1.8610991775583385 0.25307676948916413 0.8152129944806992 0.5135868553279219
Ni 7.310214502464712 6.956405903667767 11.682920816129897 -0.03167084874071965 -1.5711916287801133 -0.0440234567688016
Ni 7.77306358321672 2.326003694495077 13.084496389460753 -0.43384460500127214 -0.9251340823835744 -0.02541895429373687
P 6.653353624584554 4.904076878969513 7.245932524895441 -0.24274170611174326 -0.5901990446660222 0.3497121960267267
Ni 8.245940728563248 6.572739580477377 0.5411467959370356 -1.0858617114153557 1.1686229510739874 -0.2455717193613706
P 2.8942244530821992 1.0934666857050401 8.032078436452284 0.8062516715223534 -2.433684896404015 0.6886398998434399
Ni 8.593779594236626 8.525394897195937 5.345190333535347 0.25640763363461 -0.7298950498384849 -1.1960774477405145
P 8.899449859469629 6.859712532862056 3.8629373046680793 1.0478667202288212 0.07336102939065431 -0.3297190407342515
P 4.7902352459439035 2.421890834271959 5.102468594102588 -0.8054240334147355 1.251480092880535 0.13641964841403603
P 2.1256779307703755 5.254207614870907 7.4599904865594695 -0.07013506625418889 0.06885439976955239 -0.23630237824430272
Ni 6.839746991429061 0.5592471354730004 8.82482638366991 0.839317857948703 0.42648327954019455 -0.9869333750785584
Ni 7.520604565886353 1.15401554184757 3.642051743830708 2.445841843481523 0.8221416032797325 0.09637908755238239
Ni 2.9680262979345615 3.845866947918381 8.913578831780445 2.5561650519188235 0.5064970383606762 -0.4044687229423164
Ni 6.4082140979428726 3.313029766843635 3.172252770434693 0.1457355264983232 0.221852778477876 -0.5691494230845746
Ni 8.938828357023725 3.372129218889396 11.136143085276913 -0.7557505774490081 -0.43975942782381044 0.26003288909202316
Ni 1.6165203891265947 0.41974923817945686 5.916364252969636 0.06642907815751141 1.8317333391877548 0.6546542869266144
Ni 2.1255782842387223 4.244444015754283 11.644246185440295 -1.2582518643867298 -0.10037612452691745 -2.3375073833394775
Ni 1.5630917306094434 3.731092261005477 3.2827354094660395 0.3720283430254238 -1.2869119513255836 -1.1147339143650157
Ni 2.234944882115557 2.036702636779961 10.157710167467075 1.1062269053352691 0.4366964726277705 1.1678171673432403
Ni 1.0210689510714228 6.492007772287336 6.015736303721686 -0.057917955362706705 -0.010396769853291772 0.18586787574283475
Ni 8.378606497295646 1.3457354687477046 6.883062432861007 0.16618196727813317 -0.7272288158602314 0.5504063381491167
Ni 0.8625757072121595 7.42480801386552 1.81104944234178 1.7789084820772394 0.23786483763541613 0.4714333618883235
Ni 3.5347704760981 6.050310932572554 5.1923869066334625 -0.9609521205234481 0.8181617926963779 -0.7404088048856152
Ni 8.924542667894944 2.828530212396139 2.016183604157513 -1.3984394644836302 -2.596606190653006 0.8625845417861273
Ni 7.841901219037648 8.26326110751964 2.3931609274413135 -1.548311124637514 -0.4432813249341398 0.30449369050855946
Ni 1.2962202012918298 2.4481341071990843 7.95852027266369 -1.8175138531542634 -0.4397239466001846 -0.6864940571450305
Ni 5.150901337873688 7.904551711120493 1.995102927447567 1.9402488049923554 0.8105860372316491 -0.9053440442408407
Ni 4.105237811035215 4.850403633511032 12.667014562815178 1.1352675155419931 1.6185791169251413 1.2296036045224177
Ni 4.74068374338561 5.8556106684984375 2.787293759965497 0.6594578789628449 -1.3637048892159223 -0.4734902444173522
Ni 6.359106475389214 6.865863441497721 8.628349693699692 -1.0117774307054315 0.047921763381943275 -0.8111642783326223
Ni 5.307735919919712 6.063165335155774 10.5375246992703 -0.9212895118265035 -0.794887909770102 0.9573075817923254
Ni 1.9742786140872366 7.782602473928581 4.332843171616232 -1.1890182269008878 -0.09322485819411686 0.2944530184431058
Ni 3.9797556513574284 6.122609020674518 8.440941743987445 -0.11343424326245624 -0.9445294561910508 0.40595019258384923
Ni 3.81729556966082 3.876168552316461 3.7802315892737526 0.7310715866450893 -0.31696842593680247 -0.21323624045345857
Ni 2.9387302176286156 7.726320301095915 7.085638396445942 -0.5484507570846425 0.6457862950130233 -0.132932461196384
P 7.187911973024214 8.473506230531605 6.846986764892423 -1.1648668264656648 -1.2498196744589765 1.7634121862138536
Ni 3.338557396497981 6.798031329768926 0.8069693190396123 0.21055123742212767 0.9444991171737476 0.5759728737643113
P 2.840062033741058 4.294964807302292 1.3909559706893406 -0.3269036827726434 -0.4374824588641756 -0.3678323026662052
Ni 3.020422256032765 2.5184302058923866 12.933177695880497 0.5319836126675548 0.8082679306214338 -0.9896520595613021
P 2.4540857227714428 8.820366748439664 13.181137219367955 0.8498048735229559 -0.6619881015838665 0.4618889127329981
P 0.4386132324989069 5.6647875603831785 11.154757963267231 -0.5356158101035033 0.7091333918111012 -0.5454731625135573
P 0.12991099507097634 2.150055095922911 4.983580317187541 0.48064202497078506 0.017169826911067203 -0.9474407163005747
Ni 6.215398059194556 0.950618853192839 5.627409240482623 0.6027480849756264 -2.288782150219632 0.8040631485114669
Ni 4.380244120845945 4.505617575216473 6.5878641122271615 1.386631930325741 -0.17737835021458484 1.3069439302757944
Ni 1.566008656354191 6.533288612718442 9.276475194264133 0.09129447394062341 0.23828804121576386 0.5172455351264318
Ni 2.9914885267510116 8.799078625768367 2.5341508050769685 -0.8721261627279754 0.5405376728851529 -1.4929408753973255
Ni 5.551679688181559 3.7818304631680006 9.280492761244867 -0.6349943466038419 1.6451900346444506 1.4335980146626344
Ni 0.6974306044262865 3.548449227261359 0.10717256242535035 1.2778845510159926 -0.4695428297338301 -0.1817685088624805
Ni 5.333689312027483 2.613610761172094 12.410702848220089 -1.028077710527352 -0.6067250673455035 0.5951695012974202
Ni 4.635973356169646 1.349105333272693 9.515220131206382 -0.01357388202969275 0.7750917009797812 -1.8381137887928023
Ni 8.145306790369448 7.769322308891934 9.526780940633236 1.7896322962526472 0.6728618110735768 1.8538139731368783
Ni 7.48090901118609 5.190017130935244 9.88062215102236 1.6148445895833736 -0.42542835591311895 -0.043377081434054325
Ni 4.11646163400957 7.980645426200871 9.79774431889154 -0.2871158613517443 0.640897085241522 -0.1826308568627758
Ni 6.2134141873371025 7.794025589966243 4.4668722860771535 -0.34265966005531956 0.2458296010084476 -0.30327575894105835
Ni 2.444211657362203 5.888928845172917 2.85092078805854 -0.506806856291611 -0.08533054304770467 0.6575094969872225
Ni 0.40098217275897824 7.91238755201865 12.009144537332645 0.3052277404611066 -0.09749160389027081 0.09857043877674637
Ni 2.2745589078353783 1.836050757133487 1.6226993799666334 -1.8787557306838805 0.06493269611764302 0.8152363915194669
Ni 1.4988197176933378 5.7701501794426875 13.202429871427052 -0.7780227585836471 0.672324707623184 -0.05429835633224842
Ni 0.676191399143256 0.3937342463975722 3.1922599822354694 0.7336028377073753 1.3489213031488445 0.5600153219937903
Ni 3.9684502994026296 0.276511878316249 5.330778727425659 -0.4710934620504016 -0.8309008375296013 0.25486445751720627
Ni 7.695402699956709 6.03807252673046 5.58869475118036 -0.36856326729495875 0.09036990524382502 -0.694738813652326
Ni 5.71071555269955 5.000416957526634 4.701771772775161 0.8188881293394412 0.14798961263982255 0.7667348443746537
Ni 7.764539275372597 2.8319363120235463 8.592831140430803 0.11424825452331937 1.7324278220171971 0.8654598064513934
Ni 8.83294938775474 3.693960339801373 6.680606950991615 0.9977299514734301 2.0022926095979776 -0.28759614342227247
Ni 4.897291856041512 7.636448188320625 12.452174828816455 0.15167091814615172 -0.07711638266802848 0.5054158894813553
Ni 8.505103239841171 6.21193760691352 7.737966263013456 0.22891122798655414 -0.6421289007660941 0.9531791614462487
Ni 6.730407569879042 8.864020988079227 0.10352096997905265 0.6735169281590723 0.894281615779092 0.2659417983772904
P 6.041958741464922 6.1703215917850365 0.25737521485109427 0.14395452333850045 -0.4133259162226301 0.4364776717487451
Ni 5.391384653854499 1.0983131306536118 3.3947027818190145 -2.728793803263565 -0.565909061770406 -1.1240690757230125
P 4.046854002262234 7.633495027473459 3.877534615677665 1.7415097297138074 -0.09761347418011575 0.3761104835145974
Ni 7.159340594766652 5.962866571659352 2.978957522456882 -0.8639071172522927 0.46941427457576573 -1.2092322399549176
P 4.025774231429848 3.775815436166409 10.879274255982127 1.4157188203893682 -1.1162392952659488 -1.0853369492601375
P 6.301402074786593 1.8516862038273838 1.3675942942821038 1.1847774493466627 -0.4071228727357118 0.7211980362851192
P 8.216427237642787 0.8130151458782606 11.467975094456596 -0.1003990073450529 -1.5372862342819202 0.27857697064279763
Ni 7.456785491750489 4.429569154014119 0.9166203624704379 -1.3256273656179105 -0.47644187084650846 0.6020608291006148
