# total energy = -340896.23531909887 ev
CRYSTAL
PRIMVEC
9.01186909408267 0.00000000000000 0.00000000000000

0.00000000000000 9.01186909408267 0.00000000000000

0.00000000000000 0.00000000000000 13.18978135288368

PRIMCOORD
 96 1
Ni 6.349870904458864 2.0102595512364676 11.516446485780802 -0.29823279720051216 0.5380617005408346 -0.6732770442341244
Ni 4.652034821054026 0.3000853182467589 6.003368153543351 -0.030530821599005484 -0.8549452800733147 0.1278031103896186
Ni 2.8847262410092305 1.5070097613979518 4.874850573768249 -1.2501634309516405 -0.19402238652916906 0.28269304969370024
Ni 3.393545365771017 4.317847690051364 4.84281247896935 -0.16210548321591436 -0.5353743835166587 0.8356020996600125
Ni 5.1344852176839515 4.427053516265269 2.869911629875954 0.1247419549657916 -0.15686943162795564 -1.5375947666612746
Ni 7.253211621892079 6.059157028585421 2.5132867479154286 -0.2915972941618656 0.40016392491937536 0.14622506454023204
Ni 5.219872674638627 4.419330344696915 11.554815418417236 -0.5909819455786338 0.610131264813575 0.3613423240664874
Ni 5.46218380314494 8.00982109139537 12.295513532353333 0.6599949824132375 -0.9935593650355082 0.288129133107607
Ni 1.7254033900881474 6.477073432682109 0.3620410151140621 0.33255342485925304 0.22585984275474005 -0.5033623493864363
Ni 2.601501228115137 1.7917307445141537 0.44702834509366757 1.2012697905747312 -1.6595763852731096 0.23721306298403022
Ni 0.5706711851377991 9.033497293020224 4.85887793749316 0.5803722883835877 0.564423221253499 -0.7298004332421496
Ni 8.497200980263207 2.475299017329567 1.3156319130200227 0.6534222142917263 -0.48239885976089186 0.6271928482815521
Ni 6.839422653709401 0.766435110064524 4.784289402930969 -0.09385966356463836 0.007519448305496727 -0.7470731042796682
Ni 1.1405961875383057 7.543637117963669 2.692205687666462 -2.084047776589598 -0.41853522833771145 -0.376257550615423
Ni 7.463025951477172 3.7575888181341903 3.6450882526841233 1.0640266178181352 -0.09430035064648276 0.4273656821451478
Ni 7.534084537027316 3.9108536709498276 12.56140691915611 0.9049162126748028 0.1227436935888402 -1.1902698399198017
Ni 8.119937116358871 8.738052186022642 6.729162438844973 0.03489398366370765 1.1081830006203754 1.3010098241795465
Ni 6.768841697206074 0.673223548610846 0.3064684249233812 0.7735552097305968 0.09831435690188228 0.22162420740683766
Ni 1.8787673734606716 6.3896132459016215 9.199766272525634 -0.08043747662146146 0.16935213747599864 -0.01620489189463661
Ni 0.023009103440282556 4.980454356019645 1.306784060224445 0.3189972834413732 -0.7272596690981669 -0.08859327295937647
Ni 6.337416501766373 1.905226220280611 7.0311690875215715 1.0737389600098928 0.18849682872524956 0.1003424430755046
Ni 3.3251272577815825 4.2912356414616895 0.48573612399727933 0.8894849657213972 0.5607719976541569 -0.2760027821577182
Ni 6.037141033087767 5.612600905417287 4.649555655944978 0.9850510704541809 0.0927810857884789 2.0617362575765914
Ni 5.330295103141596 3.021445302693598 9.191971907193697 -0.5835645700686402 -1.4378652745794205 -0.5801390893268589
P 0.19421748823929244 5.5404518837413885 12.22477667051963 0.22158486952847004 -0.17438584324516418 0.2866936862126611
P 4.0068390856225715 6.144679663572215 12.527166323620563 0.32707363269160444 -0.2767702564513621 0.33815508731674665
P 2.3647594345320946 8.44031806434786 1.2165211822447057 0.13730847877689256 1.0676418459732193 0.6411783639273667
P 6.451020119958525 7.894910752226075 5.7974100026211515 -1.20584635420182 -1.5677486645368355 -0.6020505446879696
P 4.668580612185296 1.046800656985877 12.59879986640065 -0.36220827161120844 0.34940726319179827 0.1490586773342852
P 3.9710619664552826 6.256706204722987 8.370393171893747 0.186970107668078 -1.1876959085450385 -0.8611593793038265
P 4.670716425092764 0.9158401794697458 3.7145057769243524 1.0962913913891121 0.42442768256274643 -0.5027565974816374
P 0.18938532418450646 5.662490611137718 3.4352919468366463 0.3413321994931476 -0.9384891635342418 0.34279515719191933
Ni 1.5383169936365313 1.0730161833480039 2.6269165005271238 -0.5954854898759421 0.5956096741586323 0.07058629485899456
Ni 1.8499564288818748 6.303829266719399 4.7229311929656275 0.3397301451133504 0.8077118010076476 1.0942033985118316
Ni 5.969020316768993 5.674332206751274 9.196825699733623 -0.7439096189500221 0.13145459109927685 -0.19437102811783943
Ni 8.449032541485082 2.1346954357356926 10.202994543825405 1.001868656232152 2.2550914428354067 -0.5697382057085092
Ni 2.422083932019028 5.176931119769073 7.076277996839422 -0.6244191421911568 -1.0008268452311988 -0.16945883825719205
Ni 0.537945484748859 8.73810625723549 8.938727579449663 0.7577830344980047 1.251304229424303 0.2701110992636316
Ni 1.3453909061974085 1.1204276251462673 11.341905511896636 0.7036122048825559 -0.017584802961298746 -0.028254109749686826
Ni 3.886837040576824 6.707579013050097 1.4528277025643268 0.986027061214205 0.5018029753191164 0.533771557805913
Ni 5.7850520269249035 7.877887332047987 7.916823111232438 -0.6300154053320117 0.09976523041579592 0.07014612199778243
Ni 5.120381642999617 2.618939194258387 5.0477955456865375 0.06360035045946466 0.7610897302737344 -0.5855592319011658
Ni 0.8549190451415875 7.238765596193045 6.91739424382207 0.4737206152606035 -0.21783311579552161 -0.2574486733046147
Ni 4.981562815883014 4.7211828904169 7.004986905074034 0.9750201685807401 -0.22487073936859336 0.1236266104144258
Ni 8.188229058184996 6.989524340573472 9.063423906957436 -0.5758288919872793 -0.7154163966063356 -0.10065431788896859
Ni 4.748813280181863 0.47538869623207003 10.470192849231562 -0.8979382386950729 -0.3234409210350236 -1.011931439784793
Ni 8.186570874324346 7.134516297823475 4.659475019941812 -0.33469566801323647 0.2872156201544021 0.008551232004120758
Ni 7.337103108624646 6.0346627691656 6.916575966134315 -0.7730489595181397 0.8817246050496879 -0.4703650685248093
Ni 2.354729224548923 5.230191264423651 2.664915946542436 -0.2777542176311862 -0.4223931686312209 -0.3218643205765231
Ni 2.4033392448986346 5.151409507305154 11.441396543535646 -0.8995896582555669 0.10689464237172559 0.10915387071954749
Ni 1.141785754220946 3.218300564932957 3.993416808220113 -0.1434565006561594 0.44477693564305976 -0.685787003775677
Ni 3.5689253446411953 2.7431858295126466 2.8568272975537914 -0.4607722826300516 -0.49197570481604946 -0.6738758541603879
Ni 0.9035209548093721 3.234395762623833 8.191038958879293 0.36881677806666163 0.04474310854364553 -0.011096367023477664
Ni 3.6884407487713173 2.771663334945552 7.269930440904461 -0.5522053390310683 0.032419553981286105 -1.1702993103351458
Ni 4.050159138982057 6.763749991329622 6.032623383254376 0.29144714173724645 0.6235403391306293 -0.10150792413851549
Ni 0.6536209315799426 7.373015405824053 11.092869726885883 0.7495063963115092 -0.23500165715500818 0.702546482622203
P 0.2525386984163771 5.37281310017718 7.908025724902185 0.3052907324885581 0.3442308611971814 0.3069796901552068
P 8.457981327211307 1.551942939274048 8.096071885381841 0.4934119230419438 -0.33335586615589036 -1.787758990489334
P 1.8671420626985047 3.124802426051189 10.321332997889217 -1.091322734529927 0.10641461741151352 0.319956562030849
P 4.099841571719907 6.1141114045758815 3.8976990460509633 -1.1362172810497722 0.34152760333340537 -1.3512648636803566
P 6.853463145312079 3.883187233709632 10.264353654977626 1.4131148071076178 0.8308704985122981 1.092498242895267
P 6.3551338358426674 7.822680623730906 10.085737514018538 -0.2358642622656196 -0.1335605816986861 0.7040148396376134
P 2.4737399640258038 8.354804441229875 5.722689894774366 -0.34618618515133925 0.3887723952529821 0.5614790510235104
P 6.919592238624313 4.040110905261269 1.4085496875505639 -1.2197511372083703 -0.06336046653451669 1.4617328252256374
Ni 5.1749935679753785 2.7431678057750313 0.6155854380893988 -0.16463879116072935 0.8486589328439708 -0.2806796188080973
Ni 1.531747341275586 0.9956853371075742 7.059157248478209 -0.4403348407113062 0.0013896812586750259 -0.5943662886698343
Ni 6.841486371666405 0.8000052225607627 9.207403831340311 -1.6544616897543636 -0.6463349684276417 -0.6414393308982372
Ni 2.756820787018971 1.5681823268658501 9.087284632000063 0.09302585480943333 -0.9843908111623627 1.0954763516869843
Ni 6.320375057850669 1.9280622958397822 2.4977088314941254 0.042160692528449964 -0.2676420688978487 0.9532724924910035
Ni 4.067065404865643 6.995346007823363 10.516066866211203 -0.016443747378320064 -0.14158885131980134 -0.9136551352096975
Ni 8.230260414304954 7.202961441419332 0.12282185879573355 -0.03850766915689497 0.22010339988693706 0.1899039934854213
Ni 7.471452048812541 3.9947812051576266 8.152195100756682 0.5382267653637892 -0.8083676894240918 -0.3128009248226742
Ni 3.0156596829189377 8.510466451148408 12.348615969303772 -0.08545755554387219 -0.4159101320100385 -0.39419073805507593
Ni 0.14608689931015995 4.564259218865263 10.19823267234732 -0.45166800633593823 0.5629391805088046 0.06756833396827719
Ni 8.549055273383756 2.4081245472356194 5.842703655249562 0.1733661437313982 -0.402476632212952 0.2619331914385295
Ni 3.5860478953761694 2.6690812323054387 11.528686405995664 0.17296710852076663 -0.010466189638646492 -0.06467841401499183
Ni 1.124023360800612 3.297469832410194 12.65824575780496 -1.1560194033773639 0.9344800423748487 -0.9940409326576172
Ni 3.161994408621315 8.250248739320837 7.952145131024929 0.14145515395541444 0.490085172661556 0.12183815105543533
Ni 5.591459061193997 7.7054181868027545 3.5008451817320556 0.05920324983303352 1.0467858284598164 -0.13456536881411663
Ni 3.0873220636792102 8.381019967592001 3.546296542064605 1.3286581820244343 -0.5409770744154168 0.43742563748431124
Ni 3.4759498941502835 4.303248462582596 9.487396286893018 0.020364679699281057 0.7877068186406305 -0.9734055157954525
Ni 7.201285233821067 6.201914042371069 11.237205620086671 0.5008285272209891 -0.7154505922783807 0.45962248529632455
Ni 0.3934906348798063 0.16629421273807218 0.5307621241220968 0.3902281538629021 0.580225221282762 -0.5954482088801035
Ni 4.594656252354246 0.20817236708829664 1.5311886054094974 -0.4653671010895856 -0.0627490582027629 -0.1542358506598505
Ni 6.170958273015997 5.816431354113946 0.3148972258193926 -1.2860663154958367 -0.48082277352302355 -0.4594671906653829
Ni 8.058079648861575 -0.005287263429583963 11.06345678947072 -0.7022274087198874 -1.1082449642065624 1.1406115534627261
Ni -0.03559598060425038 4.888037641394821 5.6083743389463905 0.17244800279250302 -0.6030884990341807 -0.038064153861573156
Ni 7.829863083170788 8.81475220144652 2.461041339688618 0.666950073574832 -0.13011967433793722 0.5711320007322422
P 8.534293832276447 1.6234881657398177 3.5890975117807566 -0.1775488143541781 0.06599970392957664 -0.2370413132928563
P 1.7482214419097029 3.3944735882582284 1.6241108858744422 -0.6354329768031572 -0.787451765207031 0.8130681802235546
P 4.729852308210081 1.0426461854654436 8.17580439465957 -0.0936622028418516 -0.2800944357285886 0.29634252215633483
P 8.408749487913852 1.7691740368880269 12.338209063204431 0.3355762708459769 -0.6827890974896176 1.543610119617419
P 6.370426977209641 7.736851585204645 1.2398141595524366 -0.4395388271725721 0.06180700600446774 0.7847361660480808
P 1.7186895478262758 2.9754397124293637 6.144050635129425 1.1021583916928501 1.0890249396346858 -0.7403746092135701
P 6.779583844825069 3.802287687421282 5.8922310838439165 0.11322726945797273 1.0335346198768653 -0.024081723539552076
P 2.4018342628077183 8.55133527619215 10.087280345958447 -0.3019608967843767 -0.13959830325233377 0.7862531169132394
