# total energy = -381174.8512637 ev
CRYSTAL
PRIMVEC
9.14327389106604 0.00000000000000 0.00000000000000

0.00000000000000 9.14327389106604 0.00000000000000

0.00000000000000 0.00000000000000 13.38210555586761

PRIMCOORD
 96 1
Ni 6.653843998434215 8.411053273129228 10.240000676352114 0.5689375641840847 0.6739144207078072 -1.156357503443073
Ni 0.4475120644811937 1.2224557461351166 7.364721672851083 1.1008265602553042 -0.4788049717620464 -0.4589223739055064
Ni 1.3887261855028583 5.511849064310983 8.53530762506081 -1.1088028935925613 0.7131394276467009 0.8028333898694238
Ni 6.845002429881087 7.521430990500549 3.7932116057015746 -0.5708378665305911 0.5224497050351906 -0.9549915320646392
Ni 9.118102658683668 7.445011505637442 4.458034608515731 1.277675263218664 -0.9989951913390989 -0.6036752247755862
Ni 6.087015864358669 0.3619730780384676 12.438064797661747 0.7624282465794999 1.3805808390356547 -0.42071192427405607
Ni 7.981877130512653 1.950452372634923 1.7337860351254641 0.7463485674088178 0.08091827291262192 0.04866506930587103
Ni 3.0585166166017785 1.5227848702435696 9.346290435876783 -1.1151905422864599 1.2369119652583729 -0.8063092642331663
Ni 2.4130746118809845 6.36601373000988 10.565801133426783 0.5279140705838715 -0.39202406942106033 0.8846631188527215
Ni 8.83405770573353 8.477067712075344 2.2001250152900296 0.35741702087015215 0.7888951825217768 -0.5136261932062897
Ni 4.3761629893114105 8.17143548899338 3.028142660067292 0.4437433521722229 0.18531174612904858 3.829314916463309
Ni 0.5339900651731948 3.8507721734219857 6.728335166791263 -0.2535493382502085 -2.2566906690017263 0.5744389536182881
Ni 9.050826447912822 2.847288698522396 8.85726790701673 1.0998860507189057 1.5941088996979191 1.745624523213129
Ni 4.3466759303638725 1.620764195416224 6.923673903153117 1.040334159297202 -1.0484264493870332 0.6149852504717667
Ni 3.7746727031521083 1.0169606609115807 1.9645997606378762 -0.26084124392593144 0.5021413324951417 -0.25384372956217577
Ni 5.858086567636672 6.7524450662451425 7.932537280528592 -0.6934905430675218 -1.0299510162906649 -1.028049685502894
Ni 3.3568250771358423 4.2758429859711375 4.614765870023018 -0.4313308374404829 -1.282781474096978 -0.024492071604093304
Ni 6.028818924761436 7.291313068146557 12.238685648478524 -1.4522619096207248 -3.2217159311532835 0.2809292729250581
Ni 0.751443638581997 5.009115281622178 4.627639599944921 0.7616494594319463 0.49331679222497626 0.2996618163375549
Ni 4.43135179173229 0.49763457872755185 10.772555247492823 -0.3269005974488499 -1.3710469314032905 1.7295656699780535
Ni 8.546904039592023 7.662127692232239 8.302927656696394 -0.22376747900208557 0.005210340556345865 -0.694772495103739
Ni 2.023982582884875 4.668564894781874 12.155568715342838 0.34215495250475914 0.42420193970518555 2.4153778705647113
Ni 3.561250399290584 5.57168264997073 2.663092870296779 -0.848733494835648 0.24789111152316662 -1.4068999365461576
Ni 2.8281152527509277 3.458342849382201 7.925311351013479 -0.04401060125299517 -0.11232018426267107 0.7564992826895746
P 1.7750569457231058 8.105375333676804 3.4338077876830315 0.32283876867465044 0.5580198888303164 -0.2849587057994254
Ni 1.04123605362653 1.4127912829136857 2.562512283644877 -0.22900533036225723 -1.6577298189826741 0.5045676825484471
P 7.936435058274123 1.051302798402108 8.833849239084227 -1.4425565094075026 -1.6951316566699 -0.019675366941740307
Ni 7.42153157776852 6.734652254861605 6.045727581540252 -1.0081583458956058 0.5857281533788623 0.033458279658445604
P 1.987610638545866 4.7463284409365425 1.3985771490098589 0.7642832975103676 -0.5711913932152678 -0.5769604344885612
P 5.9627039098003065 5.094842619511204 13.39107191360761 -0.7461680759668956 0.9364765039795871 -1.2379987705646485
P 1.5626769751080984 8.009782403042228 11.701688360456384 0.1550773727245394 1.5565214283624484 -0.5958220472797545
Ni 2.4602447629229522 1.9016090024340717 11.730673453656259 -0.12166331604046789 0.22394797044400785 -0.5600736860355516
Ni 9.077351086054467 1.2674315113949417 13.044876469342745 -2.4003145484736854 -0.7869527140834254 -1.3144998882461814
Ni 1.8152599219067713 3.7693330310822293 10.182217012743852 0.9046989544576741 -0.5117125211233444 -1.8515112931456306
Ni 4.763490366407714 3.521687452293376 2.5543363679515783 2.023257898995735 0.1377046857740467 0.38126374558076276
Ni 1.8525553369290986 0.3076346001081685 0.041312969658466044 0.808616315099788 -0.7814394975746799 0.4406726836666991
Ni 5.59503457200236 6.660290006669257 1.925511349566057 0.756692115426671 -3.2832745685923714 -0.5853332319332887
Ni 1.330968123062054 2.685416173993031 0.5537834249281185 -0.13478854056851625 1.1758192117121105 0.80524508463471
Ni 0.4338437840406747 0.7689831812731788 10.180543793584967 1.4173393867119268 -0.6300940810887471 0.5936430373505648
Ni 6.645852776877579 3.5643042528373985 9.739870898124783 2.049899155732347 1.8700358343123793 1.216613362910337
Ni -0.018522444656099618 7.176016381843163 10.434068497615144 1.2884235028741036 -1.9110297602262378 -1.63390392020767
Ni 4.049482949269065 7.718550836655575 6.579379345572033 0.14848454999837007 -1.264500673509919 1.1991247192072703
Ni 7.90810005186221 0.4158361057159693 3.9965927659549796 1.4928197764384292 0.41315236675924333 -0.18155330752788088
Ni 5.759037479395223 8.74503878917129 5.431127668987468 0.22394694200274334 0.7223295787864011 -0.29876887220964027
Ni 4.447645106164696 8.805155816327897 8.659761300367602 -0.5689018258501427 -0.49691093733413766 -0.3954968584610092
Ni 5.970978572853801 0.8983175362904193 3.106442002083767 -1.762881510521364 0.38621851848287675 -0.43373687577881437
Ni 7.203510207038588 2.6724052949597454 7.436904164499836 -0.21473930736154628 -1.0735772376210477 -1.7530377849580647
Ni 6.631324114344979 5.842561288228015 9.900550225385109 1.023787310682114 0.8631805234989134 0.8717746929258278
Ni 2.889302042976329 7.848028741076064 1.5058213538202 -2.1930784914677197 -0.9226925628216174 0.31749035987854357
Ni 8.50650905465242 8.791687773589999 6.122059290972073 -1.022000908205653 1.064887937377166 0.5239170336093364
Ni 7.6324760543510415 1.6277039404522493 10.931133450366747 -1.1700326869373203 -0.08826751418884153 0.44028521842029333
Ni 2.3857636521674053 5.215149820017157 6.520377797854682 1.7013866364406762 1.1628166288048556 -0.9746170196050506
Ni 5.594659697764579 5.484803259546078 3.96123755369503 -1.2397005837471036 -0.6534777501200101 1.6538600516146225
Ni 0.06237084422034927 4.824622296988562 0.47693786349231293 -0.2531168786984802 -1.0008047337440118 -0.4410640055678468
Ni 6.978357082516694 3.061908771290007 3.5229199656410133 0.03960450176549954 0.1311979950037805 0.9794383522530938
Ni 7.953286112426158 5.623342148591997 11.999734409024002 -0.004881239351701271 -0.23825538820561545 -0.4321397064950235
P 4.0476817242728895 1.9821063875423257 4.329124501416372 -0.11071350189718353 -0.06566931717335142 0.03680097087843339
Ni 5.107597486869906 8.438309373198255 0.9238793876701497 2.0889912366378023 2.6295505067895104 -0.16702040401902846
P 7.449546569587203 0.21394621346701145 0.629508020960213 0.1276673561427027 -1.3443339408884782 0.8716546224081955
Ni 0.973520965699255 6.905649766935046 13.367639530763965 0.25782893946216884 0.2768443042224071 -0.7141043626631314
P 2.47868674676704 0.20832218557286253 7.483300794553599 0.8131897934030834 1.073929478754144 -0.3348023687944298
P 4.100621281267074 1.1364632532974144 13.086227840752397 0.21975218719510542 -0.9812232120676585 -0.22002292435798884
P 8.793873016098049 4.819163762355483 9.693850056636212 0.555441843690495 0.6134127637783242 3.569908090991058
Ni 0.2869634860403879 3.131772528628963 11.775342919233992 -0.3909570616091267 0.5522279647388877 -0.9701420145528323
Ni 7.850662004014635 5.04242422914028 7.909854646160514 -1.6694977581518797 0.29485462475689866 -0.4764904646962567
Ni 7.44083302937728 4.472898829207518 5.566621847760664 0.6772288297930208 -1.2547417943509422 0.0829414739902378
Ni 0.447691272653402 2.353506181169913 4.845151690307913 -0.13466821294056805 0.3813781596714399 -1.2450595340661719
Ni 2.9730910067577967 9.079582044932978 5.105340012496527 -0.341744861550534 1.233362557344218 -0.9266397203948235
Ni 3.6769951060244987 8.049711081003128 12.743244428676146 -1.3281763572920093 0.08110442078149903 -3.415190672709099
Ni 6.531397271790673 8.920278780423539 7.730748878622058 0.9191410980249332 1.3109774769152196 -0.8021965276163733
Ni 4.576949288377433 5.197311292263158 11.343167782715154 0.3124368566150361 0.3919315097072541 1.1584223563919018
Ni 5.388076562924064 3.369552514672268 5.599835705228207 0.22046823942552354 -1.0408391239580785 -1.6689385432143
Ni 0.875389862176669 6.407460191470093 2.1950267256561857 0.016577701853023062 -0.5169922814650451 2.223015902457101
Ni 0.08507267946402078 3.79248380108383 2.8193020508533984 1.363112507047562 -0.9069628107911865 -1.2075733641952557
Ni 5.6563310815168695 1.7767393081560814 9.193840969626903 -1.213032587537614 -2.352144673636678 -0.8664550804851271
Ni 7.745989802206446 6.807240707880054 1.0625508541904056 0.024688760995931675 -0.023095191256566675 -1.001126892970121
Ni 3.2577577023462085 6.673922628340816 4.630289320776858 -0.763102389828389 0.6094059566117762 0.14941888888718138
Ni 3.8893567900913215 5.412169090157168 8.926680900942939 -0.6805869476319762 1.833071341272888 -0.6494794275938943
Ni 7.2061434699771585 4.491825406578495 1.58185864982625 -1.0228041208332384 -1.2101763490357416 -0.21917086077033865
Ni 5.2273835207526 3.9380721544548813 7.769396583882631 0.4394118146764045 0.46297494670832523 0.32137349698303364
Ni 5.365053798759754 2.4749380043892133 11.667697324691002 -1.2011947143624215 1.3107607329187232 -0.4466720957832437
Ni 7.767878800383316 5.456879700468318 3.5428989338600094 1.3213503355091114 1.0627377238033826 -0.4820185936033376
Ni 3.533226264197808 3.0755231064133817 0.18637101313216553 1.0492893116079607 1.7484337105271501 0.4555280035119767
Ni 5.8337197421808 2.257584092668017 0.908067923782405 -0.3227174126054378 -0.3607733389368948 -0.5848866313141734
Ni 2.6872539720855753 2.949985953126656 2.6068873357968405 -1.9978062916918495 1.048376569985704 0.6385136726110099
Ni 8.159402940287967 8.033399480022537 12.09761132952682 0.3386425684761265 2.3115682948762126 2.555379322792734
Ni 2.3424702493405554 2.221952753530481 6.056005535947361 -0.0644380158694116 -0.10836634182124562 -0.8518453009917523
Ni 1.4984180447876976 7.53296980240498 6.812414886688864 0.40306361506467353 0.5194070615541249 -0.2608422723671959
P 4.397018797515854 3.650909345039282 9.900162550563596 -0.5874649335643108 -2.5119248511535255 -0.3228655081475278
Ni 7.292858281468149 3.378549496379051 12.531378310065122 -0.36415356826303735 0.4726960306508311 1.4883059477284755
P 7.6169599182164776 1.9287553832139905 5.34350127306948 -1.2168982411406075 0.9934994583318502 1.5679103869256803
Ni 2.1557737356507056 8.424173871451622 9.530052872910428 -0.07040374653454326 -0.1241781120425216 -0.5259073245664878
P 4.883642131254098 7.117929161535037 9.974928017143414 -0.9153091258733526 0.2528911358409193 0.8384254280414206
P 0.17041325685894476 5.89639688608324 6.611094620415853 -0.06933313917818382 1.1622185902095403 -1.058075285330707
P 4.634817070107344 5.4661509803978685 6.050143782926813 0.28062228320760063 0.5682019715696408 0.7946572818165347
Ni 3.6350823375855805 5.902815464496006 0.16344882498287058 0.7273319170969991 -1.2716249432595261 0.615159828376418
