# total energy = -340859.5016405712 ev
CRYSTAL
PRIMVEC
9.37989533031629 0.00000000000000 0.00000000000000
0.00000000000000 9.37989533031629 0.00000000000000
0.00000000000000 0.00000000000000 13.72842495027193
PRIMCOORD
 96 1
Ni 2.1740345787030724 0.4380392276099239 5.337996090030938 -2.0217476329987956 1.5358523300488711 -0.7758555757289993
Ni 4.218354587351933 6.666882417777215 7.60947370951846 -0.8435072134397021 0.7403154738408605 0.09948112351647383
Ni 7.426241209686152 3.5216253553715493 1.7530648842903898 0.8792666304274986 -1.1748159672585767 0.9903444576426362
Ni 6.88031255206122 5.324797639562843 0.594161016484991 -0.6920239858243243 1.653457416859565 -1.3547160554537507
Ni 2.624541562948766 8.180366020100386 6.829739909360788 -1.9597308249763665 -1.0249031694541122 -0.5296814468969394
Ni 6.070527443816218 3.2110570268955265 4.524724474758012 1.1301278803225827 -0.31715046004062153 0.001541376345190894
Ni 7.01618033333501 6.021742609131718 3.0197184216730344 0.4133706534176365 0.4059213962284428 -0.30383240277547674
Ni 4.245199847276378 2.1679001272737963 2.9150941331603675 -0.2681154089898415 2.4570811638407686 -1.3102349423222404
Ni 7.928346997161885 6.687227410361464 5.298073380285856 -1.2648829965500024 0.5494115783360151 -2.5171071666854132
Ni 3.115222638129609 5.232311873366117 11.772576962468245 -0.7478482918827959 0.3669509285025164 0.45348063406464484
Ni 6.32317491972989 4.58737842241396 11.234546176561127 -1.0339390544041356 -0.35773815165499684 1.5714096583281905
Ni 0.7374923803310666 8.620433181042129 1.1609674447387943 -0.716276687724102 0.9043577690681716 -1.5144975185221787
Ni 7.716830361488846 7.152226332616685 10.481666078233536 0.022962522333444323 -0.23117508432006642 -0.2812457757242124
Ni 1.2605265898694906 4.414863390782096 7.280306924935452 0.2924624703756383 -0.48914312046326075 0.1697928245578431
Ni 2.36853608457075 7.806398980293363 13.154164231124897 -0.04125489288472895 -0.6574727302120161 0.12754908539728355
Ni 8.617262776480821 4.395690885091821 4.2317181239747 -2.4912004741219804 0.8257167222255005 -1.7496734964715221
Ni 1.2712102904473883 3.540094368925439 11.03061037214977 1.2292027695395733 -0.0699203791402215 0.8959083527492377
Ni 3.838253096115634 9.402500699113569 12.111394721172937 -0.10110914603820007 -1.8543755020673032 -0.0014896971716490473
Ni 5.795630856602482 8.331738768060099 9.413539897717719 -0.3894059150719229 2.603871613966167 2.394681004336992
Ni 5.978979667134673 5.562118366798478 6.7369220948756885 0.25436257818012326 -2.134608006035653 -1.1612194595210648
Ni 3.7916537770015024 3.483702439272831 13.45499529044384 1.7125447099400248 0.8862204360375124 0.07436633072671708
Ni 0.8204444210955052 3.0584179930903215 2.4194426515385867 -0.9042772935392233 2.2930182997881667 -0.36949194975681526
Ni 9.128166905608941 7.883595517392657 7.835566702257393 0.19889385568885745 1.0320593208829192 -2.737117749748228
Ni 4.176764132248862 0.9257731397340723 6.273354544620632 1.1632385468336224 1.2251417120963224 0.5817282881908498
P 9.101499863692379 5.123861525621031 2.1242535991534512 -2.018601116950014 -1.527824574648388 0.08426456367703551
P 6.5386873907375955 1.7776871090638589 2.939365549855159 0.6883339385672468 -0.7614532842607402 1.200809820219177
P 6.784703280778945 2.9694496875755205 13.252954224853147 1.4802985040429668 1.5704578359378825 0.40943223759517866
P 2.226590131238595 3.6672576074983607 9.081943720290397 0.003326750380387819 -0.8816862956125847 0.2116619539878032
P 8.954788923623111 3.4953616489465156 6.048428410838582 0.06465604541748864 -0.890786201031324 2.2200527060637185
P 6.046214755582758 8.897280786447439 11.49526317627389 -0.39237142545815 0.4746169018226277 1.16915208410458
P 3.9105627078408425 7.503953641018797 9.759413213555593 -1.8952118193573746 -0.653955718197693 -0.5888844396196568
P 4.146617149230984 8.07306001956382 5.386099944327417 1.0838981599310817 -0.1725747581783544 -0.761656658520798
Ni 1.712290480065525 0.8438031739920271 10.66606637501224 0.13028653893310463 0.1217057392426291 0.4154028533563169
Ni 2.266360886682217 5.889645545708951 9.213310089880839 1.766935111765447 -1.0507445559972484 -0.1717059824201559
Ni 8.659359745922089 5.562803099144559 6.936409953006062 -0.9455234446732039 -1.679027552019186 0.9988920901023313
Ni 4.166849583073412 3.4827269301770443 10.413298836440628 -1.0323593686218415 -0.717732446334022 0.24768079528457343
Ni 1.7300184819024227 1.0973445539136653 2.400606884084262 2.6371573726024904 -1.3747863438410646 -0.3044926620672949
Ni 1.4985695690318135 3.5543705693464753 13.432234036868486 -0.7192355132421098 0.45651659267749123 0.6036723965621087
Ni 1.7948523171916486 7.781476598875035 10.487390628244677 -0.4058067250274496 0.34216420847613976 0.5641738242468541
Ni 0.08558216336500254 6.210972613924086 9.005064223647231 -0.7077066866669037 -2.1811552576675726 2.8974427440249517
Ni 8.858813836429917 2.292296296776938 13.634508661848459 -0.03160348583789396 0.5667937783682045 -0.036190590987944124
Ni 5.445226113416774 2.408719555401052 8.690861185799887 0.5747875952069584 -0.24607411291908585 -0.39586401199244076
Ni 4.864666882891404 6.757623523475706 11.614261216117171 1.449699548210187 1.55564931017014 0.15993187260336328
Ni 7.717261836665828 3.124499354434737 7.890576973354141 0.11868880679317623 1.3421055657785916 -0.6628789888292519
Ni 2.1422742537190853 7.990742059711644 3.7853382935957973 1.5951106014895562 -0.0686890778362817 -1.2127695636842146
Ni 5.257825188179007 1.9747305665176738 12.270438347387788 -0.30482202038225564 -0.5650649686025558 -0.7624555002730095
Ni 5.648826117581695 1.900713813874838 1.083468875015611 1.2918312430040721 0.3171355476422861 -1.3279449580074938
Ni 1.5339223938589392 0.9574246579342985 13.353473871247388 -1.9415536398467077 -0.84922149021566 0.4690764316203728
Ni 4.390550702548636 1.0071568620291302 10.170443033075918 0.5727733929904072 0.6766755283927121 0.5899252221793453
Ni 7.667604671732212 2.3955970820836865 11.226515110332159 -0.5476025501517343 0.1121674607348907 0.2928941585964182
Ni 3.9865398585704046 3.9720010210851173 5.341235905816368 2.4330534334676033 -3.4391883211752767 -1.3488485409293802
Ni 6.8590014302763365 1.1842774221805268 6.340363577595559 -0.10485472912356135 -0.26425181226937716 0.32882044017938206
Ni 1.3210550532840413 3.766009143656488 4.781390297754714 0.03959293180127375 0.7265752414366327 0.5128954856878521
Ni 8.821903949007593 9.170113796727781 9.551523783337757 -0.22107707665411605 1.4318784608683663 1.9671898523575735
Ni 9.36901447342165 0.48669180577278365 6.456738998754398 -0.6081162912660752 2.2973382673197595 1.5156311179059898
Ni 2.1141439481588438 1.8935569538740162 7.582360184592674 -0.13660168251785507 0.5186460150183843 0.20751913546402326
P 1.425406386847791 9.378375608783145 8.57139696516756 -1.404677217863226 0.2923308298937804 -0.4540015395651213
P 0.10747483864929847 0.5426250585524687 3.595831581896452 0.5608581296100599 -0.510863799969804 1.8161861354817754
P 2.6774254118146015 2.3932239686102816 4.348821424997318 1.3602891786661542 -2.359635325586768 -0.3741767568269943
P 5.586937569370134 2.900573117475869 6.597057540277717 -1.0422108074946244 0.4880450023030757 0.7542194855164623
P 7.237742836715625 8.044019864173855 1.3093911536627811 -0.7387632988623922 -0.06266704001191788 -0.9336138377198114
P 2.7693671440925227 8.397820129404513 1.6016536787605553 1.8471504450737737 0.2239878225430078 0.22185509247072116
P 1.0955905135202793 6.719888205280023 6.462134314445713 -0.25463640066680016 -1.246461042399389 -0.2811262194272126
P 2.857144202923046 1.9927868646848845 12.199201795667944 1.421220466933888 1.6587063239633302 -1.363358304509781
Ni 7.247019553020753 0.5061654060974309 13.148165788175321 -0.23936301944749747 0.054377546309616026 0.24095607496623017
Ni 4.004342899568516 0.34398045299624175 3.9543630662416773 0.33837414530608817 -1.5981550447428348 -0.4108792544543505
Ni 2.988425215467607 5.787470347820418 2.9430856162723624 0.003289212274233045 -0.22458277581452937 0.6194420006915397
Ni 0.2917194291684855 8.267420827004221 5.0313851393194575 -0.17361039853172033 -1.2148220753378691 0.2850962598185542
Ni 4.6543790134832514 7.5389125102495465 3.1299706472767808 -0.018292370551284624 -0.7478277230575056 -0.1334777921768927
Ni 3.514083919669504 9.448555984308896 8.394781043375332 1.3857248451304394 -0.0917243623891904 1.3727623714325004
Ni 8.481657632271281 4.603314864276864 12.530221109543433 -0.24987188939862126 -0.7464236436211273 -0.4819368325228087
Ni 1.0185909542191716 6.597677551347251 1.7937286057524633 2.3266501289099994 -0.4826850235427429 1.2309302937536413
Ni 9.392370412349628 2.2964984898049434 9.752000282417129 -0.0019897767365191542 -0.8257246926453005 -2.2927257082484127
Ni 8.465402273973217 8.088527466669134 3.0388824854576724 0.45710306130858047 -1.216893098934285 -0.5356482060033355
Ni 0.8551322113563683 6.044713972358471 4.105512572696776 -0.3846727712623117 0.5301694422769515 0.5451263206970999
Ni 7.459924413176258 7.511935931792976 12.597573446680917 -0.7385128734144829 0.11887572599300171 2.171423375091789
Ni 4.908264635556961 5.54204539117363 9.493438782610248 0.7643097798729288 -0.3983631242652107 0.3390824842270225
Ni 2.6982112594709853 5.4401703499299545 5.691804797167233 -1.8168533367521291 4.778077694009416 0.7019564144466879
Ni 6.43039650121009 9.054778605941275 3.739842988141033 0.010176940533001827 0.8717870342210018 0.21577391927364775
Ni 3.7212858035727163 1.0230088848356682 0.49177383296602767 -1.096333557480957 -0.745623259207019 1.2794161571691707
Ni 8.279080036677906 2.012559683664874 4.581765493155124 -0.10248057246442994 -0.26449658129033154 -0.5997213823341607
Ni 3.8049450884316 4.2747277572142375 7.703046605563279 0.45281060458081374 -0.8374491801710802 0.13574730493735976
Ni 8.688596879110243 0.8457879598061474 1.7200889248947295 -2.2165174392169504 1.0274763294979272 -0.7084057696164574
Ni 5.557888034085016 8.544577968949541 7.180240327477044 -0.22244336087402336 0.4346814990802707 -1.690834829066759
Ni 9.432141167793251 6.524608168114746 13.53618578689877 0.006595136719014448 0.2786918989541072 -1.2661610919314774
Ni 5.117989711256006 4.489114640803726 2.775873977359325 -0.5882411496087031 0.1634450279629443 -1.3873911770892686
Ni 5.162928788928269 8.21336449124441 0.2927953031423967 0.14692003372472762 -0.4475912651634033 0.0701818603317243
Ni 6.816172829013227 6.844031117614066 8.36655506288454 2.343801958098938 -2.042925038407359 -1.4620932938888498
P 3.0738197809295738 4.140135641681092 1.6346296381562155 -0.47744768640320356 -0.882162721028371 0.31992956544765544
P 7.538349716540439 8.442702927705867 6.374821560425204 -0.042650230570358806 0.7133538576503521 0.2648804469923115
P 5.649679688040509 5.420331871683903 4.6227453170838135 0.07754087179995678 1.0585571100631317 -0.33310904025240695
P 0.4887732045069675 8.860230200597838 12.106260166566843 -0.4355353624401338 -0.88933866995152 0.3255872779540651
P 0.8957190176781971 5.529007336912631 11.685731327226295 0.450211990615702 1.2807844982716072 0.4098053046638813
P 7.426672684863135 1.446989525592078 9.143432684968491 -0.30131349300836496 -0.5506943017031807 0.7486674453499816
P 7.635412871571242 5.045895837119288 9.781172694328735 0.6539773154642479 0.2601460176311197 -1.8513153750847406
P 4.427029114793978 5.984748302653029 -0.1660250821763351 0.200918342318054 -0.2006676597598286 0.2440005182195088
