# total energy = -340896.30585413513 ev
CRYSTAL
PRIMVEC
9.03958348533329 0.00000000000000 0.00000000000000

0.00000000000000 9.03958348533329 0.00000000000000

0.00000000000000 0.00000000000000 13.23034416589326

PRIMCOORD
 96 1
Ni 6.516527202250737 2.0800985375119536 11.392503802180565 -0.3461681874292103 -0.22440022749007804 -0.37260144192007444
Ni 4.544198578102903 0.2899139031579174 6.113834552563539 0.08013820021348779 0.04230133187137231 -0.1563400414870469
Ni 2.8257556934907724 1.6790212613793738 4.818981122597828 -0.16795808534194945 -0.6611982586927193 0.9764486734971506
Ni 3.3781284770864675 4.332048595151845 4.920682763621623 -0.047922791823207786 0.6920085592053566 -0.09342051914469073
Ni 5.1251635640111886 4.5213103529193805 2.699466385603161 0.030668375618134285 0.2951934961535561 0.04322770034038362
Ni 7.330867112946934 5.978825662522679 2.54861381772693 0.2875151536726919 -0.2519017753444565 -0.5808212029955481
Ni 4.993041012951806 4.58934225763154 11.558531118720136 0.09691002035518793 -0.3828573153201277 -0.19048609124113644
Ni 5.465106137570245 7.962914784681477 12.624764444769395 0.09116900410635266 -0.8250904014954112 -0.4088413980887152
Ni 1.8904390380745615 6.594972707046395 0.4758093200651284 0.5478082384046373 -0.3792402873928308 -0.7731695442564038
Ni 2.856671068738658 1.7885448539242215 0.15307540143572063 -0.08559305268047196 -0.40951836955108184 0.9033388408853539
Ni 0.6836546533983379 9.03290315367751 4.761825644639544 -0.8411181443822353 -0.4336432876237435 0.33471546550757836
Ni 8.596264156426457 2.2336810595767402 1.3979580143340895 0.22781876625332378 0.6340841760847467 0.4848138969602876
Ni 6.553047119210228 0.720241463275031 4.772555630142246 1.1780851249281519 0.17166021678388502 -0.2157795757006026
Ni 0.9858660058215252 7.447495818048752 2.4647337153876974 -0.3744037852361358 -0.39245318653867894 1.1587005497539529
Ni 7.793503952073109 3.868254689349725 3.723494800689013 -0.7992343596642558 -1.3156417151601083 0.21908884257949363
Ni 7.674841340704983 3.6814697774353817 12.712746710058187 -0.27072610713981116 0.7191318977847099 0.017348518580776573
Ni 7.846385514997124 8.791329326740527 7.044152318356335 -0.14330017758395322 -0.2625654257058897 -0.4271787629453223
Ni 6.957234012034407 0.7194947936857109 0.2875916341809637 0.031276184405462266 -0.34318647909306704 -0.18557065621739005
Ni 1.8115053957749898 6.36987804065821 9.230784154222492 0.28819161091442624 1.3264197796122188 -0.005811978696086764
Ni 0.26727245860137405 4.788430042561197 1.2496048912695663 -0.4263855776200656 -0.12602750654643458 0.33214204835344735
Ni 6.368422667729874 1.7996906602635905 7.1025914171582425 -0.4769972291293463 0.7940150202468454 -0.4401103834053259
Ni 3.0375712118558154 4.311709532488762 0.30091869199615584 0.8839036149788778 -0.8755148766945502 0.5262677932297001
Ni 5.990360170948498 5.623967776344028 4.86318378149392 -0.24651634266282704 -0.07513791878541899 -0.653487520312023
Ni 5.255008140052308 2.9413267673341092 9.229501437337206 0.692413250842943 0.1502987203889734 -0.03544368551959057
P 0.25209861389637395 5.538715465243793 12.344559054189322 0.11050678520301614 -1.191794246984128 0.519979389117827
P 3.9574121004812723 6.193362095492872 12.919946617136222 0.21086671178001745 -0.2229457544317386 -1.3436803664648793
P 2.531526293214919 8.595423475169717 1.3624875930080143 -0.5208365949117997 0.7120847611299413 0.675117954097605
P 6.312133181861868 7.788297152031361 5.7693694754265525 -0.2974015595484685 -0.14907924615957552 0.15918445291437747
P 4.942672454214607 1.126485765282374 12.632318824621635 -0.8825357880970736 -0.20213755943713574 -1.1179704190244424
P 4.041073444902085 6.149013899303946 8.148965682423269 -0.3248887092251437 0.752649055705549 0.42042678893346946
P 4.704587906472268 1.1814916303067549 3.6496965457222847 -0.7676712401459941 -1.657547527768539 1.1152651042781372
P 0.2723129303084561 5.471018025117648 3.477040502671229 0.7118204517249612 1.1393486275899023 -0.18154276600491961
Ni 1.3671104359617479 1.0892607608172302 2.81073371378699 0.943170371059995 0.2767769413195814 -1.7895582484816017
Ni 1.6952834719264342 6.6064348988049675 4.843113194457989 0.9294897882491089 -0.3171350334216538 -0.6991662532960604
Ni 5.886169932613082 5.721486802125954 9.286947085922817 0.5601970989872933 -0.2513955251319993 0.23265346863780575
Ni 8.74046359091601 2.3718058940175846 10.0723802168039 -0.760464952205542 0.23411436945404843 0.42965627795153744
Ni 2.29467112881577 5.1929694791382035 7.081263424070565 -0.5404335432071209 0.3281308703115252 -0.5905011492874733
Ni 0.4855142168096107 0.04108671449610765 9.066477070405046 0.16119608402776753 -0.44426065812827364 -0.07887964521603834
Ni 1.4083851737926965 1.10301900676088 11.364627534873714 1.0065938296219632 -0.02587918175960704 -0.8313286690956393
Ni 4.17416323138589 7.003317808237249 1.7779468463392445 0.15858435743653332 -0.5987477055669816 -1.1236343021784392
Ni 5.648989343211322 7.955294415870376 8.11414339922739 -0.5104570514496886 -0.21724921826759358 -0.029082776298569268
Ni 5.281683950682866 2.923817094277047 4.932563488091885 0.4030998676192477 0.050152966705307174 0.31830180003624536
Ni 0.7337628721334483 7.51801360819751 6.897930729058902 0.26108267051277617 -0.9073091383870117 0.4556773846056475
Ni 5.170361481040261 4.62851981211234 7.03708788392469 -0.4763156296812894 -1.0134689594752417 -0.041685295553928206
Ni 8.140913221525368 7.106649286149113 9.59566422652317 0.5354103789609166 -0.5128366074254588 -1.9313355616631254
Ni 4.582282342991599 0.2828205420593748 10.228881620350425 -0.24959755269131206 -1.3213421079789953 2.3521012219932524
Ni 8.147991215332121 7.186776153458252 4.50356926652713 0.09684805676900095 0.2105250121698826 0.6147268546040575
Ni 7.111449304937601 6.166342780692893 7.0082850593187445 1.2059119173324329 0.13857860373856778 0.37051370615311024
Ni 2.417184602714773 5.102890030499263 2.5604285532383297 -0.1433683118177273 0.7681198976476383 0.462118769355617
Ni 2.4527101654996235 5.2122418709593985 11.450571374104495 -1.0126132963431655 0.012526928822417136 -0.40138545603130227
Ni 1.161667823897804 3.389165808424967 3.828279843612532 0.06629949455818258 -0.316627497657616 0.47211676110859335
Ni 3.56407270774407 2.7788221764477843 2.8621463444075594 -0.4920055296127203 0.5807805795655998 -1.4659705174560687
Ni 1.016564431067671 3.351913685209606 8.247915674258335 -0.4477337042785386 0.22871582414629643 -1.131876487582573
Ni 3.690907102511052 2.5761727956562366 7.189514243271874 0.19898075897570894 0.6283117923773438 -0.6003045085311404
Ni 4.086316559848186 6.803416460801069 6.000278401861357 0.03416841835159277 0.2868597794768802 -0.506916642396598
Ni 0.7405606388546208 7.391974696770239 11.55007730031902 0.9163244545117445 0.2941809957286417 -0.6040562622640887
P 0.05459727585443786 5.591651265668242 7.9687154853529885 0.6488919305215406 0.7136901579438483 0.050196161238416775
P 8.391282563116212 1.6599025424760767 7.915106235964806 0.47642130202121813 0.26181672046532334 1.241792433279126
P 1.8474919773135372 3.0840889080621365 10.197526017390677 0.1704307152521581 0.19672538728262892 1.6613694726177903
P 3.945687760803931 6.221330566550462 3.751821239249473 0.12632986827820178 -0.7445526518506597 1.0752266002990127
P 6.9268429326240595 4.091595676557182 10.481051646955706 -0.08944945031208466 -0.057608137431771754 -0.25004106798663395
P 6.299604319261409 7.7830993915730176 10.414384719337823 -1.0041065444237351 -0.18850325648315278 -0.05865020554304093
P 2.478256028204455 8.52058476415298 5.808359006572512 -0.04708692618547374 0.18146486157913264 -0.012993841156506656
P 7.023259129230476 3.9319204752768755 1.6439757004733722 -0.4683472667638321 -0.4744402670354474 -0.5236311269378014
Ni 5.193801120811538 2.9767528947014963 0.4312170551242459 0.20447340665916397 0.5811217649551025 0.12509676720204907
Ni 1.3266131023036993 1.1221196464973657 6.884634405827289 0.3740384314769171 -0.016022600680501438 0.25854164925847734
Ni 6.940248634814881 0.7040027556448262 9.339088306965895 -0.6629160127147744 0.2655023968470266 -0.8035106184421066
Ni 2.5687241789298456 1.3632957317644943 8.97187963797988 0.3321199368662603 -0.15736025522144514 1.2204653896665754
Ni 6.21587065817335 1.902534000671541 2.443883012303846 1.9472992840812333 1.0821199849847363 0.14600292122709693
Ni 4.07604759309918 6.709269199629512 10.604372355652846 0.20369359107034596 1.3843855574937254 -0.10522728197163168
Ni 8.388263342258668 7.166419011628358 0.35552862326736184 -0.5161926683818852 -0.4890796142151771 0.5298403410723068
Ni 7.492295993407968 3.9405442378460225 8.16075420314279 0.31453102013990347 -0.3996137088428602 0.25833133301988415
Ni 3.0040162782534323 8.507242339045998 12.445612557082923 0.7710257584405238 -0.20452328606049294 -0.33380735187101224
Ni 0.1579757596000126 4.909967241452371 10.103841582889496 -0.7093573348964494 -0.896494821380327 0.9995168681705238
Ni 8.520440130818487 2.3187525790088594 5.820227075626006 0.1390372885425412 0.5577689491617749 -0.9780160179842704
Ni 3.766893840620328 2.4147981526956377 11.147940585011279 -0.34125738039115416 0.5702472841344437 0.2013281761619629
Ni 1.0290390561676948 3.4122077065263876 12.402071595692135 0.24109902830199764 -0.20681671008035996 -0.3330136523251233
Ni 3.037535053522192 8.20196656784824 7.882890064664824 0.13767846052180158 -0.20892732866545952 0.9536872114309187
Ni 5.862196957420862 7.656472907224369 3.507337570414157 -0.7572603292253153 0.8695676579721797 -0.05792258334839701
Ni 3.133155766788897 8.40536623406247 3.620126260485185 0.7407327638839373 0.1916754835635473 0.1355984380643213
Ni 3.3182321974395417 4.410729129116054 9.230572627970796 0.6218341550727999 -0.6508259143194598 0.3600827406277734
Ni 7.222997764165351 6.168114539040432 11.704237451763438 -0.22325891479678323 -0.8231888135973242 -0.935802360730698
Ni 0.6129226251228619 0.06271210987783746 0.25084753555300926 0.9312227117798156 -0.18120338038762984 0.9466151350754858
Ni 4.723191369121434 0.28292992101858516 1.4340765737903616 -0.6197790723159842 0.11378288485112663 0.6060506669862982
Ni 5.998315004345614 5.418163580943851 0.42040571337089183 -0.427759832259773 1.2547225110772326 0.4059993006542298
Ni 8.088772904440631 8.894995269238407 11.154701289440487 -0.30647395416338186 0.7758442628750897 1.7004312145059424
Ni 0.04518164577894158 4.926518718668418 5.595906197577358 0.11452490522347375 -0.1736098843110881 1.471326896671976
Ni 8.108777502517698 8.816649199860214 2.3230102227929983 -0.1569257387871878 0.3736684497320081 0.7559233555814466
P 8.462577757437868 1.4522000345606787 3.65239486136892 -0.9645796899737066 1.028915633047615 0.4723877553817929
P 1.702650732402173 3.0994019623515863 1.629251123063641 0.5291690260368951 -0.5731441460662645 -0.36843496924721064
P 4.729473879588475 0.9798004453562237 8.339350156449807 0.03148444376152642 0.6653459623125058 -2.117007005124438
P 8.671274619527907 1.6165306212949788 12.422393483146747 -1.2974362478956751 0.8465429149422324 -0.38661472548003095
P 6.544938612895212 7.707917176386859 1.3648288451101203 -1.1401582679753912 -0.1844637963064565 -0.3213932944773755
P 1.8068319311541838 3.2411878280717854 6.167695102370402 0.01959154897868239 -0.33844073687796555 -1.2736417165792389
P 7.0437247460612395 4.02093325307393 5.933240851323838 -0.9273758272298996 -0.41899082781789126 0.008286922599140567
P 2.316248614405449 8.319924091710712 10.328043138437186 0.29028963109403555 0.3140646220264462 -1.3103850947468594
