# total energy = -340856.00771520974 ev
CRYSTAL
PRIMVEC
9.42272475612481 0.00000000000000 0.00000000000000

0.00000000000000 9.42272475612481 0.00000000000000

0.00000000000000 0.00000000000000 13.79111014419826

PRIMCOORD
 96 1
Ni 5.802598636807231 8.532041591894608 0.6576138370541904 -0.7347253813475927 0.3652532290851193 -0.39748612097689606
Ni 1.0141772755484233 1.4133144685035726 7.553239109183415 -0.3645865420353979 -1.0631897237391368 -1.125723837717616
Ni 2.12103647063949 3.1192045370273855 6.533689938318678 -0.4294870993635248 1.4123308777537418 -1.0930317468012336
Ni 8.221204751525278 2.323973691175269 12.883338045818826 -1.1234949483870973 -1.5227777562531002 -2.4797557226201485
Ni 3.8637317016006327 4.917889597789503 2.0297208461694045 -0.8024891191561276 1.5362935313513477 -0.025105022597743862
Ni 8.538204053808078 6.017031581401775 10.425307251213992 -0.9987558216347832 0.10693063781598358 0.06077496519552758
Ni 5.540194601078931 6.105661729349936 7.489772347381923 0.5236054159061885 0.259440764033979 -1.5009724874525505
Ni 4.006551938943846 8.250273857034536 3.890306611898123 0.04011975083902122 -0.00399369454042538 -0.9784222522837536
Ni 6.4638666064761665 9.536080015732185 12.441333109394046 1.3275613494158296 0.32913231499284606 -0.5500440697136914
Ni 2.069531857766362 2.0534849577072807 9.696101436902676 -1.9276830525122026 0.4501492556985667 -0.47635291067712804
Ni 2.3739047090337957 1.428013918939372 0.5449208771971188 -0.45563341874158947 -1.4736311193251201 1.633768680181386
Ni 6.208086746168616 4.963146944227416 9.456205463517964 1.005797816083229 0.6534515248677649 1.5539205004044916
Ni 4.0518092853817596 7.298767123055664 8.787419101860102 0.7213124503757965 0.6632787953708319 0.8712206201945705
Ni 5.090118158728954 4.482305305933282 13.576437863860978 -0.8375247706040221 -0.17954861839302627 -1.7128396154726244
Ni 4.344780639836811 0.8728637318748789 12.99059126674219 -0.15043627440810223 0.8537867409888392 0.43915753257375334
Ni 8.063722754644818 8.745381500431106 0.46117923879132544 2.1810465000038506 1.5137251591325287 -1.260527547794784
Ni 7.6866818509665595 6.941221836654118 12.66440386566455 -0.6387407010201516 0.48515611079105475 -1.7209673867860813
Ni 2.838624065471743 6.046779123084993 11.19223034770763 -0.36333210080300654 1.678820321104386 -0.3658600094311828
Ni 0.2819674966224055 7.015689629470864 13.700129970188376 0.04596438254525632 -1.8704482392594495 0.9261846351352759
Ni 9.225177216290387 8.359652844636305 8.416590600535896 -0.2637802719495973 -0.48030803867013416 -0.15743327455122563
Ni 4.108835614892952 1.8667548235494351 10.419859031828109 2.6893502525559616 -0.48127940144446785 0.4660708120248296
Ni 4.746452545719671 2.8829956757936532 1.3953151798994288 0.0026351236300019136 -2.087388925147689 0.13813328867103308
Ni 2.7218105481303283 9.099289615122256 11.459585082960908 1.4235498863980127 2.0246830614780356 -1.244653813987321
Ni 0.7207084012324685 1.1152925336423751 4.965502625386999 -0.22174299237288908 -0.5172848730047994 0.29019064362232605
P 5.069143173684024 9.196673474259429 10.261978453695447 -0.0749743966243612 0.6896793968515478 0.16554819034887616
P 6.460794798244069 5.902375868002538 0.19727793211799582 1.077186552238861 0.9253017183096903 1.7880536389116175
P 8.258650659238013 8.682758072484745 11.103953551933408 0.21319947367825218 -0.12024638108828323 -0.02133398559108584
P 7.256317748559974 4.936028342718293 4.4830487589072465 0.6436723339938141 -0.09296929053988504 -0.7422589707204764
P 9.129187920399689 0.11068686178157054 6.374196189727934 -0.2503647698746398 -1.2015459270542532 1.2394761264411234
P 3.3082243932723467 4.152896275301797 4.014150424092198 0.6436543362716851 -1.5698865368154449 1.1078135330960985
P 2.380274470889309 7.991224311277483 9.763581337127635 -1.7373679396312918 -0.8058179264190445 -1.0917443954483779
P 4.896697890077892 5.954012399020605 11.603550181347678 0.9980968478945457 -1.937961294509759 -0.10931379333617948
Ni 2.9438476315080075 6.13859415196091 4.455134879438648 -2.1518593369169325 1.2846120995478134 -0.061154717132449514
Ni 6.482429374013683 8.888022706006192 8.456515627100977 0.8129609652217289 -0.5918134403409937 1.047786244699873
Ni 4.704559111977643 1.4222943250839037 5.379139507015616 0.3799853930889714 0.12688574078167178 1.1668332061634163
Ni 2.1866563250208415 8.476164834789294 5.137423063230777 -1.0499804241377142 1.0197010564278823 0.9139294719170066
Ni 5.856025485506579 3.3151029822583298 4.156392106142619 -0.582588579308616 -2.1396738505943342 1.7171948071175265
Ni 2.895659817707573 3.8070351674517826 11.21654380409192 -0.03757435870934819 -0.953925295583654 -0.1774732239212363
Ni 0.1375670683573432 2.8534271658785637 3.7490166250361745 -0.33269792085691735 1.6138426306814204 -3.026342944133491
Ni 5.0464155618563655 5.54043016919489 4.187132803002716 2.0377092985343745 1.3333651005818004 0.34036546470450413
Ni 3.1760235665965344 5.0306042299132425 8.311350073595282 -0.6513097959344138 -0.16815657450600072 0.2878725370121107
Ni 1.7849844191379807 1.8107932619223752 12.121185674809578 -0.7161946695332568 0.18051741006419877 -0.3523666029304383
Ni 4.752247521372246 9.14562115216894 7.042844037333611 -1.9581812211010599 -0.9597457589201729 -1.0791549888191416
Ni 1.865397951201515 4.655127498524948 13.21859953072318 1.1807022508360245 0.2777562745137152 1.2376051346706556
Ni 6.1056146157267435 4.5167642099356655 2.3102174554757666 -1.8218731585642236 1.0372665761154716 0.4295639753480473
Ni 9.097188347527908 4.386033328303433 13.071490069124597 -0.2773803792315352 1.0120736217896118 -0.5627772010096437
Ni 2.2490441848512446 6.834622552820656 2.073079513592694 1.4280279767740245 -1.563112965537037 -0.8553170615904365
Ni 2.2144345172546473 8.518303259371917 7.604224529928971 -0.7411929913498073 1.3805522997905642 1.0265401908369032
Ni 6.242960250055086 8.594024274565562 3.7270616766288587 -0.27622981056685975 1.3374842649564966 2.6972998464203415
Ni 3.5006270076624686 6.466071524041536 0.1908233657407377 1.1436385132145077 0.1470655581636564 -1.314588848415562
Ni 8.988563177897205 5.729440602715212 2.949505035380863 0.2069144120004888 0.4678181337332395 0.8041477378054731
Ni 4.0152491137850275 4.558676489126971 6.118163800400075 0.3909346930116235 -0.9295561227106701 -0.14896174674510473
Ni 9.089235567933155 2.144649818583153 1.0920023851538074 2.131401069062581 0.7936874617040975 1.6014218884195646
Ni 7.5642335442914215 8.154812233723584 6.307115813027641 -2.1788654331921316 -0.831347952369349 1.5070528893186754
Ni 8.309165886024116 0.604651528679512 2.847519117530329 0.11159307628865943 -0.13884008493007058 0.24104734912845582
Ni 7.292340824852322 0.7670861096298798 5.19079431785476 0.1346144768844972 1.6227535600178051 0.14900519838853046
P 1.1596924121382004 7.296402019171443 3.726261687307064 -1.2575545812093891 -0.18856470584870752 0.9717533249040102
P 5.267434990973105 7.511079954606585 5.595232735691435 -0.15814315613405666 -0.39314558462001326 0.1382279052673684
P 3.484146662270024 2.9646435847848087 13.363916790095553 -0.9128838042613117 0.0583694410778285 -0.7772833093144613
P 3.7470406796795164 8.587211644652047 1.2384729860219112 -1.1393149461384895 -0.14041591405762266 0.130751137274349
P 1.235168436491248 1.2513566774199043 2.6135943247489286 -0.89958811559367 -0.8610678480312848 -0.586341361482829
P 7.419773752861137 8.027322769366936 2.253743297628381 2.437122461330654 -0.9021520196661044 -0.18258457700587263
P 3.114229338418346 1.786011496123559 7.848120449922656 1.647604300512898 -1.1286039874788885 -0.21847537736521086
P 6.001851572009421 2.50293007750649 12.024454810489843 -0.08776383507954562 -1.9246584067532662 0.09000506570523854
Ni 5.660032813029251 6.866386557576477 2.2276913485483183 -1.3888186535644145 -1.5801601508273109 -0.46362235048433703
Ni 0.9649623847624098 7.584322793220347 11.39045055228946 -1.9321079210527758 -0.21806914306572764 -0.6038505740111858
Ni 2.0159730909220768 8.33617141483758 13.376922034641378 1.3178160971036077 0.7727301427261402 2.2281321406377432
Ni 6.839060656125311 1.6082800639953214 0.9048887461031813 -1.7145697107898537 -1.0559852355708974 -0.8079977076791827
Ni 7.127546793652516 1.0799290480747112 10.363922911557571 -1.1920426155495083 0.2978952113554353 -0.5126985391856977
Ni 6.060008628477212 7.277462342648394 10.233596264812324 1.2128621233980208 -0.824364064852348 0.2596415671908754
Ni 6.975633627033311 4.3000509659786434 11.77418818636818 -0.4323348532249651 1.541324923127668 0.40080284405495487
Ni 4.84396832300178 1.046930666391269 3.1226937719609604 0.6147913892934058 0.10658276755826161 -1.2908904763573574
Ni 9.319800217108527 1.0610364851748535 9.401482047908381 -0.81801755380903 -0.5250125806663603 1.2501891419832534
Ni 0.10052633780405601 3.6540760783977224 8.530753505436548 2.262962103832735 0.8878697987154774 -1.8117340132476927
Ni 2.520183086319278 3.0605480761537627 2.384786071446143 -0.7463151430677211 -0.3052010009882292 -0.6700899047553943
Ni 8.51822787757481 7.631445839136651 4.304053739405008 -0.008180221817947201 0.5114207009145385 -1.1258925020849966
Ni 6.891743109578232 3.865691628325406 7.432277708456207 -1.5312827084003178 0.9591194381900836 -1.2026322181398967
Ni 8.610014638276814 3.051332651457473 10.413073727816045 -1.3666426316880076 0.05692628087339874 3.3509159218904294
Ni 3.249492550601617 6.823616810443083 6.614919478335891 0.6793224790972558 -0.552750412901261 -0.24211949914671205
Ni 7.89090998477779 4.503157795557913 1.3509369736702717 3.482984749534937 -1.0217270857189757 -2.5575567900600276
Ni 8.563193119548936 3.14953628763818 5.713974142493853 -0.6723375631389904 0.4519577696622152 1.333892176729864
Ni 0.27194831351446597 6.960067285930784 6.4013647316776385 2.820916943753071 1.09519970098683 0.03185853927149352
Ni 0.9205728712636867 8.571748953520544 1.8413756570085487 -1.4134796466462045 1.9569229232139267 0.13776999179434338
Ni 2.7598406647706404 1.4698225481596556 4.092856558451266 0.9622389576556718 -0.11497639093859553 0.5883159687106965
Ni 4.714716809137766 7.960449692608687 12.153940007924886 -0.35962482715474836 0.37270608581873876 0.8050198559977813
Ni 7.948096500607833 5.693926353553335 6.296165664725434 -0.9355429364217243 -0.7561218447454978 0.7809283622662164
Ni 1.0678585378130065 6.016975045053945 9.158979748888704 0.8092950863343675 0.5930848508542496 0.3527152445191087
Ni 5.956924020933849 1.5576800326874731 7.594323130879011 0.2651820373931304 1.6345366686956624 -0.013582880890757255
P 7.821784876830979 2.4901151719983567 8.515306832936929 -0.6612391392329837 -2.9497184135002166 0.6126334624101385
P 0.8711158164544681 4.364521247954118 1.8790797473763745 -0.8816461864032688 0.2861838364557781 -1.3328092280783304
P 0.7552596479363081 4.4050766547975035 10.782648064490889 1.03815926313307 1.0848823782212218 0.3396087890441377
P 7.262282333256039 2.588723985338512 2.6906590204759993 0.7340466101130132 -0.4076075256816141 0.20447263532821558
P 4.792331791983715 3.7053262777056157 8.638406249884575 0.19257948343505543 -1.1251569094705525 -0.7970877456348981
P 1.0433500310287025 5.061105589567526 7.214874721055658 0.6095805345164276 0.3215290487242914 -1.1480947492136484
P 0.3186916236278447 0.20574990384032107 12.744668518678798 0.04579854639135338 0.396034219021718 0.313578426418647
P 7.490632642141403 6.86037485925722 8.307750592783439 0.031979895340706214 -0.3081616262784499 0.808116492645234
