# total energy = -340865.43658938137 ev
CRYSTAL
PRIMVEC
9.33759646308116 0.00000000000000 0.00000000000000

0.00000000000000 9.33759646308116 0.00000000000000

0.00000000000000 0.00000000000000 13.66651628243436

PRIMCOORD
 96 1
Ni 0.07576338991375356 6.411567212696856 6.017448743858243 0.24558046111211898 -0.3553850780417879 0.32243356281643176
Ni 5.482887222154536 3.8809945417983323 1.8375586740951766 -0.9603042025268042 0.9700134593947681 -0.9518231616389866
Ni 3.581248358798825 7.555684228072192 8.294468321296481 -0.6597008482115865 0.5868684376308925 0.05318172622930196
Ni 4.912640208174289 7.798909939880894 10.411028774162272 0.45534545518752545 1.4433154990607142 -1.6659928303224145
Ni 3.8496295553899547 6.454632207432027 4.408968389220672 -0.5426976566509493 -0.008666674536062494 1.0342249610756706
Ni 0.2834828912973722 5.065300572208399 9.690954422904777 -2.374704818325381 1.4214372109303843 2.532357922196897
Ni 7.061510612207173 0.5212657181470267 10.134733030837072 -1.0993980553388936 -1.2417497529666484 2.751451906982713
Ni 8.94763039029622 3.069688138381143 4.934732961327674 0.40512384002781193 0.46766155355071715 1.1979273564650597
Ni 3.60151094305193 9.193031762073115 3.7472082614281867 -0.48069396125464314 0.7050517655425599 0.5168447001435873
Ni 3.1544735139655646 4.79779710968169 6.05698599466216 0.7294499918812664 0.3729462268540029 0.8493011944136599
Ni 1.4757977781654512 3.0869533541802174 9.836434175284214 0.5842235438088776 0.1085936273407033 -0.8306727806791953
Ni 6.5265130247501855 5.8569886855261535 0.39143764490355915 -0.4302039229248914 0.5132932353469031 -0.366444164069427
Ni 1.1491313046582468 7.541528431884308 8.995998206043991 -1.6441320256935812 -0.5568577502014151 -1.1757752458480524
Ni 5.140076044419858 3.953118136623671 4.479938790886906 -1.487534873890406 1.2130513565906915 0.4040246934263622
Ni 7.886244479290707 1.1832041940313256 6.378313230530689 0.7690447234547529 1.0885354015927768 -1.7567350313039938
Ni 1.7235335490498451 1.2253914547020763 11.155389279974559 -0.03073213897653417 -0.20447597776232523 0.3324061006481114
Ni 8.05676766529541 8.287396959520041 4.935744223021044 0.23579329981836808 0.23654637593430877 1.1368873105336033
Ni 7.956043012604975 7.359604040638571 9.81503240426665 0.25117338181886417 -0.19011559527559516 3.2222430073013473
Ni 7.183030092147225 3.9236113319048633 3.2927007551978194 2.459979825544802 -4.032339763601404 1.471051531523402
Ni 9.001218856208006 0.836169621431357 1.3941759802515141 -1.0985894433946692 0.8167834242916128 0.29410103442032576
Ni 0.7115930124201229 9.070933351154403 13.350423826997734 1.2687807889425116 1.4008120784808649 1.4291482064213967
Ni 2.575253069816085 1.0513573324396916 5.860051417155194 0.2419850304513768 0.664536836147649 -0.15614849430153108
Ni 1.3774261997753758 6.81475528894793 0.2854195087969547 0.9917786189860016 -0.6991742237158605 -0.21064071181214045
Ni 4.306210008027782 6.6787065089627955 12.15652995257334 -1.0168980397614487 -0.369589394566628 1.6588472204165687
P 2.3054805713568856 6.808461748954109 6.294456012031409 0.35738102542589417 0.16325425210837688 0.14271422317349616
P 8.487940518047203 6.335549840160206 8.16983008414881 2.1883499756437987 0.07722745432459603 -2.0108564400075886
P 5.710491135135845 7.31739810477496 4.976689583366604 2.5337571165372688 0.8566221535551054 -1.459576698114583
P 2.5601074884066217 8.44205556919017 10.220764041785259 1.5077090348454356 0.38823374914069264 0.5644445614097376
P 6.645754131161317 2.846258131004045 5.425647756038621 2.6038682715320576 -0.22179132911232124 -0.0020262864014094135
P 6.842730727852217 0.39985362056592033 1.719315756742413 -0.1134275583942369 -0.8896366608079129 0.5596774790383975
P 1.5886052806363105 2.1945966137506066 13.262356286268165 -2.14871024976499 -1.6256686767820714 0.44128383488813683
P 6.330768990788045 7.797509300416394 8.612420016055564 -1.877653498758637 0.37520468387087635 -1.0672628653672458
Ni 5.164549884662894 6.394684838351412 6.871046055266557 0.841083691599874 -0.3621815321383311 -0.1130290374042376
Ni 3.492335765592342 2.3495727016993566 12.594706002647634 2.782081458943112 -1.771173832437143 -1.825912875851236
Ni 8.536636083429665 4.408755492022069 7.3558652670279985 0.6218686078551613 0.8761481394031749 -1.9793259734994748
Ni 5.015391119290035 5.482905897347396 8.972955819333674 -0.36057742087600486 -0.3145078802114519 0.6310340764045131
Ni 5.483176687643867 7.829369179435562 2.4884124892574198 -0.5510375439752123 0.641482782541663 -1.2584855776640906
Ni 5.006352325945794 1.4434430065354928 2.3328742780035836 0.25245122009002335 -0.025490688071936742 3.2189471101588945
Ni 6.102763561160246 5.7306229930389305 11.02678723314235 0.9480832349805801 0.14317290797746957 0.5091506739334393
Ni 1.134770081348903 7.765443994275766 4.112459550903448 0.07865827323385162 0.49585112861105574 0.6235825052224745
Ni 1.8983707046052105 0.8838175084943732 8.460243339516529 0.2629703744537923 -0.5182608637648236 0.3343213153929533
Ni 8.345607535664676 3.193934196478755 10.810405243550619 -0.0576338484633846 -0.13507958944637383 -0.5761867895473303
Ni 5.388194656757881 3.449392159610761 11.14895287475536 -0.48126526037708084 0.6168428725057958 -0.6112535513434764
Ni 8.24808567854973 9.122318144308705 8.227365552071555 1.0811972160601508 -0.26220110038793554 -0.13339654531699607
Ni 5.913481143927668 8.765855400593365 13.031652291272096 -0.6025382829576655 0.6648152866200163 0.2823672909231653
Ni 4.133585862826328 1.7867677520738214 9.715895142969316 0.04793770422154325 0.3528682251572052 2.619596738010908
Ni 2.8827868082382144 2.742405383509558 2.3707718468743915 0.8556806155774425 -0.20042443340077096 1.1440012958705652
Ni 8.304708863301265 5.337323431407229 11.874822138357311 -0.4461025964330188 1.3613117063933975 -0.016355301429571832
Ni 3.1808522238803216 8.94681801940681 12.339511359734955 0.06310669865249777 0.17571278958670383 -0.7237814807415793
Ni 2.7079589902792796 3.821691466871387 0.4293473526497259 1.3358045632612285 1.563542853985604 0.7970376091232532
Ni 6.288105512699364 8.934062862683428 6.583201572676731 0.3643402303525467 -0.7399647753696611 1.0612963633711658
Ni 6.012767806767884 0.13590311348082712 4.031034776274184 -0.22306891027316422 -0.2970472615328433 1.3880828038396547
Ni 6.407318606321206 1.4360663053557907 8.298144533010975 -0.7718477401211868 1.4891479840137967 -1.1092674919338057
Ni 3.341748347965693 3.0113188230971977 7.6466212121847 -0.9683928930722097 -0.13356932344943448 0.6294644179245482
Ni 5.553264686447465 2.1237149192504585 0.4109112022583291 1.358001411073242 -0.4313076975120314 -3.524663360220646
Ni 7.050931115451982 3.7163633791409603 12.925012271243254 0.019480477322114838 -0.5668585701678689 0.8127925579646647
P 7.886608645551477 3.039396975562215 1.2363183100444652 0.008780060185475202 0.24697579879774886 -0.376411559694784
P 4.242733027496626 0.6768300746708669 8.042539969615015 -0.5959400609148574 -1.351341739664879 -2.492949338492287
P 0.9535646850282763 5.902733570436735 12.048974848094359 1.6239313823759904 0.08346957857956593 -1.8001666201250672
P 7.307388201401997 3.827630178200869 8.973912922967749 -1.6189722385985021 -0.5354062651958585 0.6263950349706051
P 0.8625819466932617 8.117349990933267 1.9123416163837799 -0.729221420810228 1.0255999384108208 0.4252550635600482
P 9.046552886875666 5.127722404342964 3.8266105126707126 1.438514735237961 0.06731276631404536 0.22491830477707714
P 3.9780681942846376 8.225834186257034 0.518542875028038 0.3486873543066382 -1.677082512477673 0.4350393966403217
P 4.892713777392664 4.7202110209448 13.008527733713194 0.3162521165960683 -0.8025829644215146 -0.7693913081608943
Ni 1.6080368188071454 4.963091241685592 8.049004387623507 1.9440830911367808 0.5969402200445977 -1.8190125491869769
Ni 7.298424108829195 5.827780683893105 5.007971465166755 -0.07004327787133098 -0.5396010200034965 1.8780363360193528
Ni 8.225460682399834 7.484092876243364 2.77211574783054 0.44744882604826813 0.7336897409942268 1.0635535348364586
Ni 2.8978110008940887 7.346456704865128 2.5001386428542167 -0.06424441180136678 0.9767638907447243 -1.9160884056960679
Ni 2.8820864885059643 4.394963862094955 11.72093761543123 -0.19837140752648416 0.16250169021306854 0.3552462384710785
Ni 0.4655296050563423 3.2158401977035407 2.4704824365925293 -0.9975551164584626 0.14032361145413252 -0.6323479101199303
Ni 2.6528671713422654 6.021666536165675 10.187321440171203 -0.014718280046781102 0.9537833706891509 -0.39132112981676476
Ni 1.1914959796611677 1.0786324516117287 3.208952786576771 1.181544801341978 -0.8292069947669461 0.29960885161243245
Ni 8.029651285262684 1.2433289774441112 12.312998188431605 -0.16352447505062806 -0.5839996007235296 0.2690510334302334
Ni 0.6290748052489055 4.2724732721261836 13.392488765155251 -1.4149549456401502 -0.3467299734699512 0.3648343963801459
Ni 8.430243509706218 5.237607239131233 1.7253291688433348 1.4930663452315964 -0.10483287474669042 -1.3047471797347916
Ni 0.5995577291740248 8.450375367609302 11.308605230996253 -1.229108152943238 -1.316486836769223 -1.659894944954793
Ni 6.602614435654705 5.913518494313387 2.9084530595453626 -2.9751170560789797 1.3221589474533357 -1.2233157146311773
Ni 4.203449759315606 8.24696516697813 6.074507060603416 -3.6113169929551483 2.3093967411461906 -0.4589064330659064
Ni 0.9635745884012388 8.526056586674473 6.759322647741221 0.09481842793348186 0.5833020604358728 -0.6379243757664433
Ni 8.076610057709166 1.1620078501352202 3.755627038369477 0.28108045379094176 0.16063969730366529 -0.5958423589947287
Ni 3.9405403942324577 6.044879800890661 0.7686018399042165 0.15181567125413206 -0.25359278989363426 0.8794170399624338
Ni 3.541152719728395 0.9130684630709989 0.793861905766659 -2.039715787441442 -0.1206454162989148 -0.2660991498907611
Ni 4.933425697827475 1.9212104654729962 6.383657136967579 0.334708780639359 -0.5014931573881816 -1.3703105674578981
Ni 6.11341775868688 4.311373698853574 7.054806217970432 -0.20351772761411402 -1.4262117495008921 -0.03120650750979142
Ni 1.9844913564791224 3.8986519366474672 4.268449701824496 -0.6067430650676324 -0.1449834788236471 0.3397579130274923
Ni 1.8476302056045772 5.246067101496815 2.1660879980901666 -0.333121124437265 -0.5265161617950803 0.6587073739500656
Ni 8.82400995115942 2.375577907756914 8.234622732016952 0.9606309897386036 -1.4506565128068178 0.8210995351684633
Ni 8.373452248218943 7.5050557802287186 0.5349742434659133 -0.6876420547065448 0.6294029685589935 -2.027330269292896
P 3.5963565898225687 3.9175512318217915 9.614749364679886 -0.20434356594951905 0.7857913467854725 0.4095535936643915
P 9.115641762861255 1.1387572350245143 10.101687277071294 0.7916138670045206 0.12859398172203015 -0.03775202193779305
P 1.344371108413167 3.3541113256390163 6.667387474570346 -0.36661771353281375 -0.5502417875467943 -0.8898392637370223
P 5.505549568690152 1.4335825047054103 11.849593820322733 0.9081660870706681 -1.0554987828527822 -0.1324902314526428
P 4.0687736060056805 2.064523895480673 4.239613336529362 -1.2016780817567434 -1.2260775936470305 0.0636016360110453
P 7.6168174718994175 8.035991513238656 11.957627943498574 1.0220926965885109 -0.46495701013536056 0.31960817755249477
P 0.49871822404749977 0.7215020697516414 5.189381354849199 -0.9969131119990897 -0.8017113604498386 0.3787535775643993
P 4.029845166489001 5.122614739095753 2.794583872360412 -1.338081018000231 -0.39415757082429537 -0.4197035376141998
