# total energy = -340860.0487842204 ev
CRYSTAL
PRIMVEC
9.32621307181100 0.00000000000000 0.00000000000000

0.00000000000000 9.32621307181100 0.00000000000000

0.00000000000000 0.00000000000000 13.64985553866242

PRIMCOORD
 96 1
Ni 0.11032629920404241 8.273339305451637 9.535461275329368 0.002346645855305636 0.10304775782180962 -1.2021565640550587
Ni 1.9506240318876633 8.01768916100324 11.085579493405326 -0.7219166596186986 0.8510174057738182 -0.053866411001152394
Ni 3.576276179808289 5.633890524592203 6.459629672753715 0.9345548614768422 -0.12569249180451902 0.8422034070266141
Ni 3.6540288156709146 1.6551229802734984 2.144897437476096 2.488161944405973 -1.167760603073692 -1.9918572731972664
Ni 4.008257029097116 0.7393830810186567 7.9068965511607034 -0.4323695631176425 -0.41775438430762896 1.1089237354411419
Ni 6.6756844482662405 4.98647416031877 1.0089068995835522 0.8460315225234526 0.25302483320530617 3.0334713276481566
Ni 0.3460836318142513 6.2597540111544046 2.241592544095658 -0.9481557400897285 -0.3389127914183776 -0.5728284145980587
Ni 5.911606488454176 9.27875167311031 1.7065728982611854 -1.6458040140793653 -2.145668634725189 -1.6961053334370788
Ni 2.545552470692119 0.14434832338862416 0.46771236827413104 2.323168855229618 0.32787761665013854 -0.6939325157009467
Ni 9.167079601403572 2.0744574850463464 5.4014113557706125 -0.9114056770538884 1.8074184165914744 -0.7156783920184706
Ni 3.7511333430310754 4.517552182248385 4.190928625999799 1.7858293775667893 -1.3578980527261582 2.199077389363632
Ni 5.353768397835597 0.5190214604489926 3.762063664397394 -1.2321847349860326 -1.4998293749870428 2.4569613504334527
Ni 4.0256970469768225 3.7147704394412493 8.66466905851904 -1.3337448525187223 0.6731590305990213 -0.22921153283579232
Ni 3.843229694133801 7.5719614740915855 13.07141557422701 -0.09912296884610672 0.6636346360483538 -0.33439742004652734
Ni 1.692325243012615 2.1009532555256216 1.4607395253743807 -1.4372471813794474 0.6443215375420388 -1.5178813473927473
Ni 8.517536860618604 7.555276879446241 3.815817156939245 0.5924873264795666 -1.049310137543567 0.5739373313915213
Ni 8.868295722894402 1.5381909245645384 1.4054164312233557 -1.5557912350646432 -0.13736581437738923 0.1866330360436334
Ni 2.5349672191982866 7.216781986962855 9.014200591194323 0.9838074278550669 1.5619719099540583 0.8699214417671727
Ni 5.266782811330775 4.707806922754269 10.437416099489026 -0.3924303037205435 0.3124232297682813 0.50500117054144
Ni 5.833732611825541 2.362590828572293 9.367117539105077 0.46013310638415594 0.3944861578083077 -0.9560963350930437
Ni 7.76859534413208 3.4898967971335098 3.2044130306554908 0.26454980312577014 -0.9548989723508329 -0.5780798928049851
Ni 9.035412129518175 4.012901483056525 1.2367723909478747 0.8128264965263936 0.15164237890106141 -1.0256570169010013
Ni 0.47641372478844424 8.792137869415429 0.6120541633138162 -2.4068299809947002 -0.3771304401386796 0.9530061262034942
Ni 0.15577200141047015 3.7701588170816636 7.454349537471701 -0.4724885426257153 0.03136540168515889 0.06665147858096264
P 7.152142006254703 3.651044427584548 13.238066602833564 1.2049415829993635 -1.0226405986721807 -0.6507570087547373
P 6.9926264630383965 7.127147756031381 0.2841174763072292 0.16167919431177316 0.9306781521302552 0.7326008788054221
P 3.762492670184809 5.490005713978242 11.796232243365042 -1.289792101086856 -0.9559482395509536 0.40712852916266656
P 7.480079625882567 2.6374996023905264 7.814187467878995 -0.2966500260944246 1.360346771376967 0.22162292185525703
P 0.6027624575311685 0.7605190770190726 3.955782160326018 -0.22106267847641284 0.47516506101661393 -0.14912115514110447
P 6.481708548865167 1.8070656387206492 2.422535061150801 1.038620519040205 1.438398264264755 -0.2380137045084546
P 9.09984693354539 4.901316511516847 3.873610764853016 0.697636189804779 0.6059105418640082 0.5780312989552367
P 1.766422003469441 8.755317981399878 7.778438229089428 -1.1726361859984387 2.0186016311706463 0.7473852362034483
Ni 5.543640763617916 8.732487412539173 6.491529983533145 0.5022544610342382 -0.4881676439238689 0.31336785306973775
Ni 7.782360834180446 0.08768132197745716 5.708219507747 0.1570057000955038 -0.39816103555673366 0.24252959010093714
Ni 3.5091834051416555 2.1692584378523425 4.169457818960943 0.001258297887133317 1.7319776218536562 3.0802036987076886
Ni 3.281148176704921 8.066157488768392 6.496375883688383 0.6934185521790058 0.03859148711995289 -0.22358801600142783
Ni 6.220947639818866 6.485140595164489 6.700959417493936 0.2798838623796792 0.333085128993007 -1.3415568923639734
Ni 0.9453888622716192 8.393087877417107 5.72954016276026 -1.4867033791280462 -0.3215293058346075 -0.37589039708399136
Ni 1.8705678214708732 1.113689697917168 5.915014286600296 0.9234039870663453 1.5691090352194719 1.5832508739374926
Ni 7.160582228811459 2.502017709482243 11.414418025186762 -0.5842302286770971 -0.7752498238242003 -0.616105737229455
Ni 1.0354800776288176 6.026011140502493 10.356786326986887 1.0190911907580256 -1.3615114811090294 -0.5843289590384904
Ni 6.492610891593176 2.2472069241831356 4.67182639388801 -0.10941355213883737 0.8533465681276271 1.9313913546017252
Ni 3.3392691346869143 3.310637661483333 6.4633564273765645 1.0783096100997107 -1.672255780512991 -0.5843860375286709
Ni 9.0521340290146 4.084256336959002 10.070604027172404 0.6985329905874357 -0.9844229499518788 -2.223260928588371
Ni 1.9183833143421316 2.1413637354575825 8.189312926258703 0.43746651802457565 0.12744109906450954 -0.5006634623980345
Ni 6.317324722582975 7.652054989359455 11.883522797027439 0.45515750754643547 0.6369113611208966 0.4237016030299993
Ni 1.5148007829376386 4.291475458493328 5.342444510290389 -0.7004785443495807 0.8945940048131883 0.8387452732746844
Ni 6.949250247445609 0.410686307671323 13.463124904154148 0.7427443949973274 0.014273736310194771 -1.3451968031094057
Ni 3.392279328071005 0.4654871339072338 11.392196458019932 -1.4210721142814817 0.31243608528408773 0.0021766959363446383
Ni 2.1400021083931775 3.3244870874466286 10.439176888459981 0.21335965340520027 0.26843808243658285 1.6722956326119909
Ni 1.3346649832870912 8.36751540200205 3.0326157978425075 -0.9461160839518802 -0.8156498249078017 -0.9892843918092382
Ni 4.7743867557185595 7.175289666349586 4.244886362601311 -2.5646427503725318 -0.26848899027917633 0.38516410907643345
Ni 7.661250635150572 4.3339936625112845 5.807494244818715 -0.9955296013880016 -1.0904295332916962 0.1739562119069133
Ni 2.784984331133667 2.6873575358583923 13.054216172636767 0.7887486296415835 -2.658599087416034 0.023059710032940932
Ni 9.0304785629629 6.1922322307003554 5.659816463471238 0.37789997131485237 0.11702247483434686 0.6134947819691693
Ni 8.460693593786084 6.78370064456718 11.16272872330174 -1.0660115094586478 0.11929815824240099 0.291616320325259
P 5.496431474576701 8.307631789806546 9.149020322995945 -0.37419912542449746 0.9974666705097144 -0.4018050600672241
P 4.805610916072172 1.3226807998777745 6.029196042163412 -0.43441924655781955 1.3593980343104526 -2.070687039011976
P 7.8076908280634845 8.39381532201316 7.838811467455352 0.3701246982448077 -2.145926002151633 -1.8343756619066085
P 7.768110381068045 0.18946294504172057 11.480305853163525 1.086122164165594 -0.30422449600757284 -0.7041279681767099
P 4.654488964348772 3.749296079115406 2.3956447918713595 -0.06753053875180627 -0.5044982627630925 -1.195324885845206
P 7.297882733209873 5.06210041966986 10.367883587561787 0.41441220730827344 1.2549225429031807 -0.5179091368523596
P 3.658244263842908 1.900458333398391 9.793020495531763 0.40527399245243106 -0.5220118461668236 -0.20984238428056118
P 1.270472660791895 1.7959394668861628 12.199612395952428 -2.57688068719962 -1.0653453366295589 -1.5055436517630005
Ni 7.764361243534546 0.22554139914206445 3.2295285216448213 0.8145481072031908 0.9641112349777201 0.07307692249133221
Ni 1.275686013730267 6.265219171837564 7.602409693542744 -1.5847210307251158 -1.394905740298759 -1.6309263256365847
Ni 5.527226629142899 2.4321084185591 0.40077067825436924 0.1879242440512312 1.1584686362488048 1.5072490644898815
Ni 4.343273244217332 5.941226540211366 2.083145784862782 1.5275466383966532 0.3131955891579316 -1.6198587549685135
Ni 8.030438093859688 5.913583645561394 8.323818364689979 1.136544582482204 0.9708138438088764 0.31884378858264445
Ni 9.003973466270855 6.318975462243246 13.472448319060215 0.12776094429777352 -0.2653684423723236 0.17867367198724068
Ni 4.579552844742655 6.390843257848067 8.770536495397796 0.5979054121713445 -0.030151326772399685 -1.899398860855529
Ni 9.039366443732611 3.5067399373959423 12.164300556541768 1.8077022663804805 0.09560878504526114 2.1115637226216792
Ni 2.451171197460768 7.02193874977418 1.2725775870140608 -1.342789993440126 0.012522300836726822 -1.3862241533643611
Ni 4.157094058691892 7.294068312186986 10.785392019874289 1.0110688346741814 1.2474977111940193 0.15378847870978676
Ni 6.438099177953132 7.017005183218905 2.5835213481209207 1.4855448400435707 2.0713182448380714 -1.857050220685989
Ni 0.8582354039369382 1.2961197459091098 10.041843852232596 -0.855225787428211 -0.7931480442608598 1.4650282081474575
Ni 7.409610762193231 0.48331325699561356 9.232544019320581 -0.5892215112441014 1.0168615300965584 2.0363617833675445
Ni 4.747387369749709 2.685576229219342 11.644623463335051 -0.6414115629840954 0.06951311639947383 0.018257917768923392
Ni 6.057431151324274 5.086973429127173 3.441988042134552 -0.014593581543458738 -2.0598223283833303 2.1812115648268047
Ni 2.9766846346188855 -0.0009223624429427453 4.250647164229276 0.8754747674852342 -0.9268214973883264 0.25123663095663185
Ni 5.703296200025772 0.46328428245098424 10.926845486819136 -0.5970271233314492 -0.39187417410675734 -0.3000629084307155
Ni 3.712205730929528 4.331456932637873 0.23770371321528622 2.2712479979906113 2.058837081651925 1.5820671380420368
Ni 6.017673506286206 4.7853637081487275 8.121773426000392 1.1231869302283752 -2.614956668135735 -0.0949580388351397
Ni 1.4076612506370696 3.3361914844728484 3.2376908230610346 -0.48640463848617516 0.5936132125538938 0.44044642658850597
Ni 1.76021074576469 4.838849538384082 12.517544854520745 -0.23412979607301612 1.028023717360965 0.1572214156507357
Ni 8.889121156009582 1.161001575298852 7.581170176580581 2.0497220067245343 -0.7089924953578628 -0.0171302319223834
Ni 2.4628196372103686 5.8204987159050585 3.1959905279029974 -3.135896878504935 1.3763382617092168 1.7304529576790133
Ni 5.442861708426417 5.788798918700181 13.071224386865229 -0.34496311137751556 -0.07289000329150673 -1.4417676949576204
P 4.595677866621806 0.8585627540051616 13.06536845786701 0.16504965344590283 -1.171593346556221 0.41046916350012536
P 1.94190402294781 4.694069411344212 1.3058460532068348 -1.7775098019575 -0.46679534889568 0.2814681761476637
P 6.621564435562532 7.793225872057375 4.764768632488964 1.1041569101801179 0.23849527213056343 0.18672353887491067
P 5.402367292579527 4.450170294985883 5.85303041128901 0.29194644997116814 0.24502021773327476 -0.12382201425468352
P 2.0317434305602213 6.6143459468786325 5.418119265947882 -0.47074944844742156 -1.2663274423060125 -1.3883540552231701
P 3.525942609489159 8.46302514697856 2.3628995262149766 1.5039498249133196 0.606146312023898 0.0625701094227374
P 1.9369424777542255 4.430053654041218 8.642637746092715 -0.9526366586792175 0.7111884745679172 -0.7596249728027498
P 1.5286875137520142 7.507162947766346 13.00091406879298 -0.39838240753892035 -0.9194468021908101 0.14447491461834472
