# total energy = -340861.8493689739 ev
CRYSTAL
PRIMVEC
9.30627618427664 0.00000000000000 0.00000000000000

0.00000000000000 9.30627618427664 0.00000000000000

0.00000000000000 0.00000000000000 13.62067588850179

PRIMCOORD
 96 1
Ni 7.262078040884194 5.728636409924059 11.901855029690127 -1.7358455894494942 0.540899684210262 0.4848830596353262
Ni 7.683121886792429 0.4590450934024698 13.323854005327867 -1.0981988928244697 1.4868537886629811 -0.867986429527989
Ni 1.3669523529878882 5.356134099728695 7.7625863164598075 0.07608254208687541 -1.6913338801903643 -1.7487242451843752
Ni 3.41608265696513 2.3983669241261785 10.75404128062195 0.6317532139587249 1.4896614333151055 1.1146614092558673
Ni 4.686240433083856 1.7686856761575869 1.8193546265683018 -1.2816123934895414 0.7217569941123828 0.6630178283999614
Ni 6.196202329649133 5.310775310414177 9.120227740291115 -1.0456941380575344 0.258863037153638 -0.20540697421702686
Ni 4.75162632839034 2.6030863839827156 8.284081175084902 1.6594475730047291 1.1793493363525562 -0.10265206504528773
Ni 8.66051352564291 8.673300348892427 6.777662177799894 0.18897042592755844 0.4653141363644631 0.31595052619524944
Ni 4.097106629728181 1.3088067404238533 13.055894677414727 0.12015819224985112 0.03950397163189325 0.23483582100110525
Ni 4.98565125142936 4.356146822705121 1.7913911283876978 1.0396785279910739 2.189487945902984 -0.5092578889352649
Ni 7.700403641358916 4.986144484058344 4.165801836786869 1.6497249464003263 -0.48557211528255084 1.9926234619393293
Ni 2.6530238610983714 2.1093419098174 3.608852858413822 1.3401535842585437 1.4780883837655254 0.31206507509791415
Ni 2.573371444655417 5.437387195646843 13.079689894566613 0.3812670880148724 0.6543650378209699 0.8536054782159687
Ni 2.6597522986597983 4.528815467953699 3.2599177616078876 0.30076584803501105 0.24799935496625677 0.08935123417132353
Ni 1.70892077156632 7.656189523994682 7.600772511559292 -1.44263107139918 1.872994659830387 -0.5821553484259393
Ni 3.826787230216732 7.2654841379069905 6.71944676816572 1.423382507582213 -1.7920663596154363 0.16562866587782443
Ni 3.138885919475957 3.3174733562723455 1.0804093224932634 -3.9348286193271074 -0.07171063827142488 0.03209816608612537
Ni 2.6973775726028832 6.820271893178526 11.064551694374805 0.39942601831208635 1.607077029822813 0.11815890243163521
Ni 7.027141102795354 7.5900870454347675 0.13003008041428787 -2.2152514280203337 -0.86960416763707 0.17950645230118115
Ni 0.06001710467137006 1.8251096276581866 12.95570051791598 1.534878653281692 1.5991726873740715 0.6076023277441343
Ni 3.711529001726723 7.922460693438053 12.991427311551275 1.5658432199840067 -0.3174523075517565 0.42234663166400166
Ni 5.4875573296629625 6.996458310762123 10.837903856335707 -0.8380014531301245 1.1519909989442612 -0.05619377358274838
Ni 8.514135110146798 4.961780653441723 8.218729712999686 -2.117908948113417 1.8626143450373278 0.5453327802809512
Ni 2.5731853191350456 2.7560722554520147 8.159969886218425 -2.16630225181514 1.03166877031272 1.4240725916707022
P 4.514949116686027 0.7658115923130526 5.243728244838377 0.07120464516928382 -0.6740794855307618 0.6457842381304942
P 4.978783219727654 9.072158032772387 11.693936072138404 -0.07526621683316716 -1.334743983207198 -0.3658512676804344
P 1.8655826220629543 6.4853762443742085 5.733814421900793 0.5639768777446996 0.45975078334407266 -0.6305303972952173
P 3.244093369865909 5.961321229216405 1.6666125795306899 -0.8141012494737592 0.2324089567271675 0.4168820090050046
P 7.439632481042522 4.403804262196227 6.5459200842682295 0.29357498671352666 0.12357595968214846 -0.6692710083985248
P 1.6331397659470916 7.579152171112947 12.689280448056312 -1.0696663326024158 0.10213347353765638 2.4960673152959787
P 7.7026929852594845 1.0156218207347736 8.075561962729982 -1.5772627746748578 -0.9782440748346765 0.814286883122004
P 2.4101021381855965 0.8393395485081849 9.743645864499207 -0.15457575049777247 -0.6624773825154591 -1.7009690892872835
Ni 2.50468182136234 8.409197541761383 1.4543206028778404 -0.15056740066932778 -1.2400260854073224 -0.7237089756324311
Ni 8.545962574130312 0.9349177951017207 2.4558489992100894 0.25592323779902376 -0.8088507997080973 -1.1714257106301051
Ni 2.087118522685051 0.5470294187648512 13.237471290068282 -1.6466393654964675 -0.3675973038372637 0.6662489337427493
Ni 9.07539661682685 6.24528362937108 6.144477116910311 -0.30928082748455765 -0.7180093541444924 -0.11170080551111729
Ni 4.144159161278079 4.9308838170600655 10.87360366177055 0.5191525223411575 -0.5091162211510781 -0.03486878685272705
Ni 7.930352415501801 7.626418747011272 2.6070657476082575 0.15392988938365748 1.3678574779317154 0.9619954741862982
Ni 2.8351849078858913 1.9229651199934668 6.092609518148404 1.7278566577067467 -0.5674062151412227 -1.6257599509442968
Ni 5.111230140023965 7.3837110684469245 1.6157528504615943 -1.0780828388008854 -0.17178645794910416 0.04773150174800812
Ni 6.2500298301405515 3.300107845221691 5.268177693194369 -0.5641092895575058 -1.3636264705695031 -0.9566804897312878
Ni 7.10906425058684 3.984370402039205 -0.07058624234566181 -0.024330092104932293 -0.12037467913603139 -0.22735776745650518
Ni 0.9720405301398028 5.635741162706679 1.8868316420961588 -0.4921641666777717 -0.41108957069294366 -0.8554900968331912
Ni 3.8995623086819613 3.9451165297928696 5.446444994095719 -0.5487096671729841 0.7951948994875595 0.7856743615916341
Ni 4.019287549660885 0.41392175287122174 7.66263784264795 -1.3765982002388228 -0.5503479741073554 -1.3114816702451477
Ni 7.156070250756645 3.1162344436467535 9.090343426740278 -1.1041183436326985 -2.157571813920678 -0.7186431310737494
Ni 1.5928435907866767 4.984320453958704 10.333543713116008 -0.9961520654633488 -2.736463918214313 0.403352349949686
Ni 6.9764498173221945 5.62002286251131 2.263933113899902 -0.23472140691042803 -1.4383216453905487 -2.9859285448721864
Ni 1.1681423784031435 9.061744309907606 11.28512439542898 -0.802275974704057 0.3935860145915415 -1.2548040150474453
Ni 4.731133908597444 0.7019240074455587 9.758356295001764 -1.286369191448236 -1.441447078393408 -0.9959209232891493
Ni 3.5505211203294156 6.613244476869382 4.305795216306639 0.727121857968722 -0.3938780919106636 -0.6312472208565838
Ni -0.11701804528512105 8.439303344681463 0.7925773727700665 2.0886271684301643 -0.5042704630230024 -0.207842580241713
Ni 0.7983379576255621 1.239837928850219 5.110559157523026 0.7619731613199522 -1.0768358537676617 1.2611291859345248
Ni 1.3370047567601249 7.360771098061145 3.34462534718413 -0.033902309174399674 -1.4431442635901728 1.2863915600457394
Ni 8.297931705683343 1.77648433546115 10.899100996806233 -2.5386326994620148 -0.7862754855107427 0.5203041194470974
Ni 1.0074509103904679 3.4450065628308506 6.034708660643657 1.4299645316751053 1.633305881612355 -1.254645377982394
P 4.571605725087091 7.48003102523914 8.70098279753727 1.1732437376754503 1.5684590603402986 0.9971748503009085
P 5.776293849415165 6.741550104337429 3.581202981735044 0.24394498239122503 0.455202501851758 1.8186549087372423
P 0.47934487328178 3.4899744885525887 8.707725194512726 1.8521422418614102 -1.5088678310402273 0.7822874473972721
P 8.458399823071572 9.268976464289157 4.3857072778505115 -0.20020846073522294 -0.19706991510624125 0.24001479409888343
P 0.5490488806608813 4.337431901631773 3.8612976935764007 -0.5359148294011609 -0.16364043180320206 0.6945207841042491
P 5.207633853300348 6.128917954034861 13.291872987790045 0.11953187151976188 -0.45224470477501466 -0.949840326881003
P 2.0245431227361754 1.5238468603849868 1.5481399633038664 -0.6662304217999881 -0.5347220946446404 -0.05934954560291068
P 4.726313257619824 3.3522602160297663 3.522211428680921 0.07416244224602712 -1.344940721234542 1.4663592682540554
Ni 8.497355894485311 4.101824911669596 10.59350801930159 0.5919175700190257 1.084170696866178 0.7289085175554995
Ni 0.444717150844277 3.1898284744016174 2.0888532125349126 -0.10018637711361456 -1.0234299273426957 -0.6727818497652607
Ni 0.03976850931016199 6.463767071459085 11.351920191552278 1.6464470469800032 1.7070314934312796 0.5763541683631299
Ni 5.964438831682626 8.646340067266625 6.90602271229645 -1.0190767925803224 -1.8484722492089907 1.2890665357747413
Ni 6.965580086932503 9.347595884094051 10.030265206457186 -0.4304846873901038 -0.884591899295154 0.3547484728990536
Ni 8.023471013343627 7.029132645863328 9.602630655872597 -3.9163992089773263 -0.10368821961928595 -0.5807620676228384
Ni 1.0104475312684478 2.3078726961215876 10.580417811453868 1.5976611358255517 0.8169911694270446 -0.3577368661034162
Ni -0.032583133596222856 4.738253209751652 12.792457269019012 1.3952322704002422 -1.132235927804521 1.6488821387840569
Ni 7.348617101580891 7.513617375390165 5.0870366142584835 -0.6743052283883226 0.1606957473525813 -0.6285663315903111
Ni 8.373777855234701 2.2686653552553455 4.305686332877222 -1.4071580753035506 2.195890249884902 0.04669714694622281
Ni 3.985012535084486 9.167240254854134 3.033637521471523 0.64129303512836 -0.09737950379243875 1.536320270824225
Ni 6.831541793437016 1.0592217238817816 6.007699055754957 0.7133353457075908 1.2647639544736347 -1.3495442814448242
Ni 2.868389700720155 6.204773409862239 8.973042470664192 3.8697259732905036 0.0378576942777219 -0.775609264046148
Ni 5.788671196519864 1.6617100333241064 11.443424150504882 2.214163080052161 2.269534357733614 1.00852267121356
Ni 4.6343207191762446 3.778943665205255 13.194103113194135 1.129210510714636 1.0621849366237064 -2.977708728065556
Ni 6.0094160636803835 1.2221839232429887 3.6692329078499166 0.41212881059073536 0.4778935156913705 1.2763591155104017
Ni 5.871217864804595 5.658904483716903 5.756560821745386 -1.5006752679271058 0.9973291164905855 0.3166367536289966
Ni 9.185880725719333 0.08302687212728832 9.324823426676605 1.101420227975245 -0.16433334410516862 -0.8741298234215655
Ni 1.5826811373743965 0.19896352813905135 3.2843123029353696 -1.3614865414083648 0.21765725233928968 -1.0671019143093494
Ni 6.301679662043624 0.20063214342918126 1.6021861612817208 0.6531432495987267 -0.9425803028844798 -0.2343213432585319
Ni 2.6552573673428284 8.638215688302413 5.370318725636202 -0.5688403764845881 1.6067962653576002 -0.5352183175547686
Ni 8.581996474874222 2.5399246886446707 6.984151691355164 -0.25252218253727476 0.1688667131991479 0.12306431015305257
Ni 7.011739215984617 2.7804174735165974 1.9650276263422066 0.1068283079101644 0.12611003895791184 0.7087685522725149
Ni 1.4562274588340458 0.7247262449462628 7.386969195681027 -0.5536508132283432 -0.2838096797966467 1.3058113593332479
P 6.165035611262938 3.808779586120796 11.138484473576744 0.2716519613881902 1.0544803688905968 -0.7295482080220274
P 4.41419937250897 4.8482720048432055 7.586798207489805 -0.15544401203533875 -0.5861449292013067 -0.14501047540684056
P 8.48968752304601 6.25941986264329 0.6388432767088749 1.3502999286639261 -1.6262273774990188 0.7419902904401221
P 1.996754582544721 3.6132733395226437 12.177455740842115 -0.081200322929415 -0.9840776507973181 -0.4249298190101456
P 5.966588581442917 2.0745085186798864 0.12918413992419972 1.846989236905561 -0.24984000771942133 0.031024987626604633
P 0.6529487992702238 7.329641604779024 9.432985619702455 3.429814079049229 0.0030940655442914453 -0.3272808636064041
P 7.067325602643546 6.915149377187864 7.468829060795585 0.9920876655859882 -0.3424092346074103 -0.42790484247806954
P 7.8768227158429776 8.132661549869528 11.887431232488943 -0.15362727054157416 -0.10605414874830123 -1.9299062854157665
