# total energy = -340858.02855870035 ev
CRYSTAL
PRIMVEC
9.41766343322947 0.00000000000000 0.00000000000000

0.00000000000000 9.41766343322947 0.00000000000000

0.00000000000000 0.00000000000000 13.78370238653623

PRIMCOORD
 96 1
Ni 4.106336765745071 6.502369318016373 8.954899375915524 0.8485069806471386 -0.481865612965241 -0.5713585149207515
Ni 2.8793187945916747 4.8492397401823935 5.403404260428742 -0.08105351293890557 0.8550751207829598 -0.4909503488753287
Ni 6.952401790209239 1.3185294082332533 11.000718214124364 -0.2272546662197377 1.178833573058402 -0.3647570061749911
Ni 4.628668641299267 4.619976137807994 7.562235061687731 -0.45863749567523593 -1.2252275869419091 1.0406396063527628
Ni 2.479717910909938 -0.2123683138984034 12.691702090748349 1.6637539136895667 0.08983177335216787 0.08610187399609043
Ni 4.2074730550113655 1.143012411952786 0.14053414311829424 0.10544402596812807 0.9862373774527982 0.3023177659031632
Ni 7.658265093756877 8.4584086274791 6.520063224364592 -1.0601784477166387 1.4463974804201478 1.2164578111690791
Ni 5.270746109368685 0.8082088208185695 6.287960196418557 0.9665391276929226 -1.0471151867747772 0.7607716848126833
Ni 4.48139521811775 5.684577082731153 3.7711800122263224 -0.8943597773151952 1.5112021356003587 0.6647114140523004
Ni 8.783101414985763 4.54635826154441 11.59344429969614 -1.964482223618423 -2.3131603219536805 0.1771916881250755
Ni 0.5156717038651085 1.230879213224276 4.410839966052825 -0.2141592664883602 -0.030994648609301456 -0.8882238396207863
Ni 2.487920695894662 1.874727202048145 2.827395448168284 1.0716404256096512 0.19062030282615558 -0.6990119871063833
Ni 1.4708601167612656 4.183448595199621 2.9742469600210812 0.560166502859674 0.5712194182397259 0.06317406155532346
Ni 2.07849718909115 6.316106767582554 10.103454082889561 0.04408413480340795 0.2161932661992535 -0.2534428945793313
Ni 1.342346679446072 5.047086016828853 12.082049638410737 1.4164413003776897 0.5701662943848632 -0.5870152476214019
Ni 1.2691055097259885 7.776503860098094 0.7889459317166717 -1.359767244724413 0.31925953596382434 -0.6000530546419666
Ni 3.935698119202934 7.769082741191134 10.92828413817373 0.19369277110389221 1.3389935025121715 0.03674517793983349
Ni 5.0701404572910835 1.5410782164697578 2.756850555533305 -0.4098302443645458 -0.2574515015180921 1.4235532288321224
Ni 1.6401426197468 9.13041543042963 10.479541885892353 -2.6304977011941273 -3.000627027424626 0.8075534210529124
Ni 4.003627726659661 3.3745748873317734 3.576884194752355 0.02176027449522704 1.4439369346947972 -0.0888177302653567
Ni 6.218728126087677 4.410376617004319 4.423107414641918 1.0774758013445058 0.651937916436716 0.37215098464621715
Ni 5.127465775548272 7.854952997782072 3.0810847028232566 0.5083238071567697 0.20011950056584246 -1.9171055341066723
Ni 4.812981735370472 4.990231581751042 13.687726434726319 -0.19022126761552402 0.5052174003173041 0.13624378495780404
Ni 0.41539336375163577 3.004281772734376 -0.020533331919853168 1.850949764215206 0.738904709536263 -1.206342577111948
P 1.9864395275232165 1.5679185576941679 8.57819094888231 0.20015035380377788 -0.3814192973220205 0.14713266395616595
P 1.991506230533298 6.551934481477451 4.199108286212937 -0.061235963992346154 -0.8033082726233133 -0.886047400794758
P 8.878040881611476 6.155658033042107 0.3463760161505515 -0.3802900688135838 0.841665532245273 -0.19654823827481635
P 7.396359869388159 7.590326068636562 3.0675355102199022 0.7336853701188526 0.23242052669139324 -0.045355545316663824
P 1.6261668069829316 7.18616703577847 12.090595226350045 -0.06311466907229776 1.1182735520871578 -0.03345905098939399
P 5.11445056447033 7.1476864623598955 0.9852618380301603 -0.017605114676272907 -0.7162692315249342 -0.22333399100909276
P 3.5158869294623964 8.179692873606673 7.02978484837511 2.4493298020301237 -0.7947287584844185 0.6612885044136806
P 3.9553716184372476 4.7497797950346765 11.252160414247356 0.16410168771033673 0.47148221284838804 0.6368807649932773
Ni 5.678107147846531 4.535452607110071 2.1021939142100483 0.8671220246451647 -1.0384138023460374 -0.9160506320250675
Ni 3.4761443891230948 3.3156768192554713 9.431884259529488 -1.433223919152667 0.8640690967514538 -0.44592364765299325
Ni 6.999913903008239 6.8808463822713195 5.153037557487444 0.04779912176114994 -1.5431393506285875 -0.3449751955623736
Ni 2.144383163549386 6.503019136803912 7.254334910123961 1.2093669657605688 1.8310013461177372 -0.8426034706785102
Ni 4.386879546353476 1.274369983671408 9.813238420010421 0.6321059693124533 -1.9311602124275256 0.39933808658397035
Ni 0.24820252384888786 7.9869603882882325 4.152960792867768 -0.5208005994675419 -0.5041480785125252 0.40289443647666096
Ni 5.812054577051719 3.282300619501328 9.784154791319464 1.1818692745609323 0.5837579170263688 -1.1393874512476379
Ni 6.2712598535788215 0.5849800572710468 1.2256316910733143 1.272344852144686 -1.2651835585095565 -1.1042708100501628
Ni 2.4304352773564863 8.366614660491617 5.348779928088453 -1.7950619519086504 -1.6075238875522444 -2.4072866089161447
Ni 7.814457044355769 1.9827572210604991 13.841043172631943 -0.7107596145606145 -0.4833005456395547 -0.5669310752770171
Ni 8.186040378864657 6.759876493489724 11.900090960236412 0.15192597157975124 0.7494151221492835 0.29248586741440596
Ni 0.31161636161540224 4.796039358576538 7.466286963291796 -0.44595681488377387 -0.5509984632071607 0.47136008544822694
Ni 5.558088443087273 3.2478696414253827 12.068155759320081 -0.37108911904060604 -0.47431248320833147 0.3208189100311442
Ni 8.149499844145108 8.228495206317161 0.23047188861267837 -0.45636644025287215 -0.12408838054219275 0.5810384612126767
Ni 7.6104233627323135 3.50171334576319 6.4888851072917735 0.5777765026319535 -1.9335701074205989 1.0761198015372435
Ni 8.410595149445301 9.009897589500236 10.580604717382665 -0.11212195220893593 -0.7038186644664072 0.13548016731890217
Ni 2.0295159207724978 3.217507094019243 6.7705410557362224 -1.2485364368711789 -1.684208067778861 2.261171844701532
Ni 4.162993429887545 2.7667400440665517 5.85120945518316 1.1064184525207847 0.9026554416650842 0.234271463857203
Ni 5.556025974761608 8.331411434001497 8.048345661317997 -0.9060151021659364 1.129576892915119 -0.43692890035355075
Ni 6.515516376384541 2.2826533003412424 4.956701874080421 0.14644000876451554 -1.767981807862407 -1.300242864106535
Ni 0.36250753210960146 9.686161176392323 13.133938621023471 -1.4938240493332273 1.4250172149721585 -0.21111636589697838
Ni 7.4065403637262595 4.774039696436109 13.460392511620999 -1.5758566383559507 -0.51543059340488 -0.10027739416552407
Ni 3.5872068958106276 7.121156904033872 13.184304285889487 0.147762584230681 -1.3952818926912551 -0.4273890791839155
Ni 9.081264644166405 3.6136234421736 4.35272827288608 -0.008440417457869335 -1.7962942816538547 0.34127512100296714
P 2.375643310604339 4.79981584167513 8.192260745664209 0.9227684103648753 -1.4763444044912253 2.2606645660478097
P 3.990113379411581 9.405957431673068 4.126220278877385 -0.011969513657050354 1.5734014919472386 -0.7608174504489543
P 1.7169059956486132 1.0277402096416348 1.013365087941656 0.7656007307702105 -2.0743251499851953 -1.9579547069125505
P 8.09933195021443 1.1209091555128945 6.074409023973562 -1.3496396693721078 1.3541761237898806 -0.08436560803127406
P 7.32552020388289 3.064931526237955 3.0291896093906283 0.4008164709017097 -0.03167676227799061 -0.41113945009427255
P 2.1973481035655555 2.5499265929548427 4.812180292199175 -0.16445161485058774 0.8726326700507487 -0.6755889801967527
P 6.0428909292452335 8.780398545536148 10.266432401869613 -0.11967251086268421 0.047350978480137806 0.23666901755510206
P 9.505059505604459 2.228238040132596 11.78248788618735 -2.050610579977075 0.4003624140834266 -0.27663707330760745
Ni 7.191506851032591 0.8907433409668102 8.252922742130451 -0.6608195351970618 0.37607577362192 0.1877128993713735
Ni 2.8854214405963825 0.7808100121434198 6.476148659056022 -0.6069909194123805 2.10194779679847 1.4145798216889187
Ni 1.96242448537506 1.7145044914337975 10.965611047802835 -0.40075836397026465 2.607875592919238 -1.133371584070861
Ni 5.017599312136352 8.045962050663997 5.4293310882851635 -0.41234375481501884 -1.396381553513337 1.2916080712496725
Ni 5.658471319266568 6.4018828475376175 11.73431371163815 0.38267219589251517 -0.716674694493469 -0.4049407774827284
Ni 8.656989481885386 4.260230806428609 1.5794881574114268 -0.11144678051878226 0.017173940676125262 1.2501971124030533
Ni 6.895245989896626 6.901160282629585 9.188009152099063 0.8688179242903488 1.212508339603028 1.738829868888799
Ni 2.9306262258164417 8.607989378239559 8.884285734336355 0.4049916853253218 1.0086561114676305 -0.560324625704093
Ni 1.4498775622882882 5.4621695394484595 0.554647646388387 -0.5792327754625057 -1.7876800576222827 -0.477966535021151
Ni 2.796857732219417 3.576357747357813 13.096722839824698 0.9181741061259736 -0.7964038321939962 -0.20027068143172605
Ni 7.085322694083389 5.393891478438996 7.573262203982349 -0.2014788428072143 0.36445258756069493 -0.40971557316355245
Ni 8.346442025087166 9.522576359877233 2.6246510446899594 0.3921425972767956 -0.1853991636365323 -0.6726409533120221
Ni 6.770471365025675 -0.0473341189571958 4.33952282500367 -0.07460287221755539 -0.14384473723351357 0.31137319123721213
Ni 2.827634656823407 6.167637301125422 2.1239166970410044 1.2284077844421037 1.7029722357602415 1.045789011764186
Ni 8.328793323524168 5.608228084027189 3.6165683455774147 0.22079322686511005 1.3576872222669327 -0.9829476509579329
Ni 9.3067611811058 1.9608329002287705 7.958640532114224 0.9037931548139532 -0.24712980787710986 -1.6426870657169383
Ni 9.28003385184444 5.6449475543549 9.624070520359853 -0.9278694790368666 1.424624350409114 -0.7339414519937166
Ni 3.388531864768467 8.559620258054096 1.1226438891457142 1.8658552205721286 0.6511434455598786 0.6961637190243107
Ni 0.1726540265498638 7.300855342947195 6.808529085349171 -1.245559870741358 -0.6108460314924125 0.3471331224456409
Ni 9.703207147485719 2.007516258632069 2.0762943975780304 -2.289452693924096 0.968527618877861 1.0704170947255112
Ni 2.097106492340074 9.062598834935955 2.886528016067915 -0.9159274761836419 -1.015662881802767 0.9604738953354491
Ni 0.4591346440501956 0.12478404253453858 6.337043175503954 1.0612261722548626 -1.00819459845018 1.2603951359819776
Ni 8.596754105579658 3.2249847189077276 9.57349860866127 -0.9284937428844267 0.3477797548907043 1.3170151984688672
Ni 6.3412801823519755 9.168971345156907 12.633384150749036 -0.42610069938979517 -0.7638773203212006 -0.0935200208370325
P 5.2178941813155655 5.586171915905235 5.886233746065119 0.020541828707093653 1.4974894139999566 -0.7257350049235244
P 0.11283208567562665 8.087804729983315 9.001915177843461 0.28543641676679227 -1.1287279146512625 -0.3997579477302083
P 3.724874302132883 1.7857491164733286 11.947520197595841 1.5926523697570505 -0.03589671389660915 0.7051371261675147
P 3.194932954399976 4.086493748566182 1.4639673287815653 0.0798378953642496 -0.03931113889479681 0.3541031260055708
P 5.864925340432014 2.90303247150503 0.40150513525913134 0.16022574969469824 -0.25089493134649693 0.6037958095138504
P 5.225098693960011 2.3396395827092795 7.8789435540049 0.18218502757460883 -0.1151928778247758 -0.13226705969824318
P 7.006995986026048 5.064386264839113 10.23657746653084 0.8320588623934444 -0.3319039642007122 0.6712546144874568
P 8.55555182738429 5.223450602832197 5.771539788298241 -0.1378116436655562 1.6770711996237635 -0.7406833987032405
