# total energy = -340873.7185577377 ev
CRYSTAL
PRIMVEC
9.20766641544731 0.00000000000000 0.00000000000000
0.00000000000000 9.20766641544731 0.00000000000000
0.00000000000000 0.00000000000000 13.47635052419474
PRIMCOORD
 96 1
Ni 4.2926141184216595 3.3580451771825346 11.154671768146049 -0.56080233667146 0.33289126781464606 -0.4511527572624166
Ni 4.07148279995745 2.5957608836692523 8.83966368500794 0.3003472724403537 0.10230008102250769 -0.575818350464318
Ni 0.786514267886141 -0.3506362269030532 6.5931560367346895 -1.1713046116712085 1.0017971795642682 -1.4359210063688561
Ni 4.584405069543029 0.9454339876993085 10.756620662644083 -0.5833997623560017 0.31158093637264406 0.13303684798473217
Ni 6.039511020556353 8.768819899020945 5.628303080404426 0.7198865165625473 -1.133587556736409 -1.3677898579185732
Ni 2.9031035834950707 6.440016889944999 11.279139162247294 -1.6635546531945673 -0.5648795920646271 0.8667116765806234
Ni 7.403074351309384 1.8815498169090357 13.161003881350345 0.9578788809147633 -0.24654899567297542 -0.6155244108046883
Ni 8.935764100181613 2.0881053993169147 10.664550443093818 0.3553904773584266 0.5535094025544725 -0.7884128435687197
Ni 5.179321609237027 2.418301527375085 0.330762399547409 -1.644695354396219 1.0620173006975904 -0.35651456366054085
Ni 6.670751804560032 6.771759905973773 9.203107776000921 -1.730068063535769 -0.41266128605543767 -1.5735616716741867
Ni 4.553191080136231 7.80526522366601 10.305540764283233 -0.033503531074084235 1.681081349224421 -0.8504808165440578
Ni 7.198443171198268 8.83157014616175 7.689659287796358 0.8989828779095034 0.4736020874048682 0.26031828154292586
Ni 4.574690981394306 1.0830701864169552 4.4424246937746075 -1.4735622137603976 -0.48744233572207024 -0.9575184122515509
Ni 5.853930502416524 4.164102717197268 9.049436426088011 0.5579697523186713 0.798852807955121 0.7573606022486054
Ni 6.201114775151845 6.102399382694534 4.52279841458049 -0.3282054323032025 -0.7755521855559676 -1.6396521355453566
Ni 7.92380472207991 7.120371367015305 5.844666669159243 0.765495572650914 2.023829455228489 1.5536538770066661
Ni 8.556896247048417 4.362850198420202 8.911843503402876 -0.2379283438834999 -0.3601017667911669 0.4959940819468232
Ni 2.3600262061492363 3.6894290942181325 12.70919565657 0.7822838478528463 0.7059058860127391 2.17919427728646
Ni 0.7704855620574228 7.949309958261866 2.1856081420972715 -0.8935395954067449 0.3518778362194778 0.8001807827379251
Ni 2.2785751883638268 1.0363689019711495 3.3320546969764666 -0.8764769834975034 1.106125089650082 0.43241661430549394
Ni 3.3541411265900622 4.299602737288845 1.7289216956096338 -0.09125487895193961 0.5612972740300075 0.3851278565218593
Ni 8.608652540398156 7.988635901847836 9.498900378979574 0.7812060414076352 -1.1690515539709738 0.5882882007965546
Ni 4.450276991758713 8.212658427590434 7.73931991625259 0.32844094535277635 1.013739439527809 0.19372285301087927
Ni 5.005278297211274 1.233956217216131 6.675307757940116 0.21370289567723194 1.5979501278208803 2.0939730061231097
P 5.634474979253799 0.39239299444282627 8.991272517626712 0.32185943548051665 0.4082269044331679 -0.23223669281536133
P 3.2703145308497987 1.757043750608526 12.316427910100963 -0.19441062310652327 -0.006240581593073124 0.12724132434887764
P 2.403817867983671 8.18870928704557 8.94791914071728 -0.35975646763660624 -0.3918880580638283 -0.15134104561055872
P 0.37832275927688863 2.5135824602309995 8.412139759832753 0.22406598407911088 0.19998477476019105 1.7271172084375612
P 1.237823437142637 5.669086597596029 -0.045665421965491684 0.33776145142275377 -1.539145398977846 -0.4012561295422896
P 8.766867873724708 0.2054847307948963 11.777858606269456 -1.3600698635664963 -1.2055787023627302 0.0003437564926639241
P 4.261906550671904 6.22568082935165 2.8688998647784234 -0.4234552913471482 -0.7035037043291498 -0.021509591937001665
P 1.3659297010413942 7.899689843538198 4.464013909397651 -0.49622213879722926 0.25539821853348915 0.06691218844151701
Ni 6.982339238638517 7.869553151110926 11.155211337402463 0.2136267910236579 1.4118014876128333 1.1556609915966807
Ni -0.27953646778759117 3.8536662414302456 13.121167833040735 -0.3402564499304656 1.0875321571392431 0.07887398878908351
Ni 6.669223331922413 6.291276245438386 12.785404749821696 1.6121593294417267 -1.5291085835671343 1.0214362939514345
Ni 8.86103467893513 5.610636330706837 1.5318702665544681 0.21295496176761386 -0.03525830898166186 -0.6260327665351799
Ni 0.3625334527769541 4.023713426198609 3.636377282193014 0.23857163389445363 2.2636917829099077 1.0777542518168728
Ni 6.0755406195383 4.9480710652984605 2.1361224593043815 0.17703999303855963 0.32404127362318386 -0.025060799623369746
Ni 0.552831979227121 0.48104901125797633 8.761500724926709 0.734175936602026 0.43457428407844517 0.6398377907390722
Ni 3.7882273556738686 5.399918883044719 5.409797788423644 -0.8392803198425481 0.8730802991111287 -0.1413739070955178
Ni 1.465694767478757 8.661882060386564 11.05487907870921 -0.07543153876643784 -0.34922908574272116 -1.3108154974160584
Ni 7.760442303184506 8.266127346907624 0.38806907425833287 -0.525569738721411 0.4647366665944383 -0.03988552334102809
Ni -0.6858367216994523 0.9875406465657655 1.8283092477208382 1.1351721276147095 -0.9452753332181397 -0.33126530217544886
Ni 1.8058443830144348 6.875760498997309 6.7170985938459085 0.5109843847080684 -1.7296142638278018 0.49015099290248487
Ni 2.1988091735463944 1.887516384795645 10.307642874543282 0.046728000184158236 -0.4962185392528035 -0.07673971605490008
Ni 0.640446608962062 3.1304408691746732 6.469915103810137 -0.334028980963515 -1.215511645205726 -2.127853460920638
Ni 2.7661395444313164 1.9169532945695489 1.098991162547721 -0.8890836165179206 3.2432427494814657 -1.4242276291913278
Ni 1.0987324271193046 3.8885817127666993 11.013803678489824 -0.368695679107765 1.8340815277049574 -2.067236104348898
Ni 2.00991389546956 4.441953261250233 7.736570507038174 0.2881453310575231 0.5306438108102086 0.9371509043387924
Ni 5.253443324495059 7.527681701941304 1.1520448161061374 0.3725631324829713 -1.8517869154045206 -1.1572741017200714
Ni 6.709258265828242 1.6707402925820003 3.8567296320720272 0.5456829645315182 -0.7499707375424374 -0.8034548255035067
Ni 8.13069178048149 8.83122946250156 3.738447027553245 -0.043527748079305685 -1.037821163067361 1.0793290525031605
Ni 8.099008200083615 3.233382580551666 2.0399824511647933 -0.9382953023558809 0.4621714769704234 -1.827750700390923
Ni 3.2571015294342365 8.476319957579717 5.674230920864931 0.19660608809594526 0.42875484918319057 -0.7643848560852383
Ni 4.706065966897609 4.748126587431608 13.254287671344214 -0.6017119304016282 1.384239004613532 -0.5486325340781455
Ni 0.6410368203841786 1.7292550131366329 12.856626970901496 1.5631942123969336 -0.7765741990625787 0.790055264268149
P 7.30214911889407 6.998019894673848 2.0999657945248487 -0.16360880723431823 0.8112200712712223 0.9772166620114267
P 8.276172911050049 6.223314459063289 7.890605559777504 2.0568460193638254 1.978185946357761 -0.17623549485939324
P 7.282665696597674 3.7700514220192907 3.9189090038903487 -0.1770873013367273 1.4630263472260805 -0.3477928675168268
P 5.129176657523332 6.821895650020975 6.196196960478638 -0.5498697489193562 1.542268260877544 0.9375846494421013
P 8.18892106337488 0.9180494667864001 5.958245076867426 -0.5100557022462119 -1.1854040271870683 -0.5953998721406714
P 1.5177180831567547 4.991476005140244 5.464835694111017 -0.06321622764716855 0.002620982562614841 0.31875739951642523
P 1.1469805995357127 2.9079007777372365 2.102014500319248 -0.2711739933105072 -0.6010961511945002 -0.34081412220614854
P 6.707775831523081 4.1173646020854955 0.08040502687195474 1.1158960529939168 -0.7327438321411897 1.4083978612479229
Ni 0.7061534378133463 7.695500631418681 13.200502929066358 0.20451891518511872 1.4893937814760154 -0.5525861194092547
Ni 1.8995415972337804 6.050808827341646 3.457694227022103 0.8932158935187391 -0.4442562872528994 -0.2709253676348108
Ni 6.869978084440533 1.2435598133669543 10.743144321966861 -0.7321555637378875 -2.081054498289229 0.8582661169164315
Ni 4.3347207772881164 0.44191550790168305 1.5520304523380037 1.7482737879105181 -0.18402233789366373 0.9638525819996948
Ni 8.377061312799396 4.839586338693475 5.5515424479298785 1.6783418388060707 0.14766333964865536 0.49478669190228336
Ni 7.265742005585964 2.967741402266671 5.984982298825969 2.277871931065032 -3.1207641366285546 -0.7478878868714797
Ni 8.617197254902436 6.242190175371235 3.8755694384806563 0.22709834314753147 2.02695077446629 -2.3348480913397593
Ni 5.568594125505823 8.132975281771426 3.3056277733786934 1.3089681597946747 0.8563262195812413 1.0295239560555753
Ni 2.719383013986561 0.9678362402735682 7.692449210743337 -0.3742400059647619 -0.3827935519617279 0.3100408455790338
Ni 9.004352007878145 5.9710336048577215 11.635898487367314 1.045873343947876 0.6956492412817374 -0.052620454409193246
Ni 5.117363221414506 5.616326668598696 10.706138710336795 -0.15872499677945567 -0.7412572689288395 1.0450256512356002
Ni 6.674784762483389 3.478877384552864 11.47662151009427 -0.13623170077294602 -0.20824495788645425 -0.313036437872248
Ni 0.013414649311729978 1.8443324289496614 4.117294623820159 -0.16696255419789954 -1.1251304271079914 0.7897960970694915
Ni 3.8934801913402737 6.1047749606493875 8.484723794786674 0.17251485147469647 -0.4698989275216682 -0.5026889774684956
Ni 3.421099277317566 8.727772121801031 12.385548020920712 -0.8274745854568717 0.08775535043911337 0.963214948415696
Ni 5.660993058749842 9.292100793409665 12.9258548114192 0.6888952103873555 -0.08753192157439763 -0.4013378906228185
Ni 1.1057118383199986 6.060099362831752 9.258374031817288 -0.04160533424561222 1.4121994943822 0.23188856544732322
Ni 3.395041581146109 3.1262882115869255 6.453406678557202 0.9445402548243282 0.049329699473063426 -0.05404330289864886
Ni 2.7448698348355336 7.100630130057141 0.8039278067552081 1.1664459980273267 -1.3117758044467989 -0.002115760791422163
Ni 3.2485936455959235 8.188138411723086 3.0250361070111556 -0.602996967761639 -1.516799427182478 0.6784724723921348
Ni 5.210913112969984 3.6496335596410874 4.6831526888330615 0.11896931414807252 -0.8674819790877447 -0.20754947448132643
Ni 2.698610518381328 3.669816764590852 4.049145001048632 0.02786587317233265 -0.8711853960812609 0.34999604581573274
Ni 6.614216732301112 5.415461424082676 6.8589095485508835 -1.5278903948893172 -0.7588351299116027 1.094098240392535
Ni 7.244684072319489 2.245326304662367 8.722675678397886 0.48067879174599154 -0.6238465575171385 -1.5376690715426358
P 2.529668253591966 1.4166179050780976 5.5533342598291595 -0.4111227379237242 -0.33716932636470964 -0.5818344747514108
P 2.921297932482632 4.765961837425993 9.788655515039634 0.04024136401855005 -1.4634179262375442 0.9293283229705802
P 7.311062140058018 5.28133334629836 10.653728672666148 -4.113765058057431e-05 0.6132422996387309 -0.7214510328361898
P 4.211577445628375 2.5439677596535466 2.8887773752006645 0.2709863027797333 0.15511131128626837 -0.7822113427436981
P 2.202169971815858 9.194738927926632 1.13179807825758 -1.2294467672295792 -2.5680054961971774 -0.31725227572580844
P 4.755317774961611 6.9723765434945175 12.49438263885238 -1.351141964949247 0.8958818703866765 -0.22867082984097392
P 5.778363183519298 3.435214630049313 7.1250948999255375 -4.404541656090214 -0.8685477013480977 1.62351100700912
P 6.426767057863471 1.1670533124875773 1.492721110165139 0.9167605136078985 -1.2475699591928515 0.8240483333841422
