# total energy = -381170.9079756679 ev
CRYSTAL
PRIMVEC
9.23644589032657 0.00000000000000 0.00000000000000

0.00000000000000 9.23644589032657 0.00000000000000

0.00000000000000 0.00000000000000 13.51847219475295

PRIMCOORD
 96 1
Ni 7.21677684746945 3.7758590406514876 5.123460176597349 0.7480508948119052 1.1625497482967138 -0.06386003187875453
Ni 0.5446861395055653 7.105514621433032 8.324959148340382 -0.06870630422746232 0.014052364328008058 0.9382932454733518
Ni 0.6326882240985574 2.028378915071699 2.012657560685464 -0.6403934061322262 -0.27811108674997265 -0.3586866316111952
Ni 0.8992816063444773 5.8553801560854355 4.172057306636443 -0.4280989607667466 -0.8954303846715548 -0.48064433896363024
Ni 1.1802976986979739 8.956720033281206 2.0946199333736564 1.6961367008956465 0.42347663150338677 -0.01754649352419559
Ni 2.609185099499896 0.9267387887567685 12.027344109988507 -0.45064059351268837 -0.9890439936636579 -0.0004717974300959616
Ni 1.5357623150861157 4.099947450676877 2.6774682959669414 0.47604952050409627 -0.7976317910638263 1.289557616478547
Ni 7.856428428052222 2.268498796382405 0.3227749874334607 -0.20424920646349984 -1.6822823115110574 1.1480592679900228
Ni 7.810200016852466 0.9228059101376165 8.986025428496909 -1.0262594263716907 -0.8479894175807717 -0.6871735997105585
Ni 3.022386738547315 1.4726219716372566 2.103001084287275 -0.46888694131738606 -0.2622057283736258 1.135347219739993
Ni 6.178822014905235 1.271055015071363 7.220391992353283 2.4961796725041263 1.4268882067426265 0.4473079295950297
Ni 8.902779189843328 6.1225535871272285 10.659450502632883 2.4578280693091217 -1.6116553932221147 0.8673032874180354
Ni 2.5959585091226622 3.5470260961012414 9.549772821187878 0.48081763131670097 0.03048017086672815 -0.48135833431151936
Ni 1.7512393590180104 8.602271425930422 4.568621335874846 0.992653308281471 -0.153225150007149 -0.9923231786355621
Ni 1.5972955169667915 6.390973938351233 2.053036530763781 0.7270871480760446 0.8888743287205917 -0.5957945364759287
Ni 0.43293345819747725 4.4904089601790815 9.22093595437971 -0.2679511154978353 -1.1703733581061908 -1.1151892567348796
Ni 8.264457657454914 3.8355264804817435 12.217710952384406 0.0757027901499535 0.6341032022481402 -1.2189561521109007
Ni 2.7467250138206913 8.42072908384626 0.4563404591290306 0.5661080651550896 -0.8049735761408782 -0.9568928628524102
Ni 1.5818521795989604 4.2163081947916705 11.838910455697325 -0.5460028097647822 0.3434579875868988 -0.5084842439940339
Ni 7.117956113917762 8.918656640163483 13.235679039894645 -0.8871923130324786 0.4720733094651676 1.5119914642708736
Ni 2.7860907457953896 4.7319143083589115 5.52243122360971 -0.06165222559415834 -0.9650520016244347 0.2558494471382948
Ni 0.07988786696282496 4.475565991787871 6.236517473558437 0.6592833010581935 0.16375458878356314 0.17977513258153555
Ni 4.7540448324817115 8.73095358873462 1.5074849362873033 0.635116474004003 1.1361892560253142 0.48158407716908025
Ni 3.592571010312231 8.115104328963392 10.444993162316662 0.2457020742916478 1.117122212091534 -0.5183241129025912
P 7.173263951333175 6.394160512150216 3.978270208362967 -1.2887230363923934 -0.18069687306485652 -1.921194102353749
Ni 1.8674153742169204 7.4437717393066585 11.65536934674331 -2.42427722993687 -0.37485192851714794 1.8617509685957678
P 0.10840169877396784 9.064804921964434 5.685531154376678 -1.493993742141872 -0.8231415052991565 2.6508893774766022
Ni 0.5859120916632069 0.6252879837282788 7.7929260159282325 0.5347447203524596 -1.1408092712958289 -1.863701407453919
P 0.15972123889546438 5.701953554998689 12.933784885468036 0.5374623763939389 0.1528885926033367 -0.7388237197866825
P 3.0873374253718286 8.035670895133638 2.9864735900104726 1.4050456569462384 -0.5855818576089851 -1.3272623301181723
P 4.78223446504548 7.077232624411323 7.382599682456535 -0.4177189030840031 -0.03722751689289072 -1.096621263924705
Ni 6.200481480292533 1.7789302235088937 4.891037025566914 -0.7597116189792852 0.5796451804095759 -0.36871367682989403
Ni 3.493316163808217 7.197685114012927 5.441157889777762 0.14542699411896892 -0.2994625558425552 0.9623577426217232
Ni 4.196819294165999 1.8427633003923147 8.109853409529412 -2.1084586013337945 0.46609703727707463 0.0609603417334563
Ni 2.147501356478945 2.8793511389789956 0.2978495148133479 0.08522847025220161 -0.5622550099575866 -0.5593170103751852
Ni 7.63177959344673 3.1892338953729715 10.08035952618866 0.1735972859055978 0.3621576208789311 -0.9242305967326986
Ni 8.843702882543898 7.81036627287676 3.2402966623013905 -1.1273431184885938 -1.6451578958549344 0.9172068571166978
Ni 7.858137170524142 5.657692506753087 7.936599853900929 -0.7001900665748845 -0.11972701824970348 0.8035124182143194
Ni 7.875224595243332 1.089106269372259 11.299468770113682 1.1159788425157104 0.5076427219293451 0.785140600575351
Ni 2.876441658553836 5.269900330085395 0.2921210711318116 -1.502599224422696 0.6837720302281772 -1.930801029315894
Ni 6.929255526343129 7.2938642240674865 1.8425139163558724 -0.6549705326154526 0.15241859494545362 -0.37720500213035685
Ni 5.401824485363343 6.8059951572201 12.867084815810108 -0.43235567916057155 1.7785780953210144 -0.9705698461188704
Ni 0.6620601217239775 0.00774937802129794 13.179793924617098 0.24115225013743627 4.275458393436592 -1.4377670584386595
Ni 1.1851098869567296 6.735013071292002 6.094708473991582 0.41352054873193944 1.5349033358720403 1.422220368953312
Ni 9.465879107684126 3.995612558986077 0.7854830522929833 -0.8437941485525017 1.305887463986822 -0.3841202411929514
Ni 4.521683565638098 6.434255923342653 1.3577141204458845 -0.019761756007959513 -0.7126102946161083 1.8181026357781978
Ni 5.435047980884927 3.767537002990952 9.916150298281813 -1.205800588565549 0.8330109418940685 0.42872810971031333
Ni 7.049393976787732 8.946098120617926 5.235284902182632 1.169635708609218 -0.9975587160028884 -0.6239771695577319
Ni 9.342757285248007 7.486222444176606 0.5890136901608849 -1.4935103747475504 -3.1251391257677983 0.752381146756143
Ni 1.8493950684725196 2.093615931715832 4.758272353721697 0.25130913606578004 0.604896498777197 -1.817131273003864
Ni 2.636857491099191 0.6264804088803044 6.308949681476219 0.13034336031296906 -0.13291857723931302 0.9322822633925816
Ni 6.251235749931427 8.778909215297885 11.028964676718518 -0.2649930613107759 -2.229585071034186 -0.5652662859800844
Ni 9.092735934045967 0.7815658756316812 3.833608994334876 -1.3430920980615773 0.49649236173948047 0.16711296373283477
Ni 3.7965856250135763 3.973463561971688 1.7778144608569595 1.307375104275942 -0.8666810804530042 0.3227793761916247
Ni 3.420126567335315 5.577575575934567 3.549058114175956 -0.017393512886099076 1.3092813201597193 -0.8261671794993578
Ni 5.117027915746299 9.055891751773073 8.918906947844507 -0.5312426207364722 -3.4256632901056485 -2.696610276552485
P 0.35506837286357273 2.1670272028877937 12.002389080741855 1.3253028923989563 -0.29350968069322997 0.7240699585162755
Ni 8.755457879426519 2.0779693925405294 6.153811566983815 -0.3838317634182551 -1.6976153423237021 -1.9315106537884092
P 7.430619040495779 7.1359117645416035 9.681253627067706 -1.4148816692000536 1.1333065351608804 -1.0736769964237056
Ni 5.262594301462217 7.5221799276532595 3.8778552642672075 0.4454320527285555 -0.2269726162029446 -0.4345693989824387
P 2.63483470947027 1.333077748579129 9.934347020140883 1.5207345005708262 0.16779919116658198 -1.1933867882822287
P 8.360710659075826 9.358274514182193 1.4679982068727015 -0.9541572090888019 0.6718058590052366 0.6920435262083501
P 6.001195925837796 4.139128453735692 1.022497640527694 -0.10686276069252564 -0.7023811606889323 0.9319107389857757
Ni 3.701607252912257 2.9878147219397846 11.58342482316346 -0.1902338660210143 -0.26377641529485535 -0.4768892427965722
Ni 5.672914169421858 5.522600250567743 5.837236081967392 -0.8588741828140757 1.0061107193379577 -0.007343327738948643
Ni 6.143003078115492 2.3829845420009845 12.193269469523907 -0.7081993100326062 -0.2520714681531014 -0.25400030974469806
Ni 2.9084921254595617 8.197031603157566 8.152138782019644 -0.13818496784457493 -0.38626119879535414 -0.9392394114367051
Ni 6.789018569850439 8.088882059353779 7.401769002057728 0.7185847670319883 -0.9794342384880358 1.3502670185434618
Ni 7.452980475763434 3.212223408954629 2.7838185801300273 0.22655326927733888 -1.0170870158438032 -0.9099324349424716
Ni 4.864457305505067 9.08403520210787 6.339892698531225 -1.2757646764595125 -1.4856147740495576 -0.4183997312011116
Ni 0.5755534177050595 1.85728299318073 9.717659078165374 -0.3515212242110075 2.7744213712946926 0.8226249706740542
Ni 1.7239918439252466 2.888993988388096 6.909115456288968 0.7769241262028297 -0.0457034155743858 1.654432636288641
Ni 5.349195217228234 2.098926888047472 1.9894463724047466 0.5053734662791942 0.8135556613829343 0.26896747257749165
Ni 4.108435744361708 1.7388071029790748 13.627701508736063 1.3934774924926645 -0.8986460633953749 -0.9367426131567802
Ni 3.5629497286503686 5.91017998898217 11.383040131659218 1.0971761079869105 -1.5589634621450377 0.6365778890408779
Ni 5.140146739569073 4.419768622745367 12.496570334644966 0.2360676365256773 0.48765959393919894 1.352469168401103
Ni 4.286523655718854 4.250224423747816 7.9348837222723745 -2.8043862930878993 1.7237827447476894 0.8769930039019734
Ni 5.716325464654398 4.730085492091668 3.347660184568095 0.567656640589132 1.4106907710471577 -1.0797774528944888
Ni 5.5792566090691045 1.445208200520198 9.990177640388248 0.945913481022771 3.64082528682691 2.089974426486678
Ni 8.069134538245871 6.4690773239866255 5.751772172678636 0.6123218447069907 0.9379512887529007 1.076364570558198
Ni 8.444928571826953 5.383009845280645 2.480423503261867 -0.01580739934590181 0.41865427041407893 -0.18302654963929768
Ni 2.1873473836349397 5.294025926499733 7.6298528708540685 -0.576964291143303 0.5856597620347721 1.7524898828743944
Ni 6.666007584763853 5.566972136162875 11.098395039753198 -0.7029894836968924 0.04920551519037332 -1.2997402134385037
Ni 6.260499905062966 3.776542537640255 7.438147667462596 3.7925576543386166 -0.930137963356069 0.2904986617810481
Ni 8.546538712008477 8.084836496095937 11.671240331551411 0.09734839344418718 -0.14285177719262496 -0.8427626219641938
Ni 4.293136950907471 0.5853015625962131 4.144844890037696 -0.8167880522773029 -0.27746882518028343 -0.7634109222077433
Ni 1.1511659486632015 8.917354301306508 9.895021004883102 0.30888950558340994 -1.0136131983625898 0.6651323036398029
Ni 6.5671591418747814 0.4090480093737866 2.8373382416396917 1.3020374941131123 -0.6126370619545644 0.23620699031701903
P 8.319977933123594 2.8978979221336636 7.947630941112891 0.014198402987569097 1.219058739127036 2.012981199660075
Ni 4.8308735885975125 6.370108807302231 9.390119931991288 0.8415997120043441 -0.28477230082023214 -0.27175223441148033
P 1.969117878856386 5.926768645628477 10.013632670837929 -0.8088957940134199 -0.23520271742222074 -1.4408163867879444
Ni 4.205907956827449 3.171684648364073 4.031519242010863 -1.1769067883493345 -1.3126659203612363 0.1491790049622334
P 4.47803212281491 8.727489921561812 12.227282681160892 -0.4368090869462348 0.6565178224979145 2.216811059197969
P -0.08922591366071796 2.877660869398665 4.090027507893952 0.24595789905619575 2.233016722423554 -0.17101152745629258
P 4.627477815764374 3.366398162150702 6.086584096271042 0.0207940539272158 -0.7508317999911521 -0.8417874025351181
Ni 7.217561945361953 5.551833601506251 -0.15487395214269067 0.6395853084086339 0.2990856321191107 1.9544731761218532
