# total energy = -340872.0510596449 ev
CRYSTAL
PRIMVEC
9.22670692393098 0.00000000000000 0.00000000000000

0.00000000000000 9.22670692393098 0.00000000000000

0.00000000000000 0.00000000000000 13.50421823300239

PRIMCOORD
 96 1
Ni 8.517708211597045 3.059659020817113 6.091564107529247 0.6396161616465694 -0.09379641442687071 -0.5629412373913337
Ni 7.71786345106101 8.888142036878522 3.4716646963324305 -0.466203480947952 -0.46472895328495445 -0.42870059890648743
Ni 0.5391210926598926 5.162333237301019 12.331957764025761 -2.55058267273504 -1.8513606265003792 -0.5172614759660318
Ni 4.133924495498851 6.1111616328081615 12.214457498054989 1.064911848636566 -0.056128210452135584 0.7717986320508062
Ni 5.739832816965453 4.731824323935261 2.777898461398633 0.869002272387013 -0.5526496256573386 -1.2699904929798966
Ni 1.8290008655903651 5.1017968138758985 2.839896395183538 -0.9506319695443627 -0.20266823512962515 0.6836666149985645
Ni 5.494439322465449 5.358714465190104 5.246158791402463 -0.16429966265375576 1.4934466113891505 -0.46685139894459604
Ni 2.655317047983841 6.159814057853225 5.142123058689469 -0.6121061291517588 0.9104145167852128 -0.8386830525781814
Ni 4.629020356582312 7.668260675213814 6.051226790667497 -0.8223758307777257 0.6682430813546427 -0.5056663149292646
Ni 8.806725575926949 2.31475929937521 10.813718842720487 -0.5589280024668826 -0.30525807947840977 1.6300313246261409
Ni 1.1168005931072538 5.0552942115191515 8.018426193630795 -0.3584385201561311 0.8522957582656097 -0.267132733361598
Ni 8.522173937696381 5.702427747530086 6.468385581940005 -0.15390237857983172 -0.3001675523293798 -0.6693401710735634
Ni 7.332685348286262 7.430756015042186 10.254306376429055 -1.9651931336425186 0.059085236197930505 0.08688400357775358
Ni 5.812280918891082 4.234357199199879 12.477276551049227 1.2749486083161203 0.7442052958135699 -1.4766562793046891
Ni 4.7503238711029745 3.1706563038233937 6.032725398158419 -2.5288915609148512 -0.11842912537388636 0.026648970046096038
Ni 2.9025558838472083 6.663047874349117 7.359339458938677 0.5412367558347065 -0.9174534259098651 1.9000472930728052
Ni 4.691153000286742 -0.3860647892998432 2.813725763968325 -0.03430108727471512 2.3442099921706334 0.7290854094529959
Ni 8.251434679570588 7.802001790523543 8.172725334399068 -1.2048400244244928 1.0814088178503247 -0.9648648253142933
Ni 2.136665404397052 8.58996255267952 6.11011809226718 1.0728750693477007 0.1478109209701132 -1.248395026197308
Ni 1.7720074975829008 0.15813376012134245 2.0532624334678187 0.4613250698097281 0.6168001921933184 0.07754909933007288
Ni 0.9542167922881616 0.5037458987242249 4.284226626874081 -1.6082993322656882 0.4694289298637851 0.4732719577589591
Ni 7.316409437461401 1.7790105680568633 1.911521763347911 -0.10988637801019785 -0.003239332872904099 0.049945478680191405
Ni 2.5195921907084964 4.299036413985751 11.569117633849242 1.5275170707102983 0.6503088654737252 0.4150205303162336
Ni 1.8784929209557595 2.4423369745313073 10.39873386357402 -0.8571677416459303 -0.23023303212177124 1.0971884492820845
P 7.838355015381793 1.0854297899300838 8.265432516482377 0.759417484777634 -0.5017124724878391 -0.2647688611151118
P 3.023656410817902 4.491477838064054 6.552003535138071 -0.19785692978391087 -0.5346922698479695 0.3756579693582111
P 6.478319977169669 6.445952689656283 11.990124884535044 -1.0675585422307938 0.06852041346890135 -0.7276368499319276
P 1.2056630064599965 2.4005953528920374 3.255111119329744 0.44365464911315855 0.17415521529159683 -0.10491592137879996
P 6.3960915660182165 7.5194246675517755 4.695659323896075 -0.4849375670223455 -1.4429198062841924 -0.9007998765135841
P 1.2391374987914001 2.9892777012184504 12.939363868495535 0.5440413151630372 0.24009167008340587 -1.1055561045204896
P 6.768518359972126 4.363549548048919 6.527168931069932 0.3646055681987914 -0.21193294826100273 1.776655681487321
P 0.739899769017871 7.2115848213155695 7.293047415801226 2.19918974657178 -0.641564800732508 0.21339359196692925
Ni 6.906512987124406 0.7192596258686564 10.119966447846913 0.25251884010316517 0.25919650923365684 2.108566073445936
Ni 6.484704858286905 3.1752973373522515 4.599955307438663 0.7989319979324885 -0.6401514653247491 -1.538109244403848
Ni 5.913534799498807 8.892183334464287 8.443282826400571 -1.004359798085122 -0.42425079066525007 -0.9709737664255084
Ni 5.008219553339763 1.7400092783421874 0.8402826485020884 1.844895587601326 0.2527096159577325 0.8781428012357005
Ni 0.2257581397231409 0.8291773841773702 6.691961605500969 -0.5869278301139181 0.32942927740797456 0.858778794886792
Ni 5.37219468384947 5.603563583987916 9.977213607989201 0.6093537632176022 -0.5133662546766836 2.8246123903267875
Ni 6.1921813453666115 6.64513883641768 7.533530456933321 0.26421941636954493 -0.8501285754109618 -0.46895250444799885
Ni 0.20447858579152112 6.722735440747091 9.999521939730897 1.0420783956818183 -2.248775785030024 -0.8344067938003306
Ni 1.9323215285250566 4.523420697063867 0.7141074327821471 0.74771253763588 1.0435308118576287 -1.5109902766998686
Ni 7.594806862245152 4.688781736634821 11.118212162394235 0.6124262314953389 0.7843314744104944 0.5990621514836071
Ni 2.614359696424001 7.135556757145016 1.3843308026021601 -2.1400312339337533 0.6628622766587037 -0.11611410408746456
Ni 2.0184897434872893 8.694473460793581 8.4557877821494 0.18968467838576364 -0.21357948272549024 1.2768229425206978
Ni 1.1472118187754752 4.153503567364131 5.220704152636234 0.8967586165646748 -0.45385524379524417 -0.22890582866991543
Ni 2.754088944457843 6.455585371573038 10.288404594141275 0.41501898765433687 0.4933975248642406 -1.4061283484874558
Ni 4.813489905970889 7.517367111931626 1.0525264307506408 0.39077168507119797 -1.8577963548233942 -1.2854471938545993
Ni 8.654346512847253 8.73262589348111 1.037162118559281 0.8081159784246018 -0.20025988279844864 -0.3013584873136875
Ni 1.299692375630155 0.8633835543593474 12.262180793723598 -1.065405757553849 -1.4104804548085643 -0.29550511385670397
Ni 7.6496596342711145 6.4134746816610955 3.157367077995136 -0.1734767011673335 -0.6167641967490604 0.247921964761102
Ni 2.343546624643672 2.1340081128338095 6.415354161839681 -0.0969951238698265 0.6225059843288441 -0.07043665665500773
Ni 7.096896855582562 3.0840359802271373 9.482405620158426 -1.6457561915605656 -1.7062884446176678 -0.6701153586766911
Ni 0.3334928591989963 2.8673006371001595 8.370224839154352 -0.45093678459686853 -2.037698242790781 -1.3484366502029421
Ni 3.649494707495627 8.494493817245937 12.513900118417212 -1.6292497092651101 0.7986386350617859 0.22749557858595015
Ni 7.008458870743393 6.323154448631296 0.5406970141842046 0.17818002018027376 0.08957954813204573 0.5446714925478684
Ni 4.335011343864511 1.6498182192078235 8.069432351584828 -0.18135327570193283 -0.08845469049898315 0.1527456392675692
P 4.402403210454525 3.2466197810462294 10.572830749159133 0.531444195224317 -0.11066387960617069 0.829358689853462
P 4.542492300054223 7.089838424867699 8.859145265365319 -0.9435300683922588 1.7828990912938714 -0.7757802424063737
P 2.6606593112307766 8.173266019418534 3.8321456729706096 0.027967174636887318 -0.42156398786170624 0.06454780197439851
P 4.6760950147617 0.8884645114994948 5.92782512301669 -0.055625302673788075 -0.11094078741664119 1.5169542075927873
P 0.34318736005142353 5.8227440044213505 4.156895304789993 -1.6610041188585716 0.12465196635514661 1.1859424161890413
P 0.09136008288805432 4.233877410445404 9.870718957909526 0.5578645941993747 1.839135288078781 1.3126813469802037
P 8.03565891395256 1.5917545532096085 4.179393706692114 0.36614514477176946 1.1381918882776396 0.7130386404027784
P 1.3401699384355212 8.28891356266049 10.79196319071712 3.096962920443899 -0.20787806146533874 1.4252545277939455
Ni 3.220535880875094 1.0317949432039397 4.361808468472586 0.4648729350619864 0.6547483893023176 -0.05819794849697074
Ni 0.5693431708383692 7.551395206672039 2.8558853554263965 0.4533662199739676 -0.6923854829288011 0.11871554626605361
Ni 8.63173185443924 3.534991275898957 3.1966101074284117 -0.10861805282073553 0.6387255315114999 0.9046668156681581
Ni 3.6887358915875406 4.350530664730393 3.9300115068352004 0.027565311212778332 -1.5646700256115116 0.5357986155382708
Ni 4.254480646767352 3.9494180392830067 0.3787701548904695 -0.8012344208134201 0.31726821656540843 1.26742607468683
Ni 3.2756839075191957 2.13942418973528 12.635855961109822 0.67258464615279 -0.36178198270706724 -0.7277736326201079
Ni 0.45749979881698616 1.7839837630311262 0.9976865761142208 -0.5787468369650226 0.32938916819865854 0.8485974834784159
Ni 7.550823150849396 5.1454852706535155 8.83393236631769 0.771504240738839 1.4394472743545597 -1.7587350924531582
Ni 9.09204303082331 7.985115014010048 5.564925826521823 -1.3468572215309642 -0.8498241567966656 -1.4835730610291804
Ni 5.127161030915322 8.418299672352681 10.749897711668579 -0.33043535007498576 -1.158288916137831 -1.7428184212229016
Ni 8.772457586809297 7.5082788057170635 12.16215498779319 -1.2325488031936707 1.270039343939961 0.901421826368299
Ni 3.3399017869642265 0.6680920005453287 10.316884670072737 0.13679220126210634 -0.40604146674607494 0.08740233797506883
Ni 6.011540879307013 1.916267058663799 12.029259961498564 0.12971806802414435 -0.5340857466122221 -0.35182821392846503
Ni 6.584879214197063 9.039893683894674 6.115317341558455 1.3663371846324468 0.7406425181629761 0.2372850538725462
Ni 4.381357092205371 6.6080290216004505 3.498889017466124 0.09905174928853909 1.2899170567004945 0.3195485279591529
Ni -0.018216287268437305 9.385221639927597 9.785116340075165 -0.6324664379756657 0.9663527227137293 -0.3996070239746408
Ni 1.793653351775148 6.889360539151949 12.433347277223692 2.0895689635181434 1.5116651912797063 0.6371311904411866
Ni 2.9550097121008005 3.978943501096814 9.094253749776618 -0.16476348966405172 0.5185490844292038 -0.6746970645101026
Ni 8.806707122513314 4.721315104870909 1.2005412615059825 0.21588113427547337 1.1707752215302998 1.0664640236150342
Ni 8.299496595379376 3.194691875081196 13.106140284892188 -0.9421912949761774 -1.6400915370756206 -1.822167549876191
Ni 2.7685287406261576 2.494929203387151 1.7730362753929756 0.4697490322073652 -0.23245549369438676 0.7298688245862398
Ni 5.9869424789333845 8.620613672724978 12.838797377545662 1.7650111552698569 0.14637933072990922 0.11127760193076965
Ni 6.591107241298412 2.159326196339149 7.022261101470666 -1.131162235124368 -0.22870065463764483 0.3585650184316663
Ni 5.003310945313218 4.302671736471575 8.232819798567665 1.6064530230855687 -0.6834159324403392 -1.9558273761569025
P 6.6073185651755555 8.60899724884261 1.4737560450707283 -0.6101135242017621 0.5680821581623249 1.4475814734259198
P 4.593128467064902 2.441183636179205 3.426209325199393 1.0673855069880391 -0.10808326336318805 -0.7503605167816884
P 7.981322837508337 0.5241848996648328 12.698893744752983 0.04004236063386652 1.3787386436205933 -1.1601236553537246
P 2.149130685306569 1.6553819234183627 8.508156724700278 0.4916530313693081 -1.092288440877306 -0.9942800452516166
P 3.4722219894241664 0.4304111102734998 0.8274787474523946 -1.054856521283093 -1.286073257474372 -0.5735246693341348
P 3.8070038195654714 5.471363328716595 1.7521313257581186 0.525695722776314 -0.5865863876140995 0.20576718576992303
P 0.25827397721627765 6.649521522155667 0.5929921430805469 0.7888152212134609 0.5633441292567072 0.4445157115618732
P 6.783142690276778 3.897969922072448 0.902681021362843 -1.3103917796150786 -0.27894566683612604 1.2998615695077163
