# total energy = -381172.78891495767 ev
CRYSTAL
PRIMVEC
9.18117941803014 0.00000000000000 0.00000000000000
0.00000000000000 9.18117941803014 0.00000000000000
0.00000000000000 0.00000000000000 13.43758412612529
PRIMCOORD
 96 1
Ni 6.2181558598049085 3.170711188455695 0.7015807560958935 -0.9673050593246695 -0.5644723293238794 0.3694970919631378
Ni 4.808358191009177 2.7795929381401803 4.100747236161939 -0.9907980002402871 -1.1712223363700474 -0.22956480241015303
Ni 9.216343502681287 2.0468246331124376 0.24296339159036434 -2.4117857823380784 1.6829127460062048 -2.4408515893557836
Ni 5.659168921959608 1.870683702776683 7.875486393270395 -0.061053672778210985 -0.5035472117037327 0.7442659738481762
Ni 2.9325054841262106 1.983116427973016 2.052040461234603 1.3414424782732963 -0.582962417708267 -0.503173887524714
Ni 5.521038075105221 3.7566540695621766 9.94727924426389 -0.5590858682009855 0.2925532303172317 -0.021395434956640574
Ni 7.809226738324338 3.712722125248568 9.033039416033416 0.7174059162325387 0.44953887580807744 -0.22637560604889398
Ni 7.96773980385714 8.352458772001999 11.398457407566594 0.03498242961245588 0.6403481547165875 -1.3888505352436145
Ni 1.7390072251704598 9.175450528810272 2.781539348212173 -0.6590655286204327 -0.9258899867129925 1.268031569481313
Ni 6.662974829512334 8.741869322914727 9.412544392292027 -0.4514641178552483 -0.3117012640005922 0.46134203909059257
Ni 5.236871385773871 6.116263128772007 1.2474367708989107 -1.4405849875034287 -1.5505970924582133 -0.2134794668125162
Ni 2.0652237170005194 2.863086585284999 12.845846498054625 1.0960250251016026 -0.7254347000742861 0.44357263092231347
Ni 3.5312836542923427 2.6955943261181936 8.712809053292693 0.5127856995828654 0.9112331560317661 -0.028114498848029
Ni 8.482087846560797 8.561229614582386 2.3691666671576814 1.088895356035357 -1.2411136620445464 3.1157101191444148
Ni 8.56447975215543 2.9310364953926316 6.609571580338972 0.3844945938132346 0.541519320072132 0.47404097471449974
Ni 7.106278904588257 0.6774865865113161 4.262522374801246 -0.3749437169000059 0.20009353242391345 -0.7807584123472553
Ni 3.441060202511813 8.041914553723315 1.860406290349378 0.886353619181267 -0.518607705581281 1.0295416966673883
Ni 6.297361896083593 5.984907992451254 5.637254364408479 0.4747189746181309 -0.01633010461859123 0.20515474899690475
Ni 7.690881333475347 7.912212029727839 5.2938167340310756 1.7594125781361571 -0.545916420698563 -0.05569446534882666
Ni 7.034225007206187 0.9174339606080502 12.662558019412048 -2.068537853879457 0.8440515159789463 -1.0136383951735706
Ni 5.902993508195033 7.44550512789008 3.2019207722185477 -0.9127261956375249 1.7091523964290243 -0.40826238565679374
Ni 1.1729783225835637 3.594496075734181 1.5560455965211044 2.423637796580658 0.06679108948262047 -0.6278708481851832
Ni 7.182960116481101 5.518155184715571 11.059884884251217 0.010439964386401374 -1.3741929332314398 0.07411693372007236
Ni 3.942380151384537 8.804466605324379 8.87075380380919 1.30795103138407 -0.787105951831838 -0.49065132957767116
P 8.757137624564368 3.1863926431866547 10.90625253378573 0.41117698820042736 0.9488016012038434 0.38231224144993514
Ni 0.2348160128267496 0.9586528663543296 8.683138235228265 -0.219695365815241 -0.2412574082567329 0.33317768870681325
P 7.687768913596076 4.456342584545628 4.848374362229837 0.3507313813198605 0.0899148199842774 0.41928084825448436
Ni 6.245607586763674 7.201230663854996 12.510820664412881 -0.5560969607759906 0.3916168066803126 -0.45021250483633424
P 6.949427632560316 5.114963683245951 -0.06418654459579326 0.12730071683190333 0.20067537306931243 -0.27209701934540875
P 5.190212631123555 8.594548115295883 11.250496271730686 -0.7210879930698162 0.4749927971048077 -0.8477886144238754
P 0.8714711393702678 8.528370172848131 12.082847323007776 1.4870805599618067 -3.337262849883369 1.0014518804097075
Ni 1.8856949313979474 6.614186041198329 3.189195657313916 -0.6193265581595979 0.3027895633332592 0.5377706516629771
Ni 4.129859838507607 0.28698347522798795 3.7682884603321254 1.3455894105621344 -0.07756915393473093 -0.4553274574653965
Ni 4.792392119711085 5.525481766024298 11.694192383174881 0.283320398865054 -0.8643935699704081 0.1672741719010474
Ni 7.1566927616887845 7.14667609476169 1.1678579787290808 2.152149871574158 -0.15170588514914518 0.36339843526456767
Ni 5.49361389168521 4.7124240455268565 3.291469407299589 1.9424093029787837 1.6196319836696882 -0.04466597544880695
Ni 1.6912650913291296 0.5432953838167967 0.40140484392240416 0.2750990393965262 -0.3030937248372393 1.6027354650246657
Ni 2.4467109099315043 0.9853884613054746 9.941662198593866 -0.8261939189722353 -0.7705678449674987 -0.6464172437288028
Ni 0.1719249326703817 1.6162273105819769 2.3079052463776284 -0.09894299162481669 -0.06215127671776392 1.9824128399549148
Ni 0.4825921787555035 5.721527493700053 7.804401110334529 0.6111298812814184 -0.7442798578052472 1.0828144399485997
Ni 4.37530031234997 4.683861395838322 5.6253895260309505 -0.12137149583166194 -0.7934586335227433 -0.5710155297590359
Ni 8.574266889592902 8.93417831049944 0.24423865743470297 1.3672108454866518 -1.411245872219679 -0.8525749800689252
Ni 8.668383161517417 6.569032999999933 12.682889741602745 0.263521618971572 0.9125503321812929 0.03904297283507469
Ni 1.7866942719342809 3.0773202297183846 10.553233424393557 0.43570145570435287 -0.8081188066380792 0.29879998255789186
Ni 2.961692454026516 9.702211526312674 12.08877377442981 -1.5348400867342726 -2.9434480071104727 -2.5021070937321555
Ni 3.7241710561909023 2.351043018657146 6.2279310617089205 0.027230039360546653 -0.048335453880594174 0.5127286210926847
Ni 7.5048889974450255 1.4507824544625971 10.246493886934843 -0.0672176354970778 1.096223514265654 -0.07576115419171468
Ni 7.161457793893333 1.0095074200749312 1.5217933698438253 -0.4750269927768529 1.0454781653919867 0.815202452957738
Ni 4.510520725275954 1.5385361689347965 12.867346984406476 3.306166899809513 2.0932926922266337 2.0404601218066345
Ni 3.128606298879475 7.466851370424904 10.69408649099486 1.4045198663497553 -0.6501620554832157 0.8660141362929666
Ni 1.0376660978617314 7.954941239515829 9.932820722653634 -0.1575237773825029 0.9318122657346983 -0.10050802211909142
Ni 3.9224202669670265 3.8606217471812583 0.7576125769844042 -0.14094067621284112 -0.0027410530802468923 -0.33840576987497206
Ni 1.88443710979482 8.095385743625604 7.623759565766271 -0.26341080442532055 0.03069562931164391 -0.28632884667407466
Ni 6.137600190127248 8.054391776779156 7.3143593224638614 0.09298728826201405 0.7154742464274646 -1.0125618742799403
Ni 3.3133316321270843 4.852905274354971 9.929756963026163 1.0220219912515753 -1.0034288016304203 1.0075718772645164
Ni 0.1262145938711833 5.770922239866661 1.5178151647297007 -0.8562190045794157 0.5652796557165232 1.4307471754774006
P 5.3737260486659615 1.7212140991349794 2.311116822996416 -1.062950354034821 -0.12180755492781602 0.03519300296136519
Ni 3.0218199991278376 4.635779558352351 7.430742709235565 -0.32400733506145485 0.15496938639176536 1.554673319410116
P 2.9626840214216825 5.801192588957981 1.077343483555711 -0.29036907818171925 0.19888897059285102 0.44225211233867706
Ni 1.8265038666142828 4.032318986597935 5.556897926327811 -0.4126322325897152 -0.2791487839858676 0.17696440260561783
P 7.325139863532417 5.920355118790025 8.26144023006942 -2.241153749708392 -2.0154024075070582 -3.0879568602905465
P 3.93750494502497 3.180268796403545 11.620675005766985 0.22404490103318833 1.1019056522520958 -0.6742198677633678
P 1.0109947711676806 8.003876926703192 4.882734008708259 -0.015606339078689252 -0.07763240307249857 -0.09947341020698998
Ni 8.320352186993704 6.860269197611633 9.567613597362545 0.9503116100904665 1.0696187671939321 3.7874714980649613
Ni 0.3926762964910671 1.1452327978780827 11.390583627954609 0.06944266817285459 1.9270405338321976 -0.8562668270982158
Ni 1.1285138698540322 3.2090885191204563 8.289376723310266 -0.008493896403624081 0.38643963335474735 -0.5352000627223235
Ni 8.496676740921156 7.9063085312547665 7.596333546110344 0.21125469124705554 0.23289412389370212 -0.564935385003227
Ni 2.533913753628611 5.23726617649602 12.342488327314058 0.20774693520411316 0.29893779368733675 0.37676508637946077
Ni 5.98090499815225 4.329320964988935 7.646536236080419 -1.1698524526057144 0.6396598704003112 -0.7988540935067017
Ni 4.384665115526539 6.656437829647906 7.337753886164072 -1.3096379321681897 -0.8950300639093426 -0.531246220280898
Ni 3.222300236543086 4.598366251544002 3.081640892831025 -0.651796248652529 0.31502955704287683 0.16285933066280336
Ni 2.335021860281546 6.344479709713151 5.915439515240285 0.49971935331721035 1.0027865400607312 -0.16128401575588353
Ni 3.7797906421160525 7.3790517500547805 13.155784758480706 -0.5855887995875205 -0.25449447577229717 -1.8398613676115283
Ni 5.382108465626949 8.637167150928855 0.728899355950678 0.5505922289076776 1.674656676645 0.6946742789629777
Ni 3.9278096193833463 -0.2385610159794186 6.5237321418102185 -0.04137522051267713 0.5054218030186264 -1.1137715504517465
Ni 0.3981666418828201 4.608281925495662 13.057569089871548 -0.6109445047434897 -2.0749170179329233 -1.5650397502461046
Ni 7.441300147640208 2.7866899899592856 3.5219509852443207 -1.062118859272461 0.5136220794412315 0.22036616663002048
Ni 9.33670876703895 5.981106984103118 5.608161960657898 -2.0608541120819543 -0.25391263512689816 -1.8542698297273743
Ni 7.703900246126695 6.282047688536028 3.37651559191221 1.7918311036761787 -1.9159796480323452 0.5391698460033488
Ni 6.772800099706564 3.133261156929005 11.881135889410196 0.2705175906734309 0.6522631609866186 0.08436535092095793
Ni 5.436029533328898 6.6047661509442515 9.419074965330745 0.2973419099551266 -0.37877414638968965 0.8347965730395815
Ni 6.392956337921271 2.6187570341724062 5.892501256165443 -0.29400667493430654 0.35579002678969046 -1.1456295755026076
Ni 8.078565822626121 3.908281250406325 1.7282753443537038 -0.33314066482129084 0.18694053998172322 -0.9528582877717204
Ni 0.2288868070508398 0.4566388203049895 6.277192680771548 0.07341527966735745 -0.06926320517219683 -0.2775870959257025
Ni 0.2815821872782082 2.1075030489888515 4.606417227921975 -0.5089547558725492 0.3770000852084024 -0.25580162461949496
Ni 0.8912887155042124 5.096729860590396 10.444912949533288 -1.376980523278906 1.6515221475100654 -0.27008744511454774
Ni 1.3959708123409158 7.380484014070021 0.8327192165784434 0.6294991278172256 0.9681656075527519 -1.3708810952493873
Ni 0.47433095336503633 4.366752634156454 3.504065129295033 -0.688972086371878 0.9067710064953545 1.7553070406082156
P 7.512022773982471 0.8894295266382759 7.462535297902057 0.7086808776547149 -0.22215771131280448 0.0807794333419125
Ni 2.252923752433627 0.859263842994223 4.956506622908617 -0.0965608645458853 -0.13538812182572812 0.9874828198241252
P 5.629816690826775 8.51136662825695 5.146501035119983 -1.0377905669397416 -0.37505813099068314 -0.05492596261391831
Ni 4.980597120021361 1.4174731349286844 10.069319155777832 0.05331156693894689 -0.8717623516306534 2.1991380673982386
P 2.2122694892318173 2.8373150141902657 3.824175218583195 -0.4539637443486504 -0.5670655439723524 0.45965642385805355
P 2.2826432307498554 1.2856405772695183 7.681702908244352 -0.301855481554764 -1.0057661915143452 -0.7753210433817679
P 2.3964347705247495 6.2881164482416265 8.886999901084621 -0.9715867174191589 1.9483809471811862 -1.3462915788354815
Ni 4.158431669375727 6.735184806947347 4.569759532193459 -0.015166166217477108 0.7197461343299411 -0.4441688697454157
