# total energy = -381169.9687437328 ev
CRYSTAL
PRIMVEC
9.23881463264537 0.00000000000000 0.00000000000000

0.00000000000000 9.23881463264537 0.00000000000000

0.00000000000000 0.00000000000000 13.52193908856844

PRIMCOORD
 96 1
Ni 5.232809038369676 7.938063235556049 7.8939728416362485 0.5626206208271214 2.3627838985180794 1.4849432019038296
Ni 5.315496427172185 2.6276204398559275 11.340417390538096 0.45362564428294133 -0.05627604888390953 -2.2788353234195653
Ni 0.9802844009933271 8.699332302588227 12.892330334959722 -0.2612955578545306 -0.9723012269876804 0.0684435374843789
Ni 9.115189815971306 2.0757952950754697 4.187284749551889 1.0837156116066304 -0.8500061909004846 -0.2680578162790287
Ni 7.531195088575745 7.9147444680323025 1.9759883832058038 2.9583046125073307 -0.4247143605652298 -0.9957908254691883
Ni 3.7193896141095766 6.455778615794771 7.816018497446423 -1.8280042111626258 -0.7301524172649295 0.408373200203045
Ni 2.081791285615451 3.3990799191617542 3.074118481167892 0.9871889427327902 2.6219068742013234 -0.9751096429707529
Ni 0.7235432923465719 4.666645253653857 4.3538208461259 -0.6199986445259581 1.9058790692632335 -1.1907280105031428
Ni 7.262742858806526 1.4061937444341865 2.1072322088048887 -0.3729917353799576 -0.1567251927406075 0.5058488632537159
Ni 6.286412670372693 2.837711079115041 6.513260671174821 -1.158161132310715 -0.39993355407612413 1.2356089301762334
Ni 5.8380437691464815 3.4639733514465396 2.408433263947098 -0.9333222746213217 -0.984423207062195 1.5374620977381521
Ni 0.3379835468784589 8.87583061272042 6.8905368956596575 -0.9025173734253231 -0.6492184606230238 0.5052348838188009
Ni 8.87410295442924 0.10203808554517507 11.127879389346715 -0.5108928534355266 0.8866513529273441 0.3259035236429032
Ni 2.835613868248206 6.262733589087683 10.05128958713804 0.4085621762853996 -0.4536166454218768 0.11850291603461527
Ni 2.299337648088377 0.69683665158552 0.9124613406650475 1.1568329004175948 1.0383096726680052 -0.15524835108476487
Ni 5.400197877512008 1.1774776553621276 8.977890871420135 0.6401900318721685 -0.6961014983278077 -0.1697663421952818
Ni 6.790168263874998 4.625236887551862 10.612436695639362 -0.06582126937018341 -0.42709931585763866 0.07690092422311272
Ni 0.7027365584558309 4.758497546332578 1.370732403155899 -0.8053193895160711 -2.8059469527067997 0.1912239978484255
Ni 3.8325004187027742 8.889855132966478 4.4408477060480225 0.026259962137793486 0.5867370542593507 -1.0655068019080873
Ni 5.144282718871838 8.756649907072111 12.180968419388133 2.0904092000312513 -1.144746915787338 -0.5884116137482963
Ni 4.905524038556392 0.5595090667097364 6.427707402148118 -1.3577358161166808 1.1067560383658617 0.4151061480515044
Ni 3.952632722233393 8.550578152073232 9.991009094878851 -0.6722961683780938 0.4852674395579384 -0.19194082140979202
Ni 4.598314982415492 1.4490341267668387 2.4918495952050845 0.21768630580501216 -0.11805631541549991 0.26589988939576137
Ni 8.763976286884445 4.655678780971334 12.026412293435374 -0.255243952343812 0.13067426128982657 0.39756171140983787
P 3.959580310655682 4.963774763293802 4.271513172594874 -1.0863368512795615 -0.9245069903225368 -0.7001589562266328
Ni 7.532774925836664 3.369561907181417 8.485124847636332 -0.1449297427675762 -0.12207135011216397 -0.16468969900332284
P 7.664566613129157 5.735982586565328 1.737433880688405 -1.1455670976957884 -1.3016883383038098 0.08580876823570383
Ni 1.3104149556391453 1.6004767722697142 11.550142172747313 0.8447734817466354 0.4739754115838869 0.3695372011724539
P 6.955293593491451 9.00120132401093 10.162656103574154 -0.9004790028390557 0.23210788054698092 -0.09111732493281081
P 0.665833038251055 8.843365418949245 1.5834191492589798 -1.1398335376461208 -0.4186928369614983 -0.9476327777067227
P 2.6005322360605128 4.4382432842711035 0.3632692579861224 0.2542849308646524 1.0379774861395672 0.13594116611572074
Ni 3.6221788090838776 1.084784630573795 12.243168737277841 -1.5099919173423413 0.5381781715140409 0.0782929194746329
Ni 0.30708525602805525 2.2804257950293003 1.948498290984366 1.5662419980843219 -1.1056378656010184 1.235509942704524
Ni 6.488659556213557 6.618086107021865 6.656972276795022 -0.2775971232280316 -1.1001588447643182 -0.8425793023087941
Ni 8.941537060671644 6.47140145093053 0.11915298920513585 -0.503463650850991 1.1330201142687133 -0.4365519766301062
Ni 2.3814245139554497 1.3458365700155501 3.3064386317340135 -0.6949049069165452 -2.8675744957106097 -0.30544397023697073
Ni 5.699202866473396 1.9551363791245453 13.353495917999378 1.2983803569764996 -0.3977290902256376 1.7677540081223166
Ni 6.7178745412627485 6.647576402559029 12.20537551924718 -1.7775522251596612 -1.2450279094972883 1.0425252534112497
Ni 3.9841186016790857 8.368712090779667 1.9825193010990432 -2.487331220974561 -0.43875078405363793 -1.2418060601258807
Ni 7.152579236004165 0.10450669675054161 6.854621928594755 0.2359982167403226 0.05261942596792874 -0.02552796906777539
Ni 0.7104010788748881 8.567189540348863 3.64656927907702 1.9365050216792068 1.7189590981068008 0.6628285952072908
Ni 2.6262438565116173 6.845906031097964 3.225441945965119 0.27649849084721406 -0.6256044207485096 1.436864601229048
Ni 1.0611517433607423 2.2226832050834138 8.257523883461307 0.8265728995782088 0.7249330778475193 -0.10071756702673622
Ni 7.260433155208689 6.345300873303105 4.336891642635205 2.9380132092481466 0.6780937488964773 0.02195516411485251
Ni 1.2676115285640586 6.973346236812133 8.30609417847947 0.091919509119132 0.28005818317401443 0.27040189103117307
Ni 5.331442620811642 6.677168325054496 3.3778343415874246 -1.3527134232014253 -0.7497349673825474 -0.9253006898684258
Ni 8.767634857383417 2.763301668007174 10.481977245382101 0.28061585544969736 0.08928669948197526 0.08020684866789411
Ni 2.574201615045189 4.086558575650285 8.298305857947568 -0.7453401807489616 2.511074587338088 0.11954961213157475
Ni 7.899611290059284 8.958564195594887 4.282262533139201 -1.074649130528988 0.8255876528468039 1.0541972904325392
Ni 3.2457063614510884 2.316854440174361 9.57803501546731 0.06222146783406703 -0.9487272963224823 1.4726337884088574
Ni 3.8614641018196316 2.540701674062183 4.655346183653245 1.3351872413922037 0.6741231942845035 0.44076575760113773
Ni 4.256072342102624 5.859329997504132 12.425296257018681 0.3456318553097661 -0.9633774421354893 0.1789312965240015
Ni 1.7074068100351047 5.607304379722719 12.192989040792709 -0.13583703643768863 0.2620283222554971 -0.6728996062900476
Ni 4.235608368225802 6.717310973584876 5.44546067697807 0.3535611374591718 0.28666617540883527 0.6943575190535074
Ni 2.41255007963988 8.057992285170057 6.0990023965628835 -0.1325899902553007 -1.5338823508066937 1.1557586935168096
Ni 7.965225349866595 3.2720646989095865 0.7879285898398333 -1.2098050817392518 2.3541766164650424 0.018852871040444953
P 0.8177847424268936 6.886205739472997 4.9032577573861955 0.1766263025399087 -0.8922648424593794 0.8341350281961828
Ni 1.7659069827610814 0.90546940593368 5.560857164251686 0.23520554563569815 -1.264088782783481 0.012932134680635792
P 6.82756698453115 5.630928028121379 8.646346778172441 -0.6057681027488728 -0.4144302050304024 0.00014783843177393894
Ni 8.935975294408056 5.275252151683501 9.476756360465103 0.2078850034438742 -0.031373629215275006 -0.32794575088391265
P 1.628738305492829 4.359925854675699 10.231483423026773 -0.5595589511826621 -0.8670708596922551 1.114548794937403
P 5.9368713666906645 8.479568624661377 5.130034619317511 0.32163369262295577 -1.2768941620782654 0.2730799520839684
P 4.562690114122478 4.519609522615651 10.669120517456001 0.14784897329690022 0.3208484777174991 -0.6524007150057474
Ni 8.710446596301011 0.823179286149998 9.001040568640521 -1.9261031096195924 -0.6099955105666591 -1.3892647399628977
Ni 7.811879508599103 3.9153356285355456 3.295296621578055 1.1196928010321878 0.8198798038287493 -0.7889018673899961
Ni 5.963026450232554 4.557257691260369 4.807968625753895 0.018537139572239042 -1.1865527960795306 -0.06645530340975653
Ni 4.0034369625713815 5.083057095900417 2.019676888699581 -0.7055544162105913 0.7112252413431235 0.4893452091717379
Ni 8.522778559569684 7.1255372262807075 11.175436186426149 1.6440307242290269 -0.8637777907632801 -1.0001681286012776
Ni 4.569628463730376 4.6432895308725435 6.707192624063478 -0.5914223755501621 0.07117610592419354 -1.7282387236365138
Ni 5.714252895116891 4.566866058227364 0.5708571024266216 1.4471168750846757 0.418590249945363 -2.345850098877218
Ni 8.779063270785507 6.256682165661354 6.590836223974602 1.014437236925782 -0.12700863951278127 0.08159241616151108
Ni 1.96267525166788 5.272693000097099 6.299087399836174 0.08414449315940346 1.1068863932961386 0.09980019741878943
Ni 3.90606909770103 2.934034957959171 0.9532571733728956 -0.9482485569138508 -0.5527054185959384 -0.6323857053364011
Ni 2.1016270201136615 6.492447470114008 0.8830772914933847 0.6304113552188497 1.2634781457826756 0.9080293043824879
Ni 8.305213719467973 3.8980313291805624 5.666260025998188 -1.165258662587445 0.6273203749983519 0.11724976035380452
Ni 5.904590949207316 8.843938225441509 2.946876909963136 -0.0532855987970179 1.3424968876797396 2.2660286585732003
Ni 1.7235377799623877 0.3606269570701987 9.663926425100739 -0.8533892484401046 -1.4163484835535671 0.30561829103130594
Ni 7.6635595823605005 7.650098629792315 8.59150148041968 0.6672277527162509 0.040856886115361896 0.2291446841535989
Ni 1.2146546444728872 2.8746940531235823 13.416170187067364 -0.18465200105786264 0.13449543480812967 0.029021841153646796
Ni 8.624082159370747 1.1487449426050544 0.0929175279780424 1.2014081159248085 0.8696658741129409 -0.5412190152228937
Ni 0.28781031756339875 6.447131085524475 2.7127311696732854 -0.708291098415464 1.1775063696065462 0.5296058564639976
Ni 5.612487354596261 6.860022939487934 0.9349329089091082 -0.031812773635222634 0.42378027878673463 -0.41757543552760346
Ni 1.6644186066721913 2.991574293988448 5.461281222741803 0.004470634176843914 1.66501555401081 1.1282108658055279
Ni 3.1785863748979897 7.7591166396101485 12.88677226422189 -0.07649674680615857 1.6877507908247966 -0.810603777843462
Ni 7.406628154137283 8.697613883111437 13.089196535299068 -0.7789815229524908 -1.3355546520339514 -0.01627559723157197
Ni 4.984525140416755 3.619490314095997 8.557832469133313 1.0965580147869372 0.04902528085876718 2.1018356967006384
Ni 6.905136070160856 1.9509511962052672 4.59348400637026 -1.0814440419636344 -0.3766352456698159 -1.0101756334359504
Ni 3.3620877063388215 2.3979527529015603 7.073299121949183 0.8087777803783167 -1.0595827231141688 -0.372722540878971
P 1.4587903147640957 7.689705427087998 10.903942538959297 0.2169219168351619 0.594589460424234 0.11615292774519996
Ni 8.795674659061138 1.852243703248171 6.55972266874888 -0.6045350016727201 -0.4286828582946747 0.06874435655424935
P 3.007677547472557 0.45867017927255754 8.030273994233154 1.3848804948522728 -0.2915214466186076 -0.8672572646714484
Ni 3.1335841099977633 3.4566746880773795 11.956638919389084 -0.4921919345919136 0.32901944356406565 -0.34392875657573024
P 0.11018025266826464 4.112843002593652 7.519320440438554 1.2031580087363796 0.34763757288588515 -0.34692100643483476
P 5.537569808696871 9.306534900830387 0.8007095656688155 0.49265164783715154 -0.5401491791974826 -0.24643920956798848
P 7.565526522853971 2.8232430957781993 12.320257404559198 -0.7226473671371362 -0.27529572878836456 -1.4436461429272558
Ni 5.270891431290788 6.551030792169505 10.24961644403266 0.7967378184946471 0.4233403630358386 -0.8827129371048863
