# total energy = -340876.6784455409 ev
CRYSTAL
PRIMVEC
9.17763314090155 0.00000000000000 0.00000000000000
0.00000000000000 9.17763314090155 0.00000000000000
0.00000000000000 0.00000000000000 13.43239379108206
PRIMCOORD
 96 1
Ni 8.219680880220013 6.206264211176626 4.045071130462313 0.1570794907562327 0.24126306468368774 -0.5639943612461964
Ni 6.421130955890864 6.668312146536199 11.337154872958717 -1.588704440852896 0.48170774723113813 1.8243653288584578
Ni 1.1980298616738105 8.150646724498994 0.7754870477315634 -0.4019338723356045 0.4240692707820632 -0.3290402694996721
Ni 8.157529949278409 1.434748550654434 10.655474248047636 2.1550523899329335 -0.5247048196179545 -0.27346150379310324
Ni 8.112385172358481 1.7825533099417865 4.253286844513028 1.0941558331033479 -0.3875992008804873 -0.44932187470126483
Ni 0.8322213396534188 7.573951797213474 5.227296190279282 -1.1046047963508137 1.265514459486414 0.041577309221154206
Ni 8.564732349595598 8.496661845343699 12.38744778678367 0.9950516333103187 -1.3244171473598931 -0.812135126886324
Ni 2.985796067181875 0.9295565623774833 9.571332388047429 -0.4015296949186504 1.536022022857516 0.39779953845225685
Ni 2.743295469386542 2.048943286538211 7.12612643977478 0.765305825237611 -1.1366934493552425 0.47802438484228
Ni 5.093448672271981 8.588851169222671 3.7717089060459927 -0.21154805411775823 0.3161472155870878 -0.15496810084018472
Ni 7.207773416581601 8.799266761912888 8.164679325415962 0.24515854308335194 0.8404486291190365 -0.25985753985642346
Ni 2.541773003111331 4.725526541362656 12.409865991008575 0.38978052480252223 0.7556832145461825 1.7486411985522659
Ni 4.2951781505205515 0.0032874281546489068 7.660064610257179 -0.5892225396853659 -0.427252039385419 0.14509172226673722
Ni 8.860811969073902 6.175161212806707 10.832191407744443 1.3686465494919138 0.7665875201635121 -0.13453940067218767
Ni 4.089553282276809 0.9188462646207126 5.323969705661218 -0.35385192922671316 0.7641300597619549 -0.43012087629278184
Ni 1.1203595532628847 1.8357376934040712 13.302408241575577 -1.4996139165421272 -0.010262815378588776 0.342120756832714
Ni 3.8867551250091457 5.500439987029268 1.2259454680892088 1.5148114502181715 -1.7719485058196385 -0.4355543886035273
Ni 3.1514706988058894 5.451982084582182 5.83474995469575 0.05914899955633038 -1.320531439152242 -0.28372020540663395
Ni 2.412239890395768 3.5554609275593516 9.676978875251812 -0.5751794313287384 -0.7399280085944547 0.0942306737508119
Ni 3.0872823333295787 7.795490681147225 5.367423044812017 1.403399636702383 0.5320532895632256 -0.07083774874816832
Ni 2.814018309586778 4.453290412520249 3.323376025500231 -0.12892539691951987 0.12476252379108192 0.7904620127882644
Ni 7.912220995773075 2.527143856046813 1.9275617474880835 -1.7037517942387432 -0.4001158452902593 -0.316133588740333
Ni 0.6582473744720366 0.859605561115846 8.578437309013067 0.09670150388880766 0.6138511368673234 -0.6002505153647534
Ni 6.085303007719696 6.524526169710726 2.765823805207918 -0.6023626766117497 -0.9005579357061071 -0.48992756403776916
P 2.948782673134697 3.019845085757384 5.171821069610407 0.6296773052663026 0.2554167304762504 -0.5290877791769986
P 8.202436107739317 0.8958884155731016 0.18119768014655285 -0.8406949408018876 1.9669538250873673 1.1252044748790364
P 1.887839116167728 4.746543321022473 1.2742335843250692 -0.6000335142579407 -2.4806633220360825 -1.5937682285290486
P 8.720981552088332 7.672060694402744 2.2255328771357705 -1.42991439516346 -0.6596972486671606 0.6120143407689008
P 4.476619955705948 6.717614391222894 9.67636030278497 -0.06738218609940008 0.34551744121908884 -0.8760972315605815
P 4.415955801316698 2.2337716383150794 8.550605219058326 -0.3281110728171833 1.596920401004785 -0.7518723254405245
P 0.7512516721648929 5.083821335213838 9.087404057759048 0.4300481140733174 1.702437446302694 1.3330565682024462
P 0.9770324580893728 0.7634248846281154 4.395723709281736 -1.0336474913056457 0.1571633087192906 0.22420199543634292
Ni 3.011676992352477 2.5391390224290746 11.72584874072571 0.8804028009144708 -0.01880402008038052 0.019776668406294974
Ni 7.144695544703036 4.677912981155179 10.64930871417189 0.10930967957112143 -2.097494646123123 0.007975047785676587
Ni 7.601402097633783 8.601314394889933 4.039456254568918 0.04798449829907865 -0.5059655913372383 0.0713123743917417
Ni 2.292783818757269 8.71974257162804 3.0388372795687473 -0.5000718515606227 0.08286742621919277 1.0292470482451048
Ni 0.060196095104249524 4.064975580997775 4.295827009176424 0.23868784775734378 -0.2676191860797133 -0.0171392307834479
Ni 3.6833604215939335 4.9944128341457485 8.482421829920042 1.2457123371588223 0.911686698629417 -1.4897514219257504
Ni 2.0521738133680163 6.545047357186425 7.466637734085864 -0.0557335461168782 -0.1986881674359546 -0.39031917091481166
Ni 6.623929113158527 8.759022841035904 1.6910174335352055 0.3793675569993144 -0.14707224303187574 -1.1439563015652428
Ni 5.916930151982149 2.5769967587158606 4.629864401141642 -0.7093480789250687 -0.1725153656953287 -1.1643621189151043
Ni 7.800400714823208 6.916594653146241 6.35361661620114 -1.0682254863908311 0.9468737880535112 -0.6223373199614637
Ni 6.170361310727194 3.849567355934223 8.659434509400711 -0.15101297284717866 0.9600301229298112 -0.061866912708125714
Ni 4.84751563971998 6.9559299883523416 6.9447626444702175 0.8094012728949287 -0.698079705100101 0.02697164349283742
Ni 0.20538166096820368 7.660597830736757 8.1416159335884 -0.7717775490048838 -0.15384504297933504 0.24032692602266353
Ni 3.053389334515736 1.8546160845657484 2.9137681675634615 0.3347758864318686 -0.16584978074969503 1.4185326356890795
Ni 0.91350579995519 8.416880681333751 10.330679650316219 -2.607810544009257 0.7433138943475521 0.7474767674759901
Ni 1.0015918041023277 2.9938081408251147 2.3128966015627217 1.1332348013826807 -0.22860089583498694 -0.17262772290347692
Ni 3.726421875813957 7.102487610355659 12.10015575094042 0.34845312680864504 0.5223288631866101 -0.043512835680970224
Ni 4.792596683613282 9.321813654267004 13.123273693336241 -2.4047782406719937 -1.4050240596796835 1.74462693518655
Ni 0.608584448806901 5.9174440994323465 13.246597219537467 0.7621857915513905 0.1293696835457901 0.10099010396183251
Ni 3.7074608859549274 7.6901498091230485 1.4676769802358545 0.5814459810637406 2.4367871894784225 -1.8470668842210318
Ni 0.17250921494832247 0.6268828135604995 2.251215565432726 -0.11407753327340997 0.29170476627400727 -0.030209433703844747
Ni 7.6592120081478345 3.302975065017347 5.989718877379515 -0.5349735485338142 0.5037187042845906 1.5046831035349184
Ni 4.355521087753429 4.967715099634655 10.764908344407306 1.5968949470834886 -1.4460398399704129 1.46031409050124
Ni 8.826652818901922 3.2264794936354413 9.346313345665205 0.1492499674094849 0.45160424297753843 -0.16851935716205818
P 1.0079794366976254 5.530836307655168 5.641067940325946 -0.9276817885060927 -0.9912152902833639 0.05928295403103338
P 4.528299207349801 0.9441398212768052 11.126924668455892 -0.07250073827288805 0.09235942487002805 0.3521614288981677
P 4.508227723893024 3.9714463226950754 12.906529204902178 1.4138110618436943 0.13366136894260852 0.08188603614252994
P 5.4120502032285325 7.146852288467253 0.07444437039763989 0.6431151759387633 0.10316577145691265 0.7163137116096244
P 3.634819920449494 6.93628067601537 3.3782601066013798 0.34227785123586857 -2.0708716442189563 1.4499579440778965
P 1.1559137036568263 1.9866730463670972 10.665602683869722 -0.3471120393997183 -1.079225694156077 0.2263524661204424
P 6.013157634398381 8.625295550021418 5.846395453259218 0.1389375297398833 0.130703057645233 0.4362107912406036
P 5.834239678298769 1.2999750094734759 2.61413221528246 -0.38519393387310435 1.363944001809922 0.9087039618520092
Ni 2.6216000552864736 7.934807150682598 9.15306176228494 2.3291505267343497 -0.5985672141250594 -1.181324714911372
Ni 2.329237377189054 5.930825088403529 10.455748762321505 -2.3515294086501823 0.9827383631606044 -0.7560395694443366
Ni 6.317148373556493 1.5930627205809937 9.175305591482099 -0.8866055872910731 -0.8250626335812694 2.6745319565962067
Ni 5.58168957232549 8.520863263668122 9.964673809185484 -1.0153180968688384 0.6630587089402259 -0.16289841143085496
Ni 8.499433490521543 0.08075399311210421 6.253303251555848 0.24797878614096644 0.867018666298081 -0.4960722434829264
Ni 2.4141396604348864 0.300858413001826 11.950317125125581 0.7951195661649338 -0.22730377429011822 0.42202678643073765
Ni 3.200415015804054 2.7961219251602976 0.7274201124519482 -0.4439585535068225 0.37843090411765795 0.6152634438338178
Ni 6.770706998354786 6.667210830571492 8.791528181734217 -0.8045760835921434 -1.5976624213771322 0.4393855894241594
Ni 4.814081522558099 3.586967741782997 6.712516216069607 -1.2389058557599504 0.4528759106011104 -0.9117239796252555
Ni 5.661195407344261 2.162663337527196 0.44883581483631113 -0.005986556600738077 -0.21065356732794688 0.336846138697336
Ni 6.446195071720977 4.468130645144669 0.8411676963400513 -0.23498417365351146 0.6765084066872286 -0.2013171204183694
Ni 1.279288624603072 6.340432028576996 2.366237004786673 0.7686685710622568 1.6423232546196167 1.8945191641657246
Ni 5.038878466220774 3.4353624216081076 2.442546270217883 -0.27262718081726595 -0.12553694006326122 0.7773090203460742
Ni 5.525990517410459 2.954197476627837 11.230529132309048 0.36314158205875524 -0.9266685167502299 0.15446802127531462
Ni 4.903012786708149 4.886291139310688 4.64590231487768 1.9267787955303783 0.33809569483372093 -1.4156180331454458
Ni 8.75258014264237 4.769267140427583 1.8176045260451787 -0.9162750893310477 0.6858165714620318 0.050439644707790554
Ni 6.5533898256190755 0.6095178140869897 11.877285192452677 0.4203861655035212 -0.058435775539389674 0.1852826926633261
Ni 7.576851929253867 2.8546385134183696 12.72862996606992 0.6091341910076283 -0.7377716243730843 -0.3719661223289207
Ni 0.5813727668456112 2.2186927872316393 6.406338446958249 -0.6869828238559911 -0.4975768530529108 -1.2809235949526327
Ni 8.22515074951139 5.100772423437279 7.72302225514293 1.3473493306760345 -0.814810359725642 0.5148011873509973
Ni 7.624373713130953 6.783197756921166 0.46085851411769047 -1.1348517681608132 0.12727320602807757 0.4113927037556592
Ni 0.4614587313184555 3.8386551502505895 11.754727998610226 0.1815599923961002 -0.12362146820810324 -0.9510196919010846
Ni 1.6101790061991403 4.123079175769083 7.466732263706168 -0.37750967785496914 0.17816356512004156 -1.713573408314855
Ni 5.900658208603612 1.5134467539657528 6.88727211558593 1.4661998598580555 -0.325533027677362 -1.338073047580431
P 2.6237384437846125 0.6080796789897438 0.9373960965195858 1.1314178027785997 0.42032548746891485 0.608433565396178
P 1.5204217550755605 7.588544233745835 12.14428089282969 0.49695721719104097 -2.308714113256869 -0.36167425348460935
P 6.973082984502645 4.3474906588441105 3.397750645886773 0.12285399391445938 0.11763542582799741 -0.331661509172603
P 6.367551934207893 5.2239729693557795 6.642909376046941 -1.1856248849486226 -0.31027455885639466 0.1348787862894774
P 7.731797907855033 8.019140420679998 10.369794722329377 0.6519672270127547 1.783905935291831 -1.2370037536412308
P 7.924564912210828 1.9049370465197963 7.944992487829525 1.0807470158966097 -0.21746364827124484 -2.525778983427798
P 2.004954891381225 8.956819188297192 7.001178472525613 -0.08726504106625615 -0.2125379288348533 1.0805225585906295
P 7.968048537550655 4.95210394583494 12.711100686965008 -0.6443657605164128 0.04453896295263943 -0.3169679117161702
