# total energy = -340862.7236474718 ev
CRYSTAL
PRIMVEC
9.33570399734725 0.00000000000000 0.00000000000000
0.00000000000000 9.33570399734725 0.00000000000000
0.00000000000000 0.00000000000000 13.66374646753948
PRIMCOORD
 96 1
Ni 2.217677835718949 1.7834368955694584 1.5891618269789933 0.13710176208272518 -1.266636231795683 -0.5606899794633118
Ni 0.5874529142899505 7.990578503869617 9.244522270435795 0.8360021633119086 -0.2788741901682423 0.6013128951909966
Ni 5.941587505394534 6.1034686143551085 6.530409967474825 1.1958288220648177 -1.7396482510250362 0.22418014105947195
Ni 6.837591041357631 2.4735321420726692 1.364641877840687 -0.8647851489818719 0.16581172842290798 0.11600277532058086
Ni 6.4249995989981965 1.5158756162839873 6.208943399189974 0.9002290916117786 2.086802713626916 -0.1787117243140277
Ni 7.409682988134102 3.0286611145134215 12.306854468898933 0.025842414984400656 -0.15954389313632522 0.1019630093980631
Ni 3.572633920563869 3.9658631126358626 9.501646232546069 -0.9627138404095613 2.17801876892112 1.3955387458970676
Ni 6.237846739059751 0.8907204610172617 13.324721618230937 0.588881097185547 0.30607800427654386 0.25955029302864974
Ni 3.240618940225122 4.419877074052856 5.2225982547256375 1.4743921658608605 -0.3987588170417326 -0.41362982061629405
Ni 8.726073279373708 5.928162762909799 4.2734596253507755 -0.4217226249267576 0.8963320705502177 1.3994565928942349
Ni 6.855431571878026 7.8748344445332155 12.28675563155861 0.0002000318259480426 -0.12151187806426814 -0.37427188764396185
Ni 3.866120450113672 0.20223282275874596 1.8590075530558516 0.9461723911111125 -1.4512476094235975 -0.055555368667801086
Ni 2.6671733163552664 3.3307738346445146 12.05201215286882 1.6890288862062717 -0.21571838344536395 -1.2667619587402699
Ni 8.035408554920867 3.7495268417048706 8.06875662350899 -0.2272649506323828 0.2837641712706919 -0.09547534479119041
Ni 4.276536673419599 2.4253319018440966 0.21182339157277125 0.3972318388742449 0.3446972593106386 0.7080512144905161
Ni 6.255827305141532 2.954983737816948 9.82669304335032 0.6527449857190436 0.11749967158108152 1.908700854982745
Ni 4.856470611633607 0.8284699861297697 7.6449212591407845 0.3337137637159414 -0.5257301755586753 1.0826426902574258
Ni 8.099003371197652 4.993565426229111 10.621786953779688 0.7170439049074296 0.24256995642056936 -0.7882570347171457
Ni 8.742027997667458 2.736201512413772 10.164433611008876 1.4939803724054335 0.18045827469148923 1.7176187820288227
Ni 4.309006252252637 7.077621329274894 5.089840808251418 -0.21147606322924226 0.831018079833756 -0.4863920400806849
Ni 3.853246514170383 1.710842460547692 9.712682624263858 0.09878178345660407 -1.3343207796268506 1.0392357840267006
Ni 0.5870272061833414 0.24464305930927066 3.215680473883347 0.4874551912378766 2.707483471821563 0.9469678904292141
Ni 2.562408045031416 6.2388643308058125 12.011471857847983 -0.4074506883887757 -0.6952936577145317 -0.07645252383178446
Ni 0.7789114009557668 4.540662413599102 12.617800632242165 -0.8884038168420764 0.49522789320475996 0.23121159398495664
P 9.12005866347718 7.6725390725570515 3.0415229140413906 -0.49745935363844 -0.8411641671288224 0.4283347309266365
P 4.500752278604497 6.017570801001807 12.880663251657978 0.5845729567284964 0.27663347376318165 0.052222961860458446
P 3.207019741196915 6.163049077872201 3.503507699612394 -0.3124983059805908 -0.8327322343113852 0.1752582185477885
P 5.871915145753659 5.295164682635128 8.81848648061303 -0.15114795576314613 -0.8966858543452106 0.0938799752796125
P 6.553757629839272 5.448279565453027 2.1089448901558687 -0.26791949092895145 -1.8239518954701233 -2.185438458423959
P 8.87019787915072 2.1833971302920037 4.104261191522652 1.4234791810610776 -1.4834745877781033 -0.5142949371385401
P 8.455029782461807 1.0759772394545597 0.07141813630613585 -1.4621148911554045 1.3139720407671691 0.9827902994444623
P 8.862085152294506 7.193729481070895 5.947992731972265 -1.2722756894696476 -0.5412208149951067 2.2447198697930952
Ni 3.634361596022192 5.368347267014709 7.355304378937242 0.4722635710991028 0.6042742918121657 0.5006588344123442
Ni 8.343356090109651 4.183805124670731 3.0823227416359926 0.0380690389575796 -2.990420004984637 1.2936202165836947
Ni 7.57234829623843 0.3430367125901228 2.482907989692571 -1.162101862126018 -0.45319395606216145 -0.29192279582208436
Ni 7.83281444041375 6.928399435063485 1.3466155668088546 -0.21347278194429686 -0.015846737224269485 -0.42776008937008914
Ni 3.677912655612796 6.872702624448792 1.340040430416644 -1.5055184549520202 0.054863484807099065 -2.4601081235925504
Ni 2.1573785229867486 7.917106512663174 2.7531215425106663 -0.3635958959873545 -0.2792673118416029 0.8963744937523788
Ni 2.422083076819974 6.46534851208514 9.585282004797804 -0.2427555900688142 -0.5163610756389495 0.5975662836643708
Ni 5.026660497236334 3.159351636101604 8.021001696365623 0.20140093838142734 0.8067013574652623 -3.3373566951487557
Ni 6.028829660137127 4.482641012665424 0.1785360050612473 -1.8034095525423972 0.09653052552858213 -0.4157658931226904
Ni 7.732231564523251 5.76310751455784 12.747264442312618 0.42602947983222755 -0.002062024735351287 -0.4988125252322248
Ni 2.29470673018456 3.2655265987433926 3.383485087090489 -0.9652877717843248 -0.5874019415368593 0.42516250384624193
Ni 5.532347580804237 0.22481775809885104 4.011211295264236 -1.3812025317800536 -0.004953230240217276 -0.19551465480397942
Ni 7.947512900891813 8.752792064485886 8.337713590556262 -0.2215856408594184 1.0102175424174795 -0.7800621576111791
Ni 1.2042311422746503 7.993061801158171 4.919017028340825 1.1152471065560083 0.20958655951601324 -1.812654468179433
Ni 6.492188661350518 0.6316742774343824 10.881752704215657 -0.3687306461107585 0.30993105947404687 -0.9989237146712151
Ni 0.7612585180876266 8.74429657376189 6.906668716647825 -0.12804839363120527 0.023724083089817206 1.826281057823932
Ni 4.510536096493233 6.636425289576636 10.529118887818646 -1.4827335958470205 2.5872558597863566 -0.2846584009501872
Ni 8.653282794566005 0.11784739346839801 11.872825449232337 0.6464524678421124 1.0781232051205174 -0.35920728000135554
Ni 8.736575946477553 1.3522207235458747 6.964029149731768 0.7520499886689693 0.410436510489977 -1.7385516755267476
Ni 4.7368148922825295 7.889099400386258 7.337185644434896 -0.2738839360425025 -0.678996720326721 0.5659232028377932
Ni 8.074123719791658 3.318861476222733 5.741547639527071 0.6440533714823167 1.1736936807286755 -0.23397552988333895
Ni 6.3109453021025015 4.925862900151713 3.9818477051827075 -0.9644591052354423 -0.0004134333883347718 3.4002399649365374
Ni 2.90607398407736 0.7669336926053391 12.424294825668905 1.8101995788810374 0.6633338169784834 1.9710565344018314
Ni 4.097925982725614 4.450787590302478 2.6385239076368 1.3720391201132307 -0.5361125472342638 -0.7046576154279347
P 8.38647770731201 7.579462102756767 10.711598294288482 -0.2328432160511087 -1.0429705684787842 -0.47792925402531233
P 1.384391559847959 3.5904744510842646 1.0060770886338326 -1.3219838553280525 1.2617683621804203 0.1305660178467364
P 5.87750723250495 3.7466421091403483 5.900046422895003 -0.5571518844030662 0.3024458068405952 0.02129387638176978
P 3.0646222466769815 2.044071082418439 7.463452909424143 -0.8699011300521986 -0.16656686142137764 0.8576374821934971
P 2.435395790855602 7.206687438351015 7.592820561742447 0.5544121168744001 -0.4554637259329446 -1.55622112351321
P 4.813843786748142 2.00094946521608 2.493333170452449 0.6850395840866912 1.1787986060554088 0.11853711170666037
P 1.1797249190323489 4.7696392278710755 10.1780291968785 -0.016708571003932516 -0.29337006979157215 0.6415876835506434
P 3.1037201754155563 9.218176913487309 4.430688752962155 0.2080230716836353 0.3496412335794753 -0.38691528743958525
Ni 1.4462032566431124 3.386377288218285 8.429165214274075 -0.14468085998156374 -0.24317596543568443 -0.759735273128369
Ni 2.9943243948619225 4.845669201998811 0.43870620741684024 -0.031542293582655354 -0.47286418079757914 -0.5901437659480547
Ni 6.535907763614784 7.315905840526895 9.357234093083015 -1.5567088617829061 0.5574321346476465 1.3906402801541855
Ni 1.2147151379703094 8.126123591585799 12.193322971432407 -0.5647281540884275 0.006383792039156748 1.1877804978390447
Ni 1.0286545554106639 5.652395399727191 7.639004289887081 -0.5041825312948865 -1.0117288368556834 0.6259741453831026
Ni 4.0975805616741985 2.2290207161911 5.6006055812751265 0.33315249189583274 -0.3981265827743724 -0.7579128752076495
Ni 8.077951358469504 9.180796754301717 5.0524438447984625 0.9768981023297433 0.7709905343272142 0.11719705273899816
Ni 2.80033779952791 9.10281561801869 8.158145056622406 -0.1945854581214907 1.825053098954102 0.9375460828946822
Ni 8.179159726534186 4.589609510155059 0.9996093128386835 2.0920120257419974 -0.5793417902365442 -1.9214087894677168
Ni 5.4275262952558325 7.124598592267374 2.4790822181555447 -1.29162349786864 1.102249665855076 -0.30982281603095674
Ni 9.207711589199834 8.636105099036163 1.0943331008408503 1.7269058637577033 1.519334534899506 -1.726985310845387
Ni 6.780176461189953 2.4147918919238838 3.9713954508809626 -1.8355483420584708 -0.07387910667765342 -1.2599534204588687
Ni 1.5380105706868432 5.762883457659625 5.407236075981617 -0.5159278447562727 0.3029960229171105 -0.7643480893100321
Ni 6.913042201831643 7.505065876845186 3.840346438255635 2.2333206268172185 0.21316347823399417 2.508537165628215
Ni 0.7930307198249693 1.0774336092929593 8.878456242990772 0.47159971226285874 -0.11366641387792037 0.8585355685277344
Ni 9.158923199613447 2.145951621177767 1.8675198480472157 0.6023302807119175 0.9150707846103014 -0.4811287347992166
Ni 4.635942609565171 8.595597478979649 12.785426933501146 -0.8994227936603995 -1.7216376733802283 -0.18853642371393337
Ni 1.0530674216120424 5.381818688019906 2.7662942209849093 1.435448951828444 0.0478500296037434 -1.024150350448488
Ni 8.247207673662999 6.159902945593094 8.422155967641574 -0.2019123308002071 0.23705416880866273 -0.5389528448965363
Ni 5.715112659819298 5.088892300715641 11.218850975432666 1.9486809949201087 -2.6160586429506623 1.010114441180712
Ni 1.1804997824720103 6.689022646432684 0.636260908854932 -0.17564722645609104 -0.9222583034976762 -0.485070493055784
Ni 1.5216264100048473 1.4121746152266597 5.469844108335844 0.39552771169894463 0.4811999543567841 -0.33437196612523057
Ni 2.66953524949062 8.859088391280876 10.624163824041588 0.029213388339162594 -1.2251841352984836 -1.9055918770401181
Ni 1.0636541100527166 1.908666030263642 12.898399222292541 -3.4777340426589585 1.4026961828774553 3.816622922817936
P 6.19487449312287 8.859452483740476 5.997920077457913 -1.2502637039749305 -2.527072762538558 0.26210108447496144
P 2.078277102212646 8.694098492857563 0.7689847467944185 0.8204822132994385 0.6738473149152976 -2.1123491946374524
P 7.810856864388647 1.6030430853938422 8.720011606706574 -1.6601754523096894 -0.34804843517105866 1.4093843935309083
P 6.208644656659021 8.278034168575791 0.7040670612477549 -0.5089467854527493 0.4927328946970482 0.6144337488436707
P 4.758165647541632 8.83821375693048 10.265258281635365 0.5610352786178725 -0.3652987376110741 -0.7019638706458556
P 0.9420285571381626 3.6841769130587334 6.101450235130352 0.20285489721913455 0.403336409110086 0.6204413884903315
P 5.002088924065386 2.108580797696269 11.823567473730108 0.07632731110782985 0.7703701271343959 -0.5110774586425069
P 1.3003328802008416 1.3390667164798165 11.06095341140828 0.022485325586709664 -1.0212005237915442 -3.985021438131414
