# total energy = -340863.3505578914 ev
CRYSTAL
PRIMVEC
9.36845687599742 0.00000000000000 0.00000000000000

0.00000000000000 9.36845687599742 0.00000000000000

0.00000000000000 0.00000000000000 13.71168361615459

PRIMCOORD
 96 1
Ni 8.350958241599002 9.112838637564181 6.807837533306166 0.8468830718904705 -0.522870594622693 -1.3467741748988546
Ni 7.410205896391739 3.043839780265047 13.504362808082258 -1.8173526449860509 0.05855970271176366 -1.7151533512074655
Ni 5.3816257997471055 7.442939285102358 10.399667404924699 -1.0886580432135702 2.1189759559253507 1.1827552767103113
Ni 4.57127300733409 3.2629492522638865 3.119929451063207 1.9174284646637303 0.9042302423513717 -0.2252360931278121
Ni 4.4983770435226065 9.434973031042894 9.094123271042372 -0.8189243818940154 -0.9111897043883405 -0.4004593446726071
Ni 4.0657979106307645 6.583373988139577 5.681642203126532 0.06184043034556447 0.2117745683062675 0.08491093901178279
Ni 3.7461930005383914 5.757881769236476 10.805080823092965 -0.8032488801402876 1.5596388909455077 0.4603441939536975
Ni 6.443053239396691 8.351351716792433 7.987001182441429 -0.7152467037976907 0.3303006242693344 -0.3031479751139424
Ni 8.924944864244157 6.095895697307201 7.645319503460513 0.2399170921787546 -0.5057167085512259 0.8060251573338441
Ni 9.04672543661088 1.8782350989262577 3.881708667692933 0.5647687775183757 -0.03801350312929582 -0.3640242417740247
Ni 5.153147870761827 8.46275203881818 4.207211021458269 -1.1369760135926679 0.36973286212302775 -3.191105919576911
Ni 4.717224198725826 2.574854823523902 0.2112736945753817 1.0876249739633657 1.4905458928025879 -1.0587558563374992
Ni 4.669623068777729 4.092320012359374 7.045433781476346 -0.3286067815066792 -0.20476985485366025 0.5553071178848437
Ni 7.3516343033125215 7.785440704069587 11.968764033903833 -0.3529553855543728 -0.6502767266842091 -0.951740115006877
Ni 5.542107467924808 6.834982637424374 2.189961136693035 -1.1039000569743054 -0.07450465607679427 0.7788658233102328
Ni 6.576994068931812 6.0196832997225185 6.587271266245936 -0.4679127503295748 0.059971238347309615 -0.8259344946632614
Ni 3.835408816420252 1.4763376626650038 1.877910950314527 -1.6156794267798433 -2.068121592277645 0.4758713430550191
Ni 7.497135808768908 9.587304141642393 4.5895611722173175 -0.10845915864536805 -0.9520751297487925 -0.12636252128835013
Ni 8.718838810542495 6.273774590108721 5.255496389647277 -1.1023481391061531 1.738162667618445 1.938785075962635
Ni 1.628144139673264 1.5651412664394606 8.257217460992692 0.019483048425276123 -0.3330267649512458 -1.8296705431214553
Ni 0.9595829437500053 0.23245202843892607 9.88334082449398 -0.5201115438203171 -0.9376412137116497 1.7485473532868792
Ni 5.874219268094078 1.7316093786314983 9.526604035135856 0.3617405879461706 2.54150539302412 -0.8251132843135467
Ni 6.180867602174205 1.2690886572109963 2.4505250940111694 0.04369512689510539 -0.04594664193344345 0.19998374631892657
Ni 5.884758782203821 1.90353930124663 4.885445149220026 0.03970837433321548 1.1242462247308251 -0.095284568936623
P 2.135521033144837 6.079351002269149 12.141531496573554 -0.038193994571218096 -0.8763093475713876 0.8066170252815722
P 0.299813107862821 3.9212332508730214 8.123638253897246 0.10559623527527622 1.1280280603707604 0.3539357471897711
P 3.741761720383806 1.9668700704749589 8.025434340382597 0.6914154057060479 0.49072486312808394 -0.827873106446871
P 5.515931999104698 4.467685978435032 1.2638226475389187 -0.267144817546456 -0.4071087316683246 -0.045915017364559635
P 4.119319905394291 1.0238224533060187 4.01013241290874 -0.7935758758268978 0.9448066211118374 -0.153537024820613
P 8.544941511960213 7.182102705685918 3.3384524576546957 0.19214599544206262 0.7870668710637864 -0.6888954674976716
P 1.0022375284092628 1.197026486071306 2.1808980914043534 -0.027996999433558233 -0.11952724353407156 0.22107321999937407
P 5.829288148387115 4.3212288903660285 5.079850000145626 -0.9778635515668063 -0.26781896079534523 -0.0948161139406367
Ni 3.7770808032226815 4.838920454979671 13.313948919832882 0.07033072720476274 -0.13077607697501348 0.21877722487634582
Ni 8.803417240216069 5.459880520954832 10.31427110895621 -0.4165765619494439 -0.5328981540620241 -0.0364844680792791
Ni 6.117564938316835 6.270504998620455 0.11097405723286524 0.08173305550443344 -0.663297050203277 -1.7664597147909253
Ni 0.7562602586190145 8.833752303938159 3.822488777390254 -2.185166692819811 0.2940840651394613 0.7621161146557197
Ni 1.8723517079387741 1.5391625352160647 5.4895963296701185 0.16381835214196303 2.1517456941572037 -0.48459278208841694
Ni 8.098693800325155 7.4196024587491385 1.0009025232886952 -0.6579288439128281 -1.8686222417943041 -0.7995884005695649
Ni 3.3057912060628727 6.919439277157124 0.8034866502876544 -1.580114128080724 0.2518930335937081 2.718589094816421
Ni 4.658755658673458 0.4897182888978336 6.678357962987988 0.00769376909983191 -0.43580198583795915 -0.711614249251426
Ni 0.898976521813333 7.1776339517033865 1.9502953963745506 0.45900490631698365 -1.18646717834426 2.4429323831442122
Ni 2.6320773587970723 8.278315226126152 7.998272373041814 -1.1993558613814699 0.8335588439777386 -1.7665795281982415
Ni 7.752295103251566 0.46619596709628214 12.948669971394521 -0.06121333828452684 2.112293915919485 0.9337231096041662
Ni 7.964930971472776 4.001024399026524 5.482205553953516 -0.04368072871740219 -0.6652235778020286 0.298052562868906
Ni 8.912456711081234 2.728422570445613 1.2794539180207927 1.7513555121596354 -0.36107055846233943 1.7196332413556903
Ni 1.4097747757763535 0.04302276501882461 0.265552660663413 -3.0583488076161265 0.7939399440345358 1.7676509068855493
Ni 8.306205122574783 0.07924777764828897 1.7831499447423933 2.410128449240314 2.619103857534889 1.3009314055331271
Ni 1.9890452081618604 2.750738234987311 0.6415631765797384 0.32944007604125203 0.40744348929992413 -0.32784470652967407
Ni 4.355545548307355 3.6041578241669874 11.199524714975807 4.963707485599516 2.733119941442745 -0.9003409345992944
Ni 2.228428021079354 2.918236877447857 3.179301110369067 -1.416018353907658 -0.6391340798038283 0.44875854599862713
Ni 1.8995858123983527 3.903133391975221 11.240029238756676 -0.3839811445119258 2.197274274716622 0.7058763183263844
Ni 3.430991265229646 4.237493621821235 4.931324356774016 -0.1418935270444137 0.5799313441914271 -0.038552406351901346
Ni 6.575691853410697 6.284417157245317 8.970389375393976 1.8190007221124351 0.7912073755947212 0.8459466761191302
Ni 5.443036035293214 0.25562959102337657 -0.15342159899272248 0.3260531618468901 -0.31159224922655365 1.1972768673652543
Ni 2.668042865168012 8.61884926912623 2.6110058253431734 0.672424466425842 1.978696567445592 -1.6081162697206046
Ni 0.061516099110055546 4.462608274748382 13.102089696695847 1.3256628468415363 0.5170331620053096 1.1827534769380987
P 3.04864579869909 8.109064682209143 10.107608568909553 0.9251685351659358 -0.4711045177939951 -0.4355988686882176
P 5.999063325895365 8.065773042474806 5.903853571233581 1.8128439584824196 -0.7288707223390286 2.775281148191827
P 6.475374415999907 0.0037248984978082156 10.605178561607723 -0.31149300464452806 0.02528731381187903 0.3228513670801407
P 1.1664010001826366 -0.1255710500634361 6.448289270006412 -1.2455477865565 -0.8345800861534014 1.3196780900130112
P 6.386879971306001 8.711081728157723 1.523176200214405 -0.9777514514689742 -0.531640113285207 0.08749309791666222
P 7.824591485815917 2.826978737942953 11.234462501615333 0.9377738826347721 0.2404320841419601 0.31519693585867653
P 2.0896436992822442 6.214387941271684 7.053070947611691 0.2150820354129457 0.29679117965797913 -0.5463128848060333
P 1.015465789674115 4.7690411343178205 1.5787086658472218 -1.7434678818814426 -0.596762813926469 -1.0500467585992754
Ni 1.0345493365554916 7.174148885704431 9.5287156853406 0.5458781112614599 -0.2586547777975739 0.07468386196713589
Ni 2.8316161241512403 5.1120952922472505 2.4304503643806274 1.4888865028222937 0.4522282497147825 0.3944365355172949
Ni 9.381947564499647 4.933757345053394 3.647349221411568 1.1130565266625927 -1.1237227481271874 -2.2748899656185726
Ni 4.328826708982031 0.3520019711971777 11.540233011275832 -0.7795237686092058 -0.6398141365899884 -0.929139861108858
Ni 0.8231519783478889 7.054701059127332 13.514166898318566 -0.45222953526636306 -0.26455468822177663 -2.6052641234383196
Ni 7.337244353381352 3.369365555172849 3.193588007273387 -0.8835632009203235 -1.1638550973716988 0.17203534073511662
Ni 2.1572745902673485 3.4909962322277885 6.892314783644286 -0.23533075835965278 0.8072238056276356 -0.04744636640742152
Ni 0.49740229731811103 2.766514716552474 9.899739371603044 -1.8881153175219094 -0.6269406230614301 0.6748703568631732
Ni 7.918931847669359 0.7005151290126055 8.779742212565639 0.6884768919030143 0.07901077147726393 1.6486579385883928
Ni 4.296224478669222 7.24779432607483 12.718368003833982 1.0858244304195173 1.3255360914556849 -2.8846049688303355
Ni 6.746722404155131 4.297779642528971 8.323430904435748 0.7947202738439861 -2.8690575080140395 -0.5414578707065772
Ni 4.242917958416384 6.643210322911964 8.381197747059831 0.045296924164586506 -0.3186992925849802 -0.6751133261119147
Ni 0.4643297704645834 2.2959933328655535 12.46874734112171 -0.5362845540357537 -1.6530519538910304 -0.6685289880261777
Ni 5.935948031177725 1.829491017225815 11.85059687539678 1.6802092310321128 1.3433584643490863 0.5189424632128805
Ni 7.697452156052951 4.965816204860989 1.5413444488482064 0.9368344015396382 -0.24221720106684094 -2.414508066365248
Ni 2.2954405939033538 8.805609459150896 11.926888904865848 -1.962662396800865 -1.0020599463073516 0.020035064274004206
Ni 3.250873311208366 2.1031717511706622 10.133250035681439 -1.6606210244875401 -1.9189652130232306 -1.3032397419513295
Ni 6.984877949207401 5.594542721677909 3.4988929046216586 -0.6504855002609056 1.1492419754442142 2.538685407076821
Ni 1.6309359398552228 6.561330008850486 4.82645759665061 1.09848711348885 -0.06436396809836657 -0.08038142657254543
Ni 2.7789372905164926 8.909974069979828 5.058239780415007 1.7175930709972098 -1.7513441993057255 -0.12470570241121749
Ni 6.414760499297644 5.492670120407369 11.32212127994605 -1.3425483097429654 -0.8582532614006252 -0.6220174747281997
Ni 6.6131750498134405 2.078757552264002 7.149957656074048 -0.8691256853387548 -0.15668894018603338 0.330057912130909
Ni 8.826323117547911 2.280966327859305 7.047572600206351 1.4039339119392982 -0.2468205041668072 -0.3931517552676003
Ni 2.2632693126119214 5.093967327978491 8.945200405094537 -0.30222546329967304 -0.7445626791529887 -0.6849398252840333
P 3.1695644730230605 2.598097965307258 12.311034988829197 -2.399894687327447 -2.6809067497742993 3.661494642250804
P 9.31761437037377 8.7658122538725 12.16478681735099 2.3158029017828503 0.38470953803751806 -0.34159342357433425
P 3.394622915208289 9.230028666007549 0.10401797792043414 1.895473557659194 -1.076874163204765 0.4581327881246755
P 0.8400695379740007 3.4072234898550495 4.990298793503651 0.4223430321195759 0.3171895408086731 0.6180574616391872
P 3.5935152570303925 6.964183027724357 3.3459528443180386 0.3948353136176103 -1.427412968897845 1.2398648772391099
P 8.290269377240849 7.673215957829033 9.577350156094303 0.09312484228114284 -0.2977928814496162 -0.6258962409573157
P 8.028093108475348 5.8377853388738155 12.558887823708131 -0.0821670577180585 0.2721057610961572 1.149810960573807
P 4.752271596312095 4.682542170962027 9.314251094315637 1.388223186072261 -0.5533373957529826 -1.717495369077081
