# total energy = -381162.19940628327 ev
CRYSTAL
PRIMVEC
9.27121030904937 0.00000000000000 0.00000000000000

0.00000000000000 9.27121030904937 0.00000000000000

0.00000000000000 0.00000000000000 13.56935343559814

PRIMCOORD
 96 1
Ni 0.09912685117046652 2.508882162687637 10.016530087032356 1.7154086617513813 0.9970552940039087 0.1669381287178673
Ni 3.8915255371678676 -0.06163871316807392 9.402801938405677 2.546604661923898 -0.5541354661742456 -1.2693214919373301
Ni 1.9669521192465946 3.836343294707069 7.713837782523429 -0.47348895886577164 0.31684115633031884 0.6583726163184661
Ni 1.2079923187886095 1.8850131644635735 3.573611107547231 -0.6893610942801806 -0.9290007644278323 -0.04494751124496776
Ni 2.403653928156375 1.2403302995855294 9.97283672811615 -2.0924689107737575 2.4250940694112106 -0.02680632155956674
Ni 5.039431143357613 3.186876485422141 0.12653162107803972 -1.1113182038152474 0.5235696775722467 -1.0537522324753206
Ni 5.864559570234067 2.203284535672708 5.104031081028708 -1.3464720702774036 0.24309369013452328 0.7734181699321002
Ni 6.606590141066141 7.429150442747425 6.881018886876608 0.7895207319209178 0.37837613962032257 -0.8639582822052024
Ni 9.217928446467873 7.774011644497147 7.058465212410623 -0.2789832049422808 0.45167777652795116 -0.9107647010357798
Ni 5.350415343435332 2.272642458362432 9.18240858636777 -1.4061016090145784 -2.9002719859436312 -0.06673066855833022
Ni 3.007654723155725 6.023440297561135 5.123665649759131 -0.5179484747307274 0.49730740144160807 -1.5555199836811275
Ni 2.671499187681322 6.4733257672201185 7.958113771755391 -0.46622584954545515 0.6396971513961499 0.017131774584280172
Ni 8.10553157492612 1.5762076987572071 6.4515625286528335 0.07189292948556006 -0.027049547918624385 0.6769660630499373
Ni 1.9703361109297584 3.536985192083289 11.265779290725295 0.12484582753350758 -0.3356978840255057 0.23468772545901515
Ni 7.91710350103948 6.404310879303757 4.967862037061219 0.34772756149653017 0.8696977557921409 -0.07430359580958172
Ni 6.002487362755792 0.5755604309246279 7.553557102472641 -0.05048823855753886 -0.0788917294008964 0.5837072662940915
Ni 3.7664569130421657 0.9420198437020166 4.914357883626866 -0.6246981068841564 0.2255006596431084 -0.16787349604794313
Ni 6.909582558045538 2.408067024159625 10.80048599701631 -1.257106437928377 -0.3839883436007774 -1.4880475518607663
Ni 6.1105896724152196 6.614637551425007 10.731404356387293 0.9824061766321661 0.50272985800876 -0.1375463058193115
Ni 5.4184103982417 4.311483540653556 10.391166707109882 1.5631638733796305 -1.0928679675298598 1.1475746150441204
Ni 3.465949180367119 3.2771317156566635 9.351808428663928 -1.4309672619080065 0.8113365422444285 0.4628708170302932
Ni 0.039929247619316044 5.048146080843022 11.466117161094653 -1.4525059073107307 -0.10147835645216072 -0.28381842154739506
Ni -0.15717482467035032 3.023202542478098 1.7152610161839623 0.976831510757866 -2.0419081671070702 1.1728115352340382
Ni 8.51592168959804 4.006312389302806 7.064272698411538 1.8830633569202986 2.1273055588369685 -1.4691985374750633
P 0.7516791191736326 7.2452096345447625 4.812221597660907 0.5708180690362491 -1.6211345363571434 4.484882973453444
Ni 5.132745872922119 4.664781543585959 8.181587019785482 -2.7437182857838813 -3.9007800143828306 0.27874357812764894
P 7.641859815862028 8.292040508323952 8.86061137396108 0.3027180866653755 -0.5794582612097504 -0.6070225439812643
Ni 3.447425302605581 1.1091426767998598 1.9354643084150065 0.8420113456204659 -0.8481138589737781 -0.19482328516390962
P 7.527805389324268 4.671836934465103 10.04122673647239 1.6724982355411002 -0.7490626239058712 1.7760275609850185
P 8.235977500904522 9.027386536680517 3.1124027090042805 -0.4545998352707526 0.423470975076432 -0.21425568285690844
P 1.0187483784139741 4.067242782019938 4.260139579170373 -0.9220783262763862 0.28176102479773407 -0.040992897472593916
Ni 5.0385596496090725 8.561888349228525 11.544330943663166 -0.8960340796938246 0.16163574266834743 0.608167713329301
Ni 1.7442112968136818 9.09415779175489 7.631634598252818 1.4290942132550097 -0.057908956501642204 -0.06987358506268611
Ni 1.3664929265019528 6.678581087421669 0.863329520934833 1.1363224391690687 -0.3983638955961591 0.670524935410284
Ni 2.3005024446854665 5.465128025889544 2.680639673709901 0.19057042342482663 -0.8146172698782294 0.7012897273969664
Ni 9.546286894255863 0.1173049127956158 11.921965873084076 -0.30884271150587456 0.16270712135565527 -0.5000967912612871
Ni 0.21701121459676107 7.074554470402302 12.671252092933258 -0.2229339273571967 0.029465870669600866 -1.739381884737527
Ni 8.845253614445571 6.014743902495908 8.357867027090068 1.3506012619544288 -0.6577419247130026 0.18713234427755512
Ni 7.738326756857427 4.122573363842191 4.667314438182782 0.34336568498340864 -0.09313898334852992 -0.15875996378244916
Ni 2.485286933006398 3.129330084388173 1.962183008775856 -1.2233846201958996 0.0351354102505524 -1.2879799875787816
Ni 4.536811030701818 6.263518282863956 12.373865976695805 0.46831667063621285 0.22044381394549134 0.950072754606783
Ni 2.211980930737935 6.124014384626785 11.737978708830958 -1.159226340350436 -3.0458419333983673 1.690485159036824
Ni 8.339360764627703 3.077578189660992 12.073847763913555 2.9979312257600177 -0.9340516965881784 3.314917135198317
Ni 7.0128823808779 3.876654516182128 1.1027937521296387 0.24052284408355348 -0.5320538037838578 1.4471438716678688
Ni 5.539427503557696 5.991816199941212 0.9576566666412611 0.2131017717581233 0.7316755387776753 -0.30162742470435794
Ni 2.6268768535140126 4.63245283399913 0.21312935893171797 1.1144032704984743 0.7281852662362297 -0.42531831269781595
Ni 6.997501443337164 4.820769653364679 12.680478801215681 -0.7972584668848076 2.0872130616914566 -1.3018071232698614
Ni 1.3053956520031853 5.104839530548631 9.65502891741156 1.233219089787818 0.09283662161676269 -1.5088480335458851
Ni 6.655625571236699 5.944013840712737 8.631899892229654 1.982909062865043 1.380161492110049 -0.009887177206724908
Ni 2.5539958709897617 7.901175562103383 10.707359473016648 0.0709634756927552 2.5939062752233393 -2.1586696749705463
Ni 2.974009501735994 3.2525537377057936 4.102042269095981 1.9235690303438293 0.5433735996720512 1.7490150369519168
Ni 4.623255793588997 5.896749211669533 6.614842445168016 0.050311089549726254 1.9735638742047172 -1.0291004953649117
Ni 3.3529238581494445 1.4179481425062261 7.453157314156699 0.32927783943177485 1.382990991139044 1.033898173863871
Ni 7.9585550813557155 1.2896253236386321 8.90425003273775 -1.066735532108866 -1.7495068889866707 -0.8327831421539786
Ni 3.9226953454933393 8.653543532186767 6.80595360725495 -0.2216180367592506 -2.110948971855816 -0.5592756156142883
Ni 6.8770776954669826 5.491634415539312 2.8951031597736936 -0.6644090523205333 0.17054435801188694 0.05335758968553392
P 3.0828256945724184 7.900878883380476 12.755314154827087 0.039547937495951244 0.5834067043345372 0.5977166931993061
Ni 7.901231189363929 1.945072063432165 4.270682799285699 2.145919831504046 -1.8586242500413281 -2.0027345822314024
P 5.649189359823388 9.018059699329111 5.602718346363961 -0.7098964952293709 1.879732492774853 -0.25641868937820356
Ni 5.307508183134831 7.346590316888317 4.368463470750972 -0.35489219756576945 -4.625519488162304 1.6338658678808828
P 8.074343224180467 6.285157287216023 0.6128446023050217 -1.7798983567943345 0.07164533225112822 0.7356412082936428
P 3.8745314090713214 4.31810318465843 11.787738220509613 -0.9086515113475189 -0.7993184347376299 1.3744582710776845
P 6.763282862811766 5.077647071352139 6.403934468174068 -1.155773348804829 0.5075699597098807 -0.06510136048502338
Ni 0.6333506647839859 9.178034429446901 9.399219542826568 -1.7073734501517304 0.7165893338685142 1.3225983489835997
Ni 0.7218369481331722 7.652846199819697 2.93963741744514 -0.19200535609914027 1.6558698829557998 -3.2396989979942656
Ni 7.271289548530351 7.849636905208293 12.458688277817082 -0.6447781654634831 -1.3660571914981827 1.2685866706538347
Ni 5.845803912220257 -0.2134056409924256 3.3502055393508043 0.8416783877610795 3.2327647327682776 -0.7306967198041738
Ni 1.1438170025396763 5.512031077739204 6.339099968887674 -1.4219573450999126 0.28148514542852815 -0.7736390276936547
Ni 1.6265781831808497 -0.12118954982368615 0.6464165811650349 0.07358163004189262 1.249517055616893 -0.44785634589933193
Ni 5.140218468255354 4.723866965495009 4.718471121222129 0.6121804340331198 -0.6283318469820017 -0.6516008448122714
Ni 6.815869166447125 3.0198278220050243 7.940473440315512 -0.11196922868115555 0.6857245259688578 -1.3690962354348226
Ni 3.165589787053526 8.186636120800964 3.5582644734838307 -0.6917740745970473 0.7505939729487332 1.4122737992635612
Ni 2.6177261691543334 0.7806117845041796 12.135519853437955 -0.11748938716843636 -0.8613056750737037 1.1490082621668534
Ni 7.067563977993793 1.0235230516107672 12.892771896997203 -0.2960476166237353 0.33865079600624254 0.21074895525523063
Ni 4.571012524727 4.213894783237162 2.3671735706908588 0.06651649566499511 0.030108132239290084 -0.09292583889645932
Ni 6.313916580917871 8.5698245050663 1.1842311344467442 -0.6807026472742341 -0.5138239110393925 -1.3194466907284954
Ni 1.4499801733701476 2.328547855210318 6.015389178718232 0.4058710026064817 -0.44716677603147503 -1.4125939016071416
Ni 7.751862723590083 8.856907525529781 5.273987195930318 0.7507166145695264 -0.05205558304465873 -1.0713956565886966
Ni 0.08282713670972547 4.63244356278904 0.29141638405994924 0.6885758793747238 0.6286378082581947 -1.9142595800174451
Ni 4.556150774951352 1.6545401528148838 11.327234433933569 0.795724032518152 0.9737770402022585 0.5450152490405323
Ni 3.4006056916467378 7.96635216904213 1.3238101294856515 1.5590020286924569 -0.37947477200114 -1.025548002126963
Ni 4.948944132870819 7.38078253970341 8.505569456410587 -1.0223546920006459 0.48708546660328367 1.2027355764869803
Ni 1.511355584171641 -0.15121992642899093 5.454540303965781 0.032397442494099045 0.4813830169018678 -1.1644179118537044
Ni 3.8272296951877536 5.816924092787228 9.976175290869872 -1.1113521423769763 0.7927952889071315 -0.5552865490595533
Ni 1.6153043917103638 2.6415068230373895 13.307640933264018 -1.1039800182826214 -1.5026416476248574 0.8289288014048949
Ni 8.741026670604123 8.51408599000005 0.7117943733627526 -1.3423266806504626 0.36501797314586165 1.9473730747419624
Ni 7.167405639462266 -0.01978847081793168 10.774310589566785 0.21840570046953997 0.0867150821000571 -1.7517355212068737
Ni 9.252584229787507 5.35588535738894 2.5401826950753894 -0.8449354612457963 -0.14176111523160748 0.8836994693878717
P 5.157666885646352 1.0760537279855802 0.3525711400612803 -0.7494824850521092 -0.7318771132655202 0.5819445179667139
Ni 7.26987105338645 1.387622014299023 2.0403012978804336 0.358842183352453 -0.3810881392348469 -2.1619131216085092
P 4.13313327213568 6.470776184445132 2.659959312481228 1.9341228946002755 -0.5973595669702034 0.26460173940962817
Ni 0.3088629472089297 7.201755472848902 10.322275126287732 -0.9014969025806087 -0.5958616422684383 0.030511795435611968
P 0.29319367503436716 2.3741992936977128 7.764546666115388 0.8664429963002692 -1.1351042504912516 2.0150864189285365
P 6.253412663864919 2.943609203848064 3.005774521749299 -0.22307122426600934 1.457115381058284 1.4364457685240746
P -0.19403715599160987 1.3428884256106233 0.07241649489869872 0.542835210670078 1.3412470744330383 0.8680339949364727
Ni 3.861171595330392 3.369324628800176 6.445700342512382 0.5548309495793735 0.5496000401977373 -0.7899521630313815
