# total energy = -381163.2048142631 ev
CRYSTAL
PRIMVEC
9.31505071561756 0.00000000000000 0.00000000000000

0.00000000000000 9.31505071561756 0.00000000000000

0.00000000000000 0.00000000000000 13.63351830206691

PRIMCOORD
 96 1
Ni 4.590559517067149 4.509341588836431 9.9277371256543 1.092778493139847 0.7900622062466844 -0.1823691185609569
Ni 2.454096717745598 7.014522045361391 2.5159290936835133 0.8349629234141168 -0.42737879477127044 0.17940643638820714
Ni 2.9499461887456393 1.06578154129116 0.18393406228362644 -1.2672625525257724 -1.9771533913281885 -0.26776085386390014
Ni 9.248699727942517 1.7146586674092468 3.0434646416040283 -0.031157656549726985 0.12921027514979036 -0.3446548361084774
Ni 6.314337619243901 1.6514560474934972 7.741820721449517 0.7199572218994826 -0.8719592981328079 0.8530138673785567
Ni 1.9875058214184185 5.989940973913615 13.363016093007218 -0.21313185366511037 -1.0311098124854565 -0.20829483728778322
Ni 3.3489657063154348 7.648830431973475 8.979935360714343 -1.618306065769413 -0.4565446177019492 0.0035604636577487065
Ni 1.705697588505938 3.329227113595984 7.987619762348981 -2.1444062230729974 -1.276853024427685 -2.251723554804438
Ni 1.46930022841428 3.018635373603228 1.3536939270158426 0.2575142364352275 -0.3853165754938977 -1.063461746453601
Ni 3.053138321896218 4.964577438195695 1.679145036100655 -0.392157252564815 -0.4037351872104014 -1.1028212220878297
Ni 8.608448338897677 7.4782811662347175 0.25973342544360156 -0.35685137817466933 -0.8399256667360309 -0.012067215577179217
Ni 8.465220117258095 8.458215199030144 8.790075063089464 -2.169386804277735 0.06110843727554637 -0.3844519135007573
Ni 6.845267571688705 8.404579136321981 6.464619197375776 -0.4229366998395168 0.9157652395741648 0.599068065020878
Ni 4.192247943360817 2.8611644392368683 4.92313198251535 0.4903086015262717 0.6821172682335737 -0.1714038777987048
Ni 9.233413729522216 4.0453495916922275 4.738833701744074 0.4722998236536769 0.24390693006443803 -1.3881604511551253
Ni 4.759422758604764 1.9068095360344626 2.462608811198658 -0.34361379643847273 -2.034235481053161 0.5501700537685944
Ni 1.1337534672344507 -0.016828570838584186 4.310945910131404 2.37044655726966 1.4378457341953947 1.0887380045218862
Ni 8.401393388936398 3.343702702593637 0.639912321194444 3.1117843017274476 -0.03671458181221419 0.49045078353109073
Ni 5.9781015443022785 8.660705774082254 3.966999767613619 0.24865730026522978 -1.7828579536432907 -1.2569979373749707
Ni 3.8671992444720784 7.658965207281999 4.445958256934481 -0.10633285633098462 1.3727407741659454 -1.6840777128485833
Ni 6.393217469715024 6.417874409275377 7.504379144159251 -0.2720628236733637 -0.4961401206063842 -0.06136143382661691
Ni 4.846183142082331 9.034099586804855 12.904043045252934 -1.9961433021671302 1.28409762180524 -0.7928186859458991
Ni 2.6694048027467243 3.539383975485333 12.451710697238951 0.18523332748262938 1.3560208903081032 0.8313551514582005
Ni 6.21524410846074 8.203737325267673 10.053725051208389 3.881423207122774 -0.8578557688518902 -2.121008670084663
P 0.6859966721906399 3.780764887773737 12.615080853299142 -2.247171673767698 0.03085812303143718 0.42600736834504044
Ni 3.030838090197131 5.452462540731778 11.286971644906822 -0.8107385036491134 -0.06684508264900746 -0.3722810824661782
P 9.179162873458939 1.126459782430614 8.742957672955663 -0.7416650458902194 0.0008988576651855487 1.117941879779352
Ni 4.852955184039406 5.046997007984134 13.347636944078566 -0.5263454405451709 0.8552689819613207 -0.15489919527546225
P 0.6823004600192958 7.269139644886388 12.161984671116688 -0.4993439722556626 -0.4263027880982723 -0.8875676940940262
P 6.079579708099209 1.6818696884699043 13.038292489392623 -0.7989463961101917 1.0206845033870744 -0.8409435664775841
P 5.058026028172822 7.981238021021895 7.940965330241681 1.6503031875012997 0.21390755548887028 -1.0016696528474685
Ni 4.041204394070635 2.8125212437762865 0.5280208620690208 1.0619676784065775 2.3455580215580962 0.09801199517011507
Ni 0.6335482784639442 8.767987214549416 6.7698054133689585 -0.8351017629848263 -0.8449609151670932 -1.2230578329841002
Ni 1.1118910429246105 7.874701784621537 9.486583770147448 0.2695354292658197 -1.115946703726194 1.1734064885055597
Ni 8.211282516444056 8.662484948791748 4.646752561229531 0.8854038536734881 0.16291563782203555 -0.403232279432054
Ni 1.5548030800291168 8.207016223161606 0.5202493151573465 0.4689496762345214 -0.03974874065284767 -1.1329252405620616
Ni 0.9480672438887531 1.6106002345310095 12.614712908791159 1.1841107622969413 0.7258005680541371 0.8952462936852066
Ni 3.5816743062764167 8.858836905343567 1.9398183501735122 1.3397095547425895 1.3310053421003722 1.042443749441037
Ni 0.7211209343743271 5.6282934402940015 1.7387231697364907 -1.3318658903284546 -0.4274225035250123 0.36755565196605083
Ni 5.434251616349274 6.6848996565126475 2.5313492288358392 -0.8596709676837583 0.033678880309683926 0.46473769503570284
Ni 6.451371332078182 4.0898755346837214 4.219737589880105 0.572799361132336 -0.4431021190437982 0.15150970997793908
Ni 4.28162585612303 0.6211834799855115 8.273187549778484 -0.5734087125815609 0.9768541364656854 -0.6247425869688467
Ni 5.96917772560231 6.208052889216089 5.010032091755443 -0.05232040667027118 1.4832028221739553 -0.026904023479695602
Ni 4.445263354142187 7.135915787843639 10.81692859074018 3.171859155532157 -2.9168759130488993 0.9049892320045833
Ni 5.158712412648775 0.8461633822686604 5.594241340461428 0.585269725685205 0.0944150218474761 2.416322236755852
Ni 2.978189422877482 3.0329898669400253 9.622864826874258 -1.076546604662017 -1.0327674026935374 1.7983087409807226
Ni 0.43905933207913345 2.6151818918359533 10.36286457477596 0.8342813239660599 -0.1721314999933487 -0.6375513086977408
Ni 3.7731451761906745 1.882730129625883 11.679166956234868 1.0515068880845697 -1.346026755209869 -0.23820448036302203
Ni 3.9593716724848043 7.31096422313572 0.2690587228345606 -1.7860623195132013 -1.7234233045257417 0.6372170652867736
Ni 5.793747373225992 3.6033504295695558 11.643788393163383 0.28599331771152686 -0.6270990030161651 1.180003424996787
Ni 1.815168065919334 5.191734267858993 9.152398869399702 1.675627010978069 0.6482021035433675 1.4904610463982653
Ni 1.7913308508324655 0.6439010259620083 8.301190455598784 1.731845724261482 0.30544756978139653 1.1967058253531326
Ni 8.750838205962108 0.5949345982374509 0.47850484634519597 0.21744590765943195 0.24612322098946646 0.7852318747375767
Ni 1.7606936486360172 6.453429958312725 7.360232458507333 -0.7781981078192469 0.7163651336728502 -1.4783105270786605
Ni 8.646751827931364 2.572043891418881 7.33791452821166 -0.5336273189185649 1.4969911342072995 0.4802224209348632
Ni 0.5783510132358282 1.9674877771739163 5.521111670870775 -0.009435177270970848 -0.48804397386181114 -0.2616907364104203
P 4.888044980535002 2.2770828067273228 9.723329513140337 1.9012258867619385 -0.5099011789462186 -0.30801070252288243
Ni 6.572029185544462 5.866255728925947 9.683110849654966 0.5621236265860449 -0.43899298197143105 1.6418825675377724
P 5.2558497627565774 4.516197466251021 6.119023359355106 0.10418032876435607 0.1073435569836861 0.2053002734358335
Ni 0.4390937977672231 8.097266294223159 2.6412081438690564 -2.9175927366102656 -0.7173439526463516 -1.3538012569489652
P 1.6072468162303948 0.5530159379746851 1.8735045032788586 -1.1088512303319935 1.548013133781121 0.6079401706995272
P 1.954707527428241 5.106399087159188 3.631560129518393 -0.0013421158501912371 -1.6034425183940193 -0.010243274994563003
P 7.310843127474865 8.049591864049422 2.0940672084560314 0.7799929949361406 -1.0833487151855148 1.340014487577518
Ni 4.307614847952793 2.970420670481058 7.323585185512116 -0.857521011220291 -0.3423948364297071 0.7820020549463693
Ni 8.944134825840033 4.737215677414027 8.69139514056338 -0.5427295383301491 0.22134884225826393 -1.0118311667615028
Ni 2.72944030537856 7.851786759567338 11.753524349525579 -1.4885802844357847 1.2170067416940138 1.231665629257769
Ni 7.710598534060628 3.696752444292507 10.291329641888268 -0.6633075917262383 0.44898146064271066 -0.1149977310948342
Ni 8.09841204547587 6.10378952521948 3.7968668846471885 0.6915593874830799 0.8119088698081307 0.9842609704527178
Ni 4.007027472556872 5.298549955784403 7.879901445997657 -0.29656903634484405 0.6358512952874985 -0.10213218798607572
Ni 8.06867840321042 2.2048539025524185 12.177962777814031 1.305340076123784 1.217821010065193 1.7093488287105463
Ni 6.2807661760344144 3.443168815410199 0.8034110249561585 -1.7827803063278203 -0.40294020211293186 0.5194422856674344
Ni 6.699011958527734 1.4934168950261997 3.7140840278761833 1.2755427902566936 1.4617248548058375 0.4984068051533738
Ni 2.217047304095487 4.1702178481359455 5.953771563026236 -0.11856230851764099 -0.44657670785595993 -1.1113223175803055
Ni 3.600369613302343 6.0227020077004525 5.718306639523166 -0.32661803321142463 -1.253709753542002 0.6877556974662735
Ni 8.068315116227854 5.137790808473274 12.652859904970818 0.44567862152172283 -0.7271645382811992 1.048674046621465
Ni 2.766439687295341 1.5023127685736635 6.356695949906081 -0.5647109276972468 -0.06653372205617575 -0.9637638789406305
Ni 6.892718440642401 8.834515307613275 12.179762445635362 0.5214048087104439 -0.9958749005425624 0.6942945270260559
Ni 3.1654871500176416 8.48572254414602 6.70596005494559 -0.057392421876539874 -0.6483640830425285 -0.8863752164478218
Ni 6.40160101546656 3.9575645526228063 7.974395184678474 0.012327925437733606 0.6237449989422676 1.4304355577742525
Ni 4.569833528959184 0.04046364932233248 10.455504618340605 -2.7088705819770764 2.1618429304922056 1.1614945675593222
Ni 4.517473628215421 4.023328811518192 2.9187724396210926 0.9383338689033002 0.9696537620625042 0.06890273650898456
Ni 9.014770856322144 9.138679662529853 11.75120676487782 0.6552464119846585 -0.18252955539822113 -0.7376299565888974
Ni 7.352024967216579 5.529656367001758 1.6753547419158772 0.5059247107969739 -0.9260848763326179 -0.5715842577783123
Ni 6.181858966267955 7.1407968744812 0.3009832650564115 0.7068538517483053 0.3142857368983168 -0.7084615625550573
Ni 2.2730866499190903 2.5920153604092073 3.5717090648930903 -0.228299048323852 0.13192561719842438 0.4295428923021247
Ni 7.824689276688204 4.924317788486651 6.4900595327113555 1.0785798330419618 0.6518548698046065 -1.3244477434875126
Ni 6.695500184362923 1.4033776136546983 10.82636380573099 -2.211981756130126 -0.9646925614024872 -2.7365487646186355
Ni 1.3689678158700587 6.9079578638085275 4.673065716828353 1.214236120927412 -0.013961604386414663 -0.11784162830153254
P 9.101456719393031 6.761236498105805 5.921705432031693 -2.1790770349823054 -0.05853836255552499 1.4426806936901928
Ni 6.372016414014472 0.2920827339835303 0.9446737708695478 -0.22356101941823434 0.13503948023705775 1.7885830290525262
P 3.9749836976843325 0.4009393495468972 3.994947714633991 -1.017298360523661 1.3234254728705854 -1.3533801102511467
Ni 0.3779740232181883 5.231509534924617 10.935881789903645 0.41140967303652376 0.6774347751562397 0.8546382903558573
P 7.291635492653011 1.714677297510917 5.889121384210721 0.6131960197818279 -1.0250093560146736 -1.6814960681643363
P 6.445717096221313 6.172860627161306 12.006440089263014 -1.8246898020774123 0.7903709957363549 -1.4689226581058574
P 7.873285896894611 3.469120547036622 2.742409650656187 0.3400803293639175 0.05210854776978123 0.016916059029048285
Ni 1.7584859815881126 0.4413974098387286 10.850453458695489 1.1993214085991086 0.49314041454811197 -1.2260634525796432
