# total energy = -340889.01463076833 ev
CRYSTAL
PRIMVEC
9.05431642577101 0.00000000000000 0.00000000000000

0.00000000000000 9.05431642577101 0.00000000000000

0.00000000000000 0.00000000000000 13.25190731344674

PRIMCOORD
 96 1
Ni 6.608890284221499 1.722502173620776 11.444770702604938 -2.1998140104193404 0.40000580207495623 0.3336176044577093
Ni 3.9763659494256705 0.3008812662934905 5.868858383077898 1.8469018193980773 0.12166665847457754 0.7210203730566743
Ni 2.6667949217205966 1.6947597486967374 4.649855869742986 0.2702440252970701 -0.05921970489326575 0.6360073612493885
Ni 3.212480452178158 3.968733160845068 4.578785825370838 0.750279784142424 0.7546555446126165 -1.0604263020613867
Ni 5.080929149085677 4.4651541567035125 2.464523308039774 0.14267591373639296 0.2590173033433152 0.9440131786762646
Ni 7.192413802197847 6.2813413403402905 2.6556155574733022 0.3896211164065225 -1.0135736033739058 -0.531352406841459
Ni 5.096185671930652 4.722577421395205 11.665255978810954 0.5253121141846502 -0.8087392138308975 -0.45536113891680935
Ni 5.937648550623714 7.93312024990047 12.485668477704442 -0.16337380840537669 1.8528189562134605 -1.8796707862989823
Ni 2.1149977278088166 6.0940709177868 0.33736201180962777 0.053798790988010575 0.2680061371054868 0.25370283310893726
Ni 2.5208755613825393 1.2240167936622401 0.4758984826949892 1.8584247324360121 1.5466720463721946 -0.7879312759466107
Ni 0.386015380063323 8.933613138830417 4.746157577149015 0.6222393609310187 1.2483181502127856 -0.4322682616530878
Ni 8.547681963908019 2.2742359873189564 1.6695018281457912 1.0433919722869192 1.4219460322460027 -1.4947483609197094
Ni 6.6778841738824575 0.7409463870826781 4.9842544038510335 -0.614816071883754 0.3277927702458161 -0.5266364894230284
Ni 0.6620452646045258 7.509278652929458 2.6898453999750407 0.49132161617181835 -1.0369019936872013 -0.27529110080267427
Ni 7.680604424604609 3.8394103621538 3.7763298464216573 -0.6817673410933226 0.7037284187454461 -0.3101408614920078
Ni 7.483374254199799 4.024996681888794 12.485430349187633 0.77279390608454 -0.36984701910338885 -0.1426095792748318
Ni 7.890664561105163 0.02954876101161896 6.8415753461137605 -0.11557982885054932 0.12448098799492112 0.8041317969658731
Ni 7.21639868588707 0.583918286163908 0.39225289851311745 -1.2427314001536274 0.7554461588347119 0.39797874434259845
Ni 1.7529699477295848 6.326250748833512 9.244517533188827 1.0734720795017512 1.0266872579377286 0.22150619377173464
Ni 9.031291102303175 4.860067213324555 1.259682650717815 -0.5571439139832662 -0.00016866436738035466 0.1469089779811341
Ni 6.317522387989265 2.2172843382418668 7.011637135243417 -0.18299903883547194 -0.4038010074513304 -0.15367097929531598
Ni 3.591774813305086 4.0832521525027845 0.5120804357755868 -0.11862555765540862 0.7760764334905538 -1.0480186724256533
Ni 5.968469443065434 5.649784674771898 4.785634395905154 -0.24163536042144187 -0.7468936412790105 -0.03203800227215128
Ni 5.049184716388654 2.6158100670380695 9.749958438874074 0.37944160477035943 0.1749975086872341 -0.8608292496579174
P 0.32164281340537715 5.723151799171208 12.346020136786224 -0.6826057778342179 -0.4867036577838328 0.3179433882555621
P 4.197888850271471 6.224371582630742 12.838328662213696 -0.03388045479752875 -0.44288768904014686 -0.785504411672673
P 2.217981520591459 8.0605869137649 1.3335794526164906 1.1600390660597184 1.2875518989024277 0.1245871745554822
P 6.174455137263176 7.784231073839473 6.146658386441767 0.003000477389220639 0.17696157439214039 -1.1698403684208563
P 4.719680040202094 0.9403541205404352 12.590411524130277 0.5289746506379018 1.31516477552369 -0.9626529052646389
P 3.841157845185895 6.472794856991334 8.215360489942782 -0.2970377484511465 -2.4599376594529567 -0.9285582775737751
P 4.626710321168141 1.048824828957532 3.7149071759909478 0.4340220111194009 0.37530315712195367 1.1081426343007432
P 0.054588472541458766 5.515002123394862 3.536523564815703 0.5133562273743546 0.6821306379700124 -0.034869301073359296
Ni 1.669751727273697 1.0694143440610775 2.802486526446972 -1.385352292282369 -0.47299530705880477 -1.5523768100664554
Ni 1.8661126833205732 6.325879521868145 4.690432787920883 -0.5632790803467268 0.028050992599945236 0.052254072208710006
Ni 5.977424161815393 5.781298617990457 9.290182977087126 0.8476911696140628 -0.9213278212636069 -0.34949545203023036
Ni 8.44592955813245 2.4853011529208717 10.250203977907425 1.2407642491249276 -0.33636174286174975 -0.7327597729807896
Ni 2.789752536103249 5.023053959753282 6.6215011358645155 -0.8242144266483613 0.3741330480732524 1.7200438465305472
Ni 0.5690212196732027 0.01769213391043464 9.104749675296391 0.39922752914803505 -0.3943393478177982 0.028609179096260408
Ni 1.5109842922074375 0.990189077061946 11.376444116050019 -0.6050543645112999 1.504508268519951 0.7284380056769841
Ni 4.354890693673179 6.761998771644964 1.6768566492181791 -0.699803372659427 0.6602076126446759 0.8953640502099934
Ni 5.344735706718442 7.9916473500013145 8.185186075679775 0.9166278446847762 0.15171205579673228 -0.14939934850315562
Ni 5.40680304446462 3.035821688244437 4.998314851522228 -0.5400476206226119 -0.2255353695357858 -1.1401801223522623
Ni 0.3147289375333158 7.329577638742971 6.563709246241423 0.29839863335441513 -1.0391504234017457 0.8787367260659575
Ni 5.1883223938715854 4.579673148361229 7.093984330478125 -0.5956248436672837 0.06774239765229623 0.07492117478892257
Ni 8.32627676917319 7.041251992763503 9.208153588352035 -0.19962662008982396 0.2718532787657189 -0.23717732465008834
Ni 4.564570548892137 0.11384625596194065 10.499552603386567 0.4324819203257907 1.6458058138515783 -1.0125983839448303
Ni 7.716912232680783 7.407725442110914 4.679500606506625 0.9260769059128181 -0.8546832846611797 0.9268202118367458
Ni 7.017475358347535 5.96938392900451 7.123880777232918 1.695049638479055 1.3828482949135925 -0.9585473677366976
Ni 2.1545741440434685 5.263717685106073 2.574965141099809 -0.03838399909483712 -0.5934124093969974 -0.642634636757919
Ni 2.68757457746494 5.273315260308253 11.293394305875978 -0.968921254771854 -0.19085581587572936 0.9274529603247382
Ni 0.9928872632980308 3.293444147893156 3.729377784187292 -0.19098617080600658 0.1810210891734947 -0.5035572390060618
Ni 3.8071498334317537 2.447173427282775 2.162393451538377 -0.5368275710234174 0.3588496395516207 1.548817117739655
Ni 1.3794612946726503 3.395051684609071 8.222119537007336 -1.6365719539581365 0.3416944679285728 -1.2816481318234831
Ni 3.7332847216398775 2.7036912603516203 6.99250083789454 -0.30025676960907643 -0.6126170073499062 0.14292428230177318
Ni 4.072396027344847 6.8658608331017685 5.7603523628275095 0.5585081413206445 0.44242617602269607 0.9402393134561292
Ni 1.228634494938761 7.650951538956363 11.977523953193371 -0.36511284685251316 0.2580181726548395 -0.32578293890463894
P 9.323138877295518 5.587155969419557 7.93603664515766 -0.9262689673189661 -0.7603965608614517 -0.5553989062677015
P 8.588652744841855 1.620161237290355 8.194952966595428 0.1191660035399109 1.1893460425539517 -1.107018547998629
P 1.8831619607787864 3.5147587994657012 10.22249414852181 0.843449106508257 -0.501848226734755 2.2665619053688513
P 3.869570289510841 5.949364835823357 3.7621100427848417 1.1264398899480343 0.3258366749607098 0.006100199360466913
P 6.6796588198632385 3.931085313967081 10.36658272611847 0.6700122574399235 0.23163711155814948 0.13169164681074738
P 6.498165051063513 7.837533833476488 10.15608888787057 -0.38352220259763625 0.8601239960607766 0.2168884924940652
P 2.1619805747183585 8.121142180700923 5.779819142718725 0.25213368884960446 1.040734480059414 0.0013099770606751634
P 6.801828708734013 4.024679780820798 1.3196656848681974 0.9357393687032465 0.3579551527618094 0.7525043025975685
Ni 5.559594630820087 2.4248273748309064 0.4050484582071944 0.08244910773485155 1.6940746761602956 0.7856015993721696
Ni 1.3992087583669484 0.923304843082222 6.834128171015842 -0.08919233999595606 0.9378726129961654 0.33830729662389475
Ni 6.651997883785256 0.993294707528312 8.929200970532284 0.28314530673977045 -1.6413740033324702 1.678574523642167
Ni 2.837043229764559 1.6717346225277323 9.340752238654765 -0.6618968274216407 -0.6426199814698997 -0.2775225612363543
Ni 6.4758823788252435 1.982886199719179 2.8062241481860855 -1.7145573694946796 0.013250180141686859 -0.7150150474028589
Ni 4.322883685805529 6.87782158483958 10.328496650335024 -1.4600801201135627 0.15051417883388918 1.3556323966204331
Ni 8.313564509188414 7.503492944859465 0.304066574742667 0.08141012494737591 -1.7023364019484553 -0.030512309656244224
Ni 7.407381378094232 3.9652653577295633 8.276743321382087 1.3797362316471722 -0.7221323751739306 0.5557820006387331
Ni 3.6162939016517885 8.354263660635397 12.553385708777185 -3.2262595846599083 -2.553844374205447 0.5789011031546998
Ni -0.04385548608422785 4.806058217021719 10.343152872014052 0.8021181089699541 -0.09784847300905729 -0.37677948455716403
Ni 8.637926333757202 2.323210783798763 5.773140679068603 0.24711155304466478 0.012162860614779052 0.6518371291927935
Ni 3.607167150893489 2.79264991729636 11.574626800522061 -0.872940945319787 -0.7220716971393242 0.6645373503682813
Ni 1.0279184127859897 3.406623100749058 12.707849627340051 0.1265206441327692 -0.0654109213056422 -1.0401454403251635
Ni 2.943214141859624 8.43063681802256 7.921777907961062 -0.9109544484490828 -0.06519674841230708 0.8530097536134987
Ni 5.594444693983476 7.9435417678794416 3.802965833902577 -1.005741508923997 -0.050563314769848405 -0.7046427030295993
Ni 3.157683730363444 8.308503146416697 3.6405902538192705 -0.6078992901592628 -0.5744374109563913 -0.05922458998927221
Ni 3.73202617168412 4.5145363974135995 9.205317776509279 -0.5417905714556476 -0.09739287352887742 -0.3330735590287812
Ni 7.393283807726502 6.26392083591671 11.37725266648922 0.02022738279046839 -0.055909152462794036 0.35257306251428955
Ni 0.5474411623742621 9.377193145179499 0.602313940445295 -0.6531388787233526 -0.5352908226639168 0.10652568906808105
Ni 4.464846309951745 0.2538069707900408 1.7144519810620413 0.747386521755029 -1.1941820304900144 -1.1023609946219597
Ni 6.278271927138839 6.095184598682902 0.3444968129976638 0.43369548101791755 -2.8487727896230743 1.1275112686353421
Ni 8.136163291323959 9.019484273941247 11.256500683539823 0.5338463769079064 -1.8941993189324604 -0.6921767093521047
Ni 0.20572040273224787 4.788302702897685 5.664064236895822 -0.4166552377061792 0.3203306575408161 1.1311884603766131
Ni 7.9242832372614815 8.89856388071 2.7143219330354698 -0.2982834479327895 0.37445160775493574 0.03048505596273459
P 8.446020101294733 1.6694619891543858 3.674329352381427 0.728607441375313 -0.26431454718651254 1.3664544269366015
P 1.7891419410623313 3.294440122678288 1.5030047233152848 0.08284737161453473 -0.8978641909240278 0.6583147664973372
P 4.53361384170699 0.9823027676269468 8.11950968748493 0.5707231953295977 1.1141088791865073 -0.18459106591294017
P 8.546523011430775 1.7318643366010162 12.416732535667347 1.346812484335958 0.8277180689262454 0.3125497280438166
P 6.41894883838061 7.997261026062967 1.5194238203639963 -1.2166956382114982 -0.9048655619425255 0.14333051660125637
P 1.7624226538721097 3.1506575809701496 6.029564347248673 -0.14172434845640108 -0.6028321600490004 -0.6120981587319587
P 7.130916886374063 4.013135527629496 5.951895517209215 -0.9590415337642968 0.4757397025731613 0.0949932629484493
P 2.322604144611455 8.426978874266256 10.268743595816845 1.0810025835508414 -0.32850008072548587 -0.4862092346459175
