# total energy = -340867.15730845113 ev
CRYSTAL
PRIMVEC
9.26768984597696 0.00000000000000 0.00000000000000
0.00000000000000 9.26768984597696 0.00000000000000
0.00000000000000 0.00000000000000 13.56420088203423
PRIMCOORD
 96 1
Ni 7.472844284051837 7.270085762142793 5.10537580175212 -0.7549777038387256 -0.8391602493249162 0.43054999341040046
Ni 4.997082844054561 3.2462401161756467 4.298183171622627 -0.4975228598865238 -1.2189659223029135 1.1890750482807522
Ni 1.2667356728263104 1.4757220824180908 3.687984560219647 0.09226712226653787 0.3111901286921286 -0.5898928262795131
Ni 5.099611298569589 5.312397461063037 5.861945528772382 1.474716639079815 -0.5498360674679433 -1.1233034012015815
Ni 3.8698537088595177 5.032170318409971 3.6888659175390335 -0.1500009866428965 1.7986725520780442 -0.5382547903882472
Ni 6.222994342412942 0.20327009839726984 1.8823994410246905 0.5577105851200137 -0.07387267891975019 -0.26839437368284097
Ni 7.374968209918854 4.626922037601998 12.483825882805503 2.9556592044646837 -0.18571618065631887 -0.3101542312284465
Ni 8.907668050481968 6.292363002093408 9.463024179516863 1.0173742080669186 -0.6633394734054382 -0.02918150665996265
Ni -0.1236921514083217 1.29394561067826 0.9281508129866146 0.3700329098619498 -0.7732667319559006 0.7639225717368392
Ni 1.239423790384316 0.6477429503784683 6.080980894635576 0.9853619168263804 0.4029281179280738 -0.42085796293361716
Ni 7.266239670791103 6.790000884551954 2.4527877632461874 -0.46188531318857234 1.752542333378885 -0.8700389411816436
Ni 9.284464522977446 4.011955199691924 8.364744527587533 0.28069530253738106 -0.5083505466296471 0.01573463712643742
Ni 0.7596753299406255 2.0133129764841837 10.137653625366138 0.19323280074833818 -0.07935504219056011 1.4185503763008924
Ni 3.1764173396849826 2.9823982494497754 2.609724972237109 1.2397136963732263 -2.625085014818989 -0.49572051657046234
Ni 3.8789360450635066 7.371511361547335 4.741814517351456 0.44450388448733125 -1.1612629111644903 0.13102958774671628
Ni 6.656342259313256 5.173233827961921 3.7762463327424083 -0.3687604709074294 0.9015511528573118 2.789121396509029
Ni 3.666492787100208 0.17974406732193793 13.10118749181263 -0.8276887583502068 -0.3133601397602539 0.4038971667095625
Ni 6.790297450632085 1.7515285369392162 3.9552258156390105 1.2624918706100063 0.1297851738166539 -1.447375785173017
Ni 7.918972345467763 8.267539434210843 8.974306448687232 -0.143993604106552 0.16696486819074471 -2.4923027060472234
Ni 4.118125856378551 5.185226218827188 8.56427418629916 -0.34455122065107757 -0.20561703334530393 0.15081859744818543
Ni 6.3296469189797815 0.8274184367943761 8.412259974238399 1.6236711867360683 0.2714904961096615 -0.577765961108992
Ni 1.3594403759370235 1.6181108716406234 12.699971582925427 1.4161998737908448 -0.8305493677274535 -1.9409556012513927
Ni 2.374975311203014 2.887432229978069 8.43507517349042 -0.3000449107085865 0.7897158786508592 -0.5374790885644873
Ni 1.1752079663461144 5.973452521363352 7.337609224743447 1.3320733783535703 1.4274916446545802 2.6458656990097658
P 4.515061019252872 7.585465252981297 9.757570829995217 0.5303378495340156 -0.21788196675558608 -0.2549770718356706
P 2.99814405476669 7.415171449156509 12.314246617880029 -0.6565682161198757 0.95960383402567 0.3258297329821743
P 6.343205549455736 9.078388168046942 4.794836825402741 0.9813103724648261 0.2625805952145413 0.306370338705982
P 2.3207593246792046 8.813350769310546 4.300448195059621 -1.3359778556142992 0.06743309394199355 1.834292872384815
P 7.914523854265809 7.641034322245702 11.128151896086134 -0.22854073202101285 -0.23412131143258388 0.1895476385872671
P 3.588848080246109 6.266969531482255 6.752869884550647 -2.2346532295857124 0.45709637644036116 0.1756927349820458
P 8.89528641663653 2.6719213666234234 2.453885984511669 -0.1545135298012694 0.13342868410651215 1.747891464870435
P 7.725787347332922 2.5327762689023157 9.5091022074481 0.5399856570364249 -0.28250150250818445 -0.20949477113315534
Ni 4.822711256627983 2.760909726042504 8.631660487087753 0.2096966027313163 0.4151508852465108 -0.7210175448431969
Ni 5.988178880779819 6.687908011467118 12.051372297990582 1.616246612137223 -3.225916856608509 -2.424963457370617
Ni 1.6872015006209657 3.2093639776494514 0.7292115061282467 -0.031350746397139556 0.8131265442653158 0.21769350489386377
Ni 4.290208324374125 0.37734790005071933 5.021697828705372 0.024331120546196808 1.3210227769663636 0.8089675277916196
Ni 4.529222049579092 0.5083698674832601 9.630135458594252 -1.632899904423188 -1.2912172635691568 0.5516142424142887
Ni 7.884644821692688 0.2251168240438642 12.909159101390296 -1.309397019801977 -1.3615099384471325 0.276992142654181
Ni 5.401728725012269 7.520776776752888 7.6078893557151455 0.3998967873009177 -0.43566983113546903 0.742821785202482
Ni 8.352792914558284 4.654428541534079 2.088710268512296 0.12233720217904091 1.0718440569800252 -0.713971436629693
Ni 4.142796447169386 4.545449774776219 1.2259179857413847 0.7657858501978231 1.3264796863158768 -0.26724637612132685
Ni 8.26374894899918 8.987240436856913 3.550836649694416 0.1855680851142288 0.5217519076372176 0.7159033635450832
Ni 1.7962358735188502 6.2848098347400905 3.584923213529385 0.18414780772793446 1.9807321098183825 -0.38417320591807386
Ni 3.712284443410318 0.09580289187907362 2.733593209755508 -0.4895691522570859 -0.2868358682174802 -1.8694439663646514
Ni 0.6144663826498543 7.689800907047118 5.714815389343768 0.46016344540145904 -0.6870468443247071 -0.8341702523094924
Ni 6.63501730461389 4.265491395133269 10.279168471421286 -0.3678387304241084 -2.182299141464029 -0.3501827079052421
Ni 8.942570171037294 3.0731660053496377 4.8727354669629515 1.3179101994793108 -0.6218922620042451 -2.8571615279074023
Ni 5.734735362238515 7.630255998770968 0.3499173911766727 -0.8556695598338488 0.5424474883133561 3.343550739774609
Ni 4.00771059767006 2.7184266350638473 13.287464353818436 -1.0847129425228932 -0.5340584929187124 -0.07537420316594116
Ni 7.401103095730331 0.526219438431099 10.558971153872166 -0.03261007272553739 1.6340072785547535 0.908879568197925
Ni 3.1244070633821415 3.5132422651929054 10.617228780006753 -0.08529711870660794 0.06654400646882087 0.3548502885842405
Ni 1.4739148828672972 4.8753332004710925 5.475732156463769 0.1055386425644634 -0.3806916751273766 -0.6701094451394202
Ni 7.980046422594585 2.6705404808128175 6.843492137717446 0.32276600645518605 0.39831992973210106 2.728152055914508
Ni 1.1154406335098666 6.029012322937753 1.0284689234356712 -0.6335771545413411 -1.2377470595651585 0.7763237736146694
Ni 1.2385989659739536 8.429649867762036 2.5128905864605824 -0.13406837457304008 0.03976545282339603 -0.8074467202717189
Ni 9.014839617689034 4.272266076526244 10.654137355447961 1.0359041485503064 -0.04530258059154134 1.5630679712317146
P 1.8721753254122004 5.005451568128237 9.37432775233291 -0.6085603207820294 -0.14322330159943075 0.5517911343117852
P 2.587585387586386 0.7438887467876926 10.892609847556692 -0.5748264188646939 0.660193728687605 0.18807053982110836
P 9.024505818363279 6.154988033163077 4.1011502285980965 -0.43891147800121827 -0.8958427896186247 -0.5970338081996686
P 0.8130785400510784 8.476192206962477 8.013567657339307 -1.1230817721090787 -1.8007476894395182 -1.016320569991424
P 4.664539591328519 6.79497763408414 2.684464258274932 1.4349203330184837 0.4888412729521258 0.6520183919656642
P 4.300273035718544 1.069222663459569 7.121680388569617 -0.03019092176108349 0.41872420442006597 1.6880814346913382
P 5.836114623193038 1.796754864159078 12.737747614151017 0.9669402197860831 -1.6353445093089385 0.7340059866830648
P 2.0366953583644523 0.7319973737434703 1.0402166472848304 1.247269140122981 0.7390893147432432 0.73194087662392
Ni 7.15759454087339 2.7140152146219103 0.6111226000963859 0.17685410227999865 -0.6105917493897614 -0.16789175088038827
Ni 5.458039209476999 8.710664764065449 11.820265765897089 0.060921518075720875 2.8126107378802203 -1.1570128776388848
Ni 2.350388129622216 0.4890291252137662 8.664201200230044 0.3133318576254797 1.7574608537264247 0.5345811981914018
Ni 3.3530224404025417 8.338613348852055 7.195768156000155 -1.6334130966141804 0.6053132745996413 -1.089199517539337
Ni 1.909811414518729 7.735333068037114 9.841180222135938 0.7962264260758675 -1.3083022440759016 0.15768190022692197
Ni 6.349544649418521 6.259675859449052 9.629144742532818 -0.25479555195248377 2.382229665947517 -0.9019990390280077
Ni 0.4680637568865588 6.6439142870177985 12.046841324347595 0.7603574800934002 -1.6230620923971595 -1.282667574226933
Ni 3.8727174250707757 5.9050847722033275 11.017563331574568 -0.0037566388289548207 0.8186713853429449 -1.7843628203235913
Ni 5.336456384313604 2.291297338156266 10.811346107756002 0.4255103741039639 0.3860817357946964 0.5274785257083496
Ni 8.111425196092283 -0.06139381243196223 6.489100305806809 -1.0089713287152042 -0.07819727443703307 -0.12460208695381766
Ni 2.882214520505778 5.449781697683373 13.063655200834146 -1.3035557305298517 -1.6457461642582365 0.08253446835980625
Ni 8.511177736727841 4.957352257007114 6.202827848964087 -1.2628045167544186 2.407911386984337 0.007349498386535729
Ni 3.7947390813765303 3.146019316471633 6.489832453317129 0.19265327409578434 0.021165064113389358 0.09752374267978688
Ni 6.438551544217609 4.655188492114413 7.672129275747357 0.48933955274478297 -0.6096088166512017 0.3350098568195456
Ni 1.1377757664196753 8.174704983440073 0.1244066903076355 0.1038828521285953 0.9033226429354377 0.025523855302717335
Ni 8.071694609044835 6.810621494811011 0.08080220883848578 -0.5266616862340091 0.29410900484012575 0.3026265553928336
Ni 8.447175069559734 2.474000578896503 12.326480895454402 0.7100947272831061 0.17015483588295213 -1.3353700468269711
Ni 6.238323101679675 1.6840412183295779 6.245175631668684 -3.211433318280353 -1.547053340971013 -0.9761841069818542
Ni 0.5888940456216236 8.88267309054099 11.491347106731638 -0.4846637445356685 1.2928401438845605 -1.0421966664272373
Ni 1.3619426522381224 4.1193306560790806 2.9012197723971243 -1.6840149779314482 0.847077961510096 0.96256317376431
Ni 3.260067509661719 7.105593532260553 1.2332561426866073 -0.5048826426857047 0.8543778376056188 -0.8459289355073172
Ni 6.166517039528141 3.7024699596960082 2.3209567264762914 -1.029645569235104 -0.5177872665625146 -1.1555668892209778
Ni 5.183168791646285 4.399483657212115 12.213124998707618 -1.3378383058618055 -0.31815190472194244 0.3905204882923404
Ni 0.06249666754244657 1.2228438929670347 8.09830307381552 -0.9441566462326644 0.21043270956639246 0.7215039975613122
P 2.724895482686688 3.4495639671749396 4.686282518847068 0.06947994916869324 -1.7017525044205275 -1.1721499903906394
P 7.299779440915834 6.699668710082284 7.229570201752 1.1579299901365154 -0.4397717691189845 1.2679644636888034
P 6.329100125269542 5.307754348370999 0.5279209863158463 -0.7000311723995168 0.46186808679739166 1.9287760284660656
P 0.8714946436847331 2.812308334805077 6.690108161074085 1.1069064479007968 0.00661673398556925 0.2223957954655396
P 5.0124116033212935 1.8696730491111015 2.507003749769997 0.5731755135248322 -0.3004783987015792 -0.009036142060339277
P 8.351059856527522 8.487313434967362 1.4946253897193924 -0.026300071347109544 -0.0646691580436112 -1.0619381107202226
P 0.6708667637076235 4.574476179868966 12.881080780984966 -0.5321463634976641 -0.3929458099043813 -0.3797575933488815
P 6.863317580174153 3.644760054040664 5.276461066303256 -0.29211357167665175 0.1829455598897172 0.563681457991468
