# total energy = -381169.52083864 ev
CRYSTAL
PRIMVEC
9.28765068026204 0.00000000000000 0.00000000000000
0.00000000000000 9.28765068026204 0.00000000000000
0.00000000000000 0.00000000000000 13.59341558067876
PRIMCOORD
 96 1
Ni 7.138571815703662 8.117713089223413 11.657916576850509 1.4737221363770299 -0.5892716477557464 0.17431179547411915
Ni 1.4803028981889523 7.219940922333144 2.987791678356578 0.1728904896465603 0.20599061463463877 0.31202727988144324
Ni 5.278654775833756 4.462604646294568 0.9124652300894294 -0.6915406184300026 -0.37568110928666265 -2.253341550023835
Ni 5.504140356332623 4.985564386847731 8.649476593750332 1.9027736908650323 -0.5909210104337114 1.6158077248275913
Ni 8.978390379743615 4.259799508483658 8.91431673600255 0.6816375003836778 1.4041707105404524 0.6629913460374001
Ni 5.92046858071034 8.030669228096658 2.956785785699134 -0.564057610383964 0.6161299055991711 0.47886847801013005
Ni 2.4969477047037785 -0.021251073265485504 4.538800531557468 -0.8207974305470122 0.2388547123525112 0.523770223618827
Ni 6.806491869631622 4.318339570016089 4.698971638199335 -1.2577407290782663 0.4621028285160171 0.3363476017943627
Ni 3.42113394981049 6.129162088981595 8.5795795931029 -0.21719985308689693 -0.26933359766765874 -0.9595655245885668
Ni 8.320527514684892 4.374362678244491 2.674899089593732 0.7085914032647022 0.024141116022577777 -1.915446401236695
Ni 3.9452825096364044 1.0923298709964668 6.6307862386491 0.5467931668765614 0.7978935293656453 -0.5173571210036315
Ni 0.1352263347453415 4.237416270613888 11.405011065578647 -1.2212392917181227 1.1020465487053341 0.8081149499833372
Ni 4.579183236228737 3.2801845647849195 4.979159623015782 0.5188560741466612 -1.0383042733513665 1.343603233370041
Ni 4.500553986516924 8.429629545911524 8.949088770965469 -0.6315884062460865 -0.7334395726566336 -1.0525561552846905
Ni 0.6405413967487168 7.030045618812268 8.178015946833721 1.288446385692239 -0.6449123770485022 -0.31768833482196257
Ni 7.707217509402633 4.93386003613362 13.426746841301249 -0.3111075962806513 -0.2906202749605769 0.2282345136345037
Ni 4.472208076982261 1.6856992905084365 9.14498389675351 -0.1554949198779322 0.4792811400675165 -0.568997985108375
Ni 0.7509074772177045 3.5631885652536965 0.42068784755450905 -2.348472366991414 -1.169208134153496 -0.8374381244274868
Ni 9.14768567430385 1.1703089851684945 8.00675259911805 -1.7716800826496004 -1.5027959138145346 -2.3972266535769813
Ni 1.456415060927107 7.615789877207607 11.61910812895058 0.6750269370456955 -1.86795375497237 0.42808456258904337
Ni 9.456407179196441 2.1143893777926523 9.884370043441153 0.8738398029849724 1.0353282214421784 2.1845617122459604
Ni 9.43068038712206 9.180573244966444 3.762154188319642 -0.6717732059950883 -0.8968730306553522 1.6898426403568187
Ni 2.220370758428313 2.6561751860479 5.184202155848612 0.019462479599985837 -1.1460970020573293 0.04119704306360002
Ni 3.032873005450385 3.489268154380046 0.6164092942769231 0.5982792505709954 -0.5815961334883597 -0.4240479306258246
P 7.623182847060029 6.28984773146495 8.264850835822688 0.14169169544625276 -0.5445339385287395 -0.14621889389264495
Ni 5.438560255669368 6.886774321144605 12.550827587433295 0.24832794195026905 -0.21059288929334055 1.3404099232437237
P 6.724769832280542 9.202046293080514 5.753059607980543 0.03411622495741866 -0.9798610416128092 -0.5428663210183297
Ni 6.022837065274905 7.394511602416212 7.2574973949364585 -0.8567131706070149 -0.08912034910744006 -0.5219704514059268
P 2.3656017503659017 5.82882733255224 6.612503498505266 0.07039937565916908 0.18057577410595996 -0.3712672964896832
P 1.256312629431593 9.656834678461847 6.334803675276084 -0.548419389626075 -0.4268229222678004 -0.08113578824006672
P 7.475425614167843 0.7040104144377812 10.651175192136735 0.1820608432919187 1.6290759026914072 -0.19037836201867858
Ni 2.971100841520162 8.245622612850994 7.247057146932555 -1.3324392463334211 -0.47292305905997256 -1.3000027230712707
Ni 0.8340821031176777 7.36393665674514 5.538746142350367 1.7649273373067993 0.5863655298525451 0.24410156257374735
Ni 1.4808694448736228 1.1372542367956686 2.567633226884466 1.4975470067107692 1.6084854801345654 -1.3001747298727608
Ni 8.611983277170884 6.768728282420633 10.140484437984389 1.1924491069593077 -0.2748249597995332 0.2761153964761825
Ni 8.841109616692552 1.2038838419731488 0.8558737176462424 0.6566132104251982 0.07585859900152742 0.7732438491377651
Ni 1.3499878730641646 8.107505961248776 0.7870958788922982 0.9101502073802326 1.125631792224442 -0.252850512410971
Ni 6.376826579037727 5.646362149486061 2.4088757006591046 1.6037546503177993 0.03965566671840912 1.6567417440377918
Ni 5.31986408140561 9.363159167490014 10.667636624004114 1.2658070510261685 0.0357308777427062 1.760927729229103
Ni 6.4476727775732465 3.291097554202753 11.94861260952001 -1.3846709499446281 -0.3845776404453441 1.0224521368104584
Ni 6.160331444289042 0.784694092455318 7.605135084475574 -0.24283940803187212 0.9698985310834587 -0.2230581116398868
Ni 1.8890245367511744 5.266980199069317 10.386388918257815 -0.3835407145403975 0.7987450787326631 -0.4229459558108974
Ni 6.483708861778521 1.4846309433538123 4.290027096023472 -2.110455062938533 -0.7886252166898419 1.7526431206228072
Ni 3.6642939293409635 6.735134850314842 4.868440611825197 -0.5352242310920395 -0.41109239890642096 -0.12911360167092603
Ni 4.68925118311448 8.812772994808457 4.929801332835242 1.5331303031320176 0.17025253780308097 0.07670886281696467
Ni 4.836674060586204 2.0080922170376674 0.4016351611785565 0.6585433375683755 0.7866670645222064 0.4866689478911554
Ni 6.833537508086714 7.3204611644346045 1.0323613688066207 -2.125743356556171 0.5702997346389339 -2.010160442381828
Ni 8.370439348839307 5.791955359795816 6.165306838698517 0.0060539195035637676 -0.7540464502737079 2.7184937068891375
Ni 6.749809338212866 0.9055459304159944 2.094949396387999 -0.13960524523086926 -0.5659771960041801 -1.6346767938179525
Ni 3.4454211560467756 8.628134501509278 2.4043628312479335 -0.7862276629919428 -1.5750092027539906 0.14762194488775865
Ni 8.192032869071504 3.2986948523676793 7.021243712368625 -1.5984851743887438 -0.28723593186937624 -0.7818950970548599
Ni 8.564727711079021 2.161830696895882 12.226937491632443 -0.2523848856284622 0.4320548600907011 -0.6076807463905535
Ni 4.090940733500138 6.256179998154612 10.903835509433593 -1.5727787707615752 0.7463596231524113 -0.5961269801146829
Ni 5.051060898655869 9.103634347658074 0.8430809077533707 -0.5643124067072475 -1.64519671951267 -0.45232363764206623
Ni 6.175841820738218 6.837066815302693 10.103713700619158 -0.8536802973179619 -0.6090249191232737 -1.0335050521905105
Ni 8.617351539199403 6.231094053969446 4.016568942808865 1.1617192819756186 0.59825636775286 -2.161803078393206
P 2.0862942348233355 3.342820480218001 9.324960918232426 -2.216852968179498 -0.14772890277926815 1.0715380957038318
Ni 6.74887128550546 6.946001668819095 4.9150525437326715 -2.011691534314374 0.8776825737698304 0.5641961928443574
P 8.827438195055912 6.420478536709063 12.256299470139286 0.26394687943444867 -0.0298232540090196 0.582664426851874
Ni 4.903628733533577 5.281756851123592 6.568677861768302 -0.6524310540230506 0.2294172210886952 -2.409877509571772
P 1.7537963444757194 1.4156515625825346 0.13309017511461657 0.6214567171287233 0.6531003121759333 0.7556752441263825
P 4.907158040749557 5.059326907661719 3.793636537451243 0.01201785039648253 -0.16764158254279515 2.128193360758561
P 7.414043531561491 2.8163221447982894 0.4251747115440882 -0.962911301132348 -0.11382813626676525 0.6112913465599472
Ni 7.019662025476831 2.739754753512654 8.954471893234896 -0.4845300471712816 -0.3153602009094182 1.221398443003806
Ni 3.4343967148221215 7.125643406112492 0.29462099379969325 0.6751349233784695 0.2478682287050312 0.04848020698857457
Ni 4.023400938566957 6.152696995521843 2.311424098305434 -1.366123268849428 0.7534733513790572 -0.4692034441165403
Ni 2.0977830585764083 1.7156333882902903 7.893655949381962 0.3898129207023545 -1.037929149400135 0.4309559705995674
Ni 1.571795543937957 5.287849549896442 4.547608939356509 0.6821797460403929 -0.33804504410144365 0.14767413828193277
Ni 2.189201403120866 5.430990820456148 13.053484523844002 -0.4365640608149643 -0.23179549151288464 -1.1865468825422598
Ni 3.222935486681492 9.127494321968214 12.622600693495539 0.37733767105347915 0.8052042040944455 0.7776921147171058
Ni 3.9455147009006137 3.9446045111449135 10.183778821108842 0.9240025398822925 -0.2737327551766189 1.251519944979535
Ni 1.5592665033212272 5.050048544743918 1.7946982288137603 0.4279873748895468 1.1421806977220585 1.7370334391100086
Ni 8.519738331725842 8.412465967661179 13.464155640260525 0.18210146672186703 0.20129783714465976 -0.668973531762764
Ni 6.570631983447886 0.752659128114899 12.870612541682927 0.38991576482880586 0.8447225739040419 -0.02994949517423874
Ni 1.8665762853274264 3.0055301621771062 11.958113876051453 1.6705699081701357 -1.38267911632558 -0.4690512348093922
Ni -0.3802893538772737 3.8608113277170863 4.903960302658868 2.349973119906656 -0.8118440780084664 0.008689814464514065
Ni 3.5383998258867195 3.595853232302651 7.81953028143075 0.8446523827877388 0.7717189278528064 -1.5945552432067185
Ni 7.359738638688237 4.78578702312211 10.624219643892157 -0.9415361778906818 0.5155162111401509 -0.8578866220898257
Ni 4.169560695561383 1.3441087902543867 3.053814799951944 0.2944980127484283 0.532550026693986 0.467227294226776
Ni 8.872232533747157 6.500816714125455 1.1660775315695455 2.056377821478155 -1.287602035414073 1.0731519771581712
Ni 9.397430598087297 9.000402111590653 10.314044621685616 -1.0190171429869808 -0.898972079276226 -4.050366796306444
Ni 8.412103749289011 8.238480409563918 6.828135810516149 -0.485098518080242 0.9839879192969891 -0.9365384675657742
Ni 8.505249596839185 1.508119411641218 5.382299383586416 1.1262529707482087 -1.1370552035700352 2.034770527621025
Ni 1.1746648932850596 3.732409558609383 7.008533562565812 0.39818726080897876 1.4829400554308718 -0.015879133124101687
Ni 4.530107290625475 1.9618490048577573 11.575935414048573 -1.0846934021388674 0.46284304911615126 0.5368465971868109
Ni 2.7104615036200177 0.5367268249906567 10.411468361087582 -0.4035030165949373 -0.24767488174730248 -0.6590979245202649
Ni 8.319422284267254 2.1599267285293666 3.2270220529315745 1.9468876504651118 0.16055947888503316 -0.9791439609411265
Ni 5.898178219346253 3.0157001395494705 2.7769582953943703 -0.13218684127961106 1.5734315738542257 -1.238193660184274
P 2.3632241118203994 7.777664338963714 9.52286682036852 -0.30919726663181585 0.21505195350595868 0.3997371217946019
Ni 0.8340598127563137 0.48335905605975055 12.04553295826117 1.3206389112643837 1.7145807665334472 3.1532988760314664
P 5.645126891960467 3.0912923275254274 7.2097300792982795 -0.11222762454886479 -0.13625252670855245 -0.13176852279526985
Ni 3.295964283100579 3.7323631203565415 3.050512111409832 0.1020879650117016 -0.13060766971794924 -0.8209905203944248
P 1.1975589519360896 3.3367649320474246 3.424928883832726 -1.0244779089912357 -0.16656840408327442 -1.058672038374441
P 4.39977369019955 4.730989884768731 12.379400777067621 -0.06960207656885432 -0.6309219763066811 0.7371396472160401
P 8.253740019447749 8.43666029739178 2.2555421623656704 -0.4254211568242673 -0.06270432100775652 -1.1272281901772843
Ni 7.2839885606526185 8.580414552888998 8.849096067416292 0.6446449823197284 0.37725925240706 1.8846777525952703
