# total energy = -340868.1516634389 ev
CRYSTAL
PRIMVEC
9.29011457632564 0.00000000000000 0.00000000000000
0.00000000000000 9.29011457632564 0.00000000000000
0.00000000000000 0.00000000000000 13.59702174162370
PRIMCOORD
 96 1
Ni 4.078258038002515 0.4148435562311941 13.16456778338662 0.752323296935014 0.4259376914493696 0.7341111448023614
Ni 6.4699422540888385 8.212507595599009 13.848022920849674 -0.05791821247302284 0.8380929844026663 -0.7393037447468944
Ni 8.300169115242078 4.902058933970006 8.845311171235235 0.573224878705529 0.5553171451871726 0.07623809382813321
Ni 6.597774228472968 4.518042764410239 6.906009076706701 0.414423520162183 -0.37638019223621627 -0.7131898212686621
Ni 1.864581704268974 7.437637732268232 4.4577016132460106 -1.3217755959719881 1.1930402035760872 -0.4858168843035052
Ni 0.9076460366078724 1.899800528025532 5.192226367684678 -0.9952588642251181 0.5451003525551709 -0.09976651596737657
Ni 0.2575730672810451 1.240620459535277 2.257064884108805 -0.7974358730029363 -0.2653836118809752 0.776532804301682
Ni 4.270712048274435 7.825026213361533 1.198805654542329 -0.40530844523479226 0.8149306873535902 -0.4683539516320515
Ni 3.4242432731283623 4.164507460254132 9.670541815811573 0.48070373144665596 -2.5988114258344406 0.26106390145969877
Ni 6.315986477962836 6.630363949849388 1.972845910655626 -1.0017316164336556 0.2890724708574828 -0.21592792835300875
Ni 3.56760831881847 6.529306085216352 2.9716837103851996 -0.11924982150296883 -1.8697386147869346 -0.39254934579691103
Ni 5.710874875382148 2.000496078196286 7.188079246695123 -1.1501997113717934 0.7903617397649744 1.2600133271625267
Ni 7.567132637133086 1.844180613008251 6.095354621651344 3.2168287782643117 -2.0402834870194537 0.7425492482673857
Ni 4.257798789234178 5.389111762533723 7.022834123529034 -1.2630359160389344 -0.5761340819325238 -0.6776726021986587
Ni 3.130090380328603 5.4141114604310845 0.37993037723897055 1.9095835146980145 0.6616929389409507 0.7481928197064082
Ni 5.573102478571346 2.6686039466417113 10.770894553803519 -1.0488990181480773 -1.085476303051479 0.7464179871941726
Ni 1.2060891042456108 7.512581085273812 11.11655741500228 -1.1923485768257014 -0.8244291137623285 1.3214529225252467
Ni 5.440216681944123 1.058422735580223 5.124255245549396 1.034136772237238 -0.7324584396902869 -0.5884118708586125
Ni 7.541761334659026 6.712609332787084 7.129924988464761 1.1702944252391394 -1.3389392522354684 -0.7402743361902798
Ni 0.3044788549747565 8.562364014445805 7.770942883268898 0.022767118493186595 0.03943275207432564 -1.8373951654592224
Ni 9.185870043573047 7.832653397298261 13.45033727693607 -0.24116407721197822 0.5188794711854289 -0.3858732193283161
Ni 7.155106772604705 8.639927179717105 7.941190733048785 -0.8363695739536563 3.0850594841380934 1.2124420051414668
Ni 4.404517566228985 2.6844621719523007 1.0649146675351377 0.6921201450825564 -0.7379045504065227 -0.9947158472374547
Ni 2.9505774994401923 7.85638034952043 7.453614871043365 0.6622246430747046 -1.0685499596097856 -2.685075279329692
P 5.1441593156887855 4.8474702216530625 2.319393190746927 -0.9788739951091915 1.1265018535342213 0.2586748324022319
P 0.4348498176291754 1.703203126723428 7.316095165344718 -1.0745838245086912 0.05960125660240058 0.01452750419221369
P 6.629295586691381 5.870386139929786 13.313958397287886 -0.04263891771644915 -1.250044388875273 1.9280684608760794
P 7.438798996570414 8.714824082150598 5.824283947133185 0.2973951317905652 1.2582989155745814 -0.4611294088591542
P 8.037983506152768 5.356271208068033 5.545368700000928 0.22132853054328977 -1.362912218111298 -0.4079577099321813
P 6.837115446209765 4.270173221638222 10.258708249694829 2.3104069275782595 -0.22838312339722602 0.5530682012519959
P 0.8884433701070006 6.715907323405278 8.68944813461933 0.1863165332444791 -0.4074638010148982 0.6469821150933374
P 1.6037338716557774 0.21606019100666413 4.116090170944701 0.582068702249404 0.3828467737971665 -1.5656365032898392
Ni 4.653520502959932 3.0868263174865325 3.3995678002241703 1.0157783243347087 -0.716262803767031 1.894854436017956
Ni 0.27742232574537146 5.958447134492807 4.231732586201693 -0.5826988796342352 -1.7807920722531976 -2.3675268125197033
Ni 1.863801334657908 4.792528484988256 8.134622063357423 -1.3097927125784992 0.1684586791274518 -1.072006036479186
Ni 8.600416323099685 7.100053554566888 2.2896564635081074 1.236837660377012 0.03948160303439007 -0.6285917855116078
Ni 5.223227479495714 0.5325177195112824 8.917117252602042 -1.4269121180020266 -1.162501668667598 0.35836832903982796
Ni 8.499163366063884 5.055002087624506 0.6168914676620165 0.3090165180795775 0.4338340634783109 -0.4243641763146628
Ni 5.474673716318449 3.868533705028552 8.703466917275263 -0.24208376081277017 -0.0631357521182203 0.08842769391578964
Ni 6.868097977791965 3.3654461389803134 4.667612677519764 -1.3809989004096797 0.9166676967837762 1.3736306329700665
Ni 1.2553731612301897 4.611668537509314 10.645012574435611 0.14325312639610166 0.7711334876629816 -0.6759574192797649
Ni 5.311019060740628 5.6512695012797804 10.595261224695836 -1.0997816639305575 0.37727339347444705 0.5419198979446602
Ni 6.1697972374898225 8.650805903699942 3.7027683354550858 -0.12888914436494578 1.1543731260231926 -2.01820953793855
Ni -0.17924811262751347 3.869564907728889 6.7338437473110515 0.437265457757363 -0.4945156976290838 -0.011809333930102243
Ni 0.13428024280128237 2.7049468742427805 9.279491171614913 0.4070022879974474 0.29890976866287877 -1.1029749740568744
Ni 5.344138318638842 5.581017656055013 4.542928193900266 -0.2536807216217502 -0.9212190635998845 0.22728243413387952
Ni 5.420428738234952 7.873762153595482 5.9919491451050195 -1.060438643356561 0.045032357649290186 0.6529912974018949
Ni 8.249918886358085 1.2541840265847561 13.323598749018876 -2.0549711709386154 -2.9042230001715788 -0.6520459027694899
Ni 6.6934066662862115 1.6804795068583422 1.5768733638406005 -0.42495604426239075 -2.121856362796939 0.018512456981890697
Ni 0.6294229029997166 2.5092970646112573 11.612237043814043 -1.5138655413651347 -0.6061866783435301 1.2533683110421834
Ni 3.371001627401949 2.8064413742534358 7.52490442204856 0.46077331107131614 1.2229968978391776 -0.332803078976214
Ni 2.835472981807971 1.5228448454230292 2.4185976775536804 -0.902757257350271 -0.42919553626503504 0.7155896889594063
Ni 7.57929339690553 3.447301337112477 12.245259866150521 -0.6697464053730465 -1.072597904426914 0.732284633116584
Ni 7.458271076389392 5.021604126293768 3.142556784865381 0.939981174698736 -1.1923100102782822 -0.48362501885850906
Ni 4.228404867217361 7.4062835961093345 12.181626298436745 -0.5244312542415935 -0.22217468059366896 0.07745422562342144
Ni 5.087963413577623 4.297114553448831 12.69995801323258 -0.16846716376788406 0.5546404308351223 -0.2221415133628884
P 2.470204263142622 3.2290765494465465 0.2330871127109688 -0.859140806211901 -0.7474297162881386 0.553860101025672
P 9.387289014257806 2.8150533103184134 13.758417909270474 0.18109359428264296 3.393261219625859 0.8279538390861354
P 4.819023891306826 3.5430452562987296 5.77748313773239 0.021227284809892475 0.42550086102226725 0.2448196716866945
P 7.6730120711487775 9.056142885847757 1.783983458617492 1.1700316584960557 -0.6101675173681492 0.7083782588126316
P 8.102596251926142 9.09903534411313 11.581956844881802 0.5654694031298261 -0.7091483042094368 -0.6405520431972774
P 2.126154165806732 2.137172241505829 10.187772652048938 0.23210428100255512 0.08850508412094436 -2.9876002761476546
P 2.208845474236466 3.2610066726993265 4.024949503452295 -1.1892974487042034 0.1084974680824712 0.00238058441703461
P 3.5680821146537607 6.8293582006711935 5.3040217465614035 1.6494009874020046 -0.8531079697542598 0.93802173697952
Ni 1.3532630968468737 1.0650001365877784 0.18917831592832715 1.5669454519092498 0.2719892901229509 -0.05178741698493661
Ni 0.18981097272015554 0.20518797010392092 9.740783441910478 -0.9362949840964004 1.276355515965976 2.3555331304929368
Ni 2.2122363659988356 4.9008512190957365 5.399200826791076 0.5375968450892742 0.13386294343045332 0.35462326017509893
Ni 2.243739143988413 0.9525525916789482 8.259673506496409 -0.6183706220042318 0.7307142033056706 -0.15823725850975973
Ni 2.9899211339980982 3.15204292069704 11.780935302509098 1.5803151883479363 -0.71472142742184 1.0540851903347073
Ni 2.8561713567300524 4.012056682663757 2.216165155385976 -0.6385560958131713 1.7021021744504619 0.17248734067087068
Ni 1.1970312426885956 5.703990900598816 12.873510356710755 -0.3840580204964482 0.45607230605122095 -0.5579484121624326
Ni 5.603174578940635 6.615620538268892 8.397724606739734 0.4224965269783046 0.6528627422438305 0.7938612682778006
Ni 6.5089793148709685 3.777518454080782 1.0457565935834698 0.5517433117929853 2.2785147068553533 -0.7041914744247937
Ni 3.8054816984773105 8.722952932265867 3.7360130098979347 -0.8265574729592409 0.6833151451964167 0.5648618514528143
Ni 8.608062087265248 5.368524868984651 11.667726897229478 -1.3535274344622883 1.3523825222245678 -1.018302119197827
Ni 5.879035236452434 0.07676142839707459 11.358557463485349 0.01421768626127874 0.7576755623858629 0.18770081518651544
Ni 8.752021700278073 8.913836913201239 3.951457266318722 0.03569976739445465 0.00013241181280622356 0.40575658851580443
Ni 3.397357682004259 1.9329755266102504 5.1737622652799935 -1.180916937949992 -0.7734359105439131 0.6047576592064875
Ni 0.3776654473439959 3.6863266909590804 2.249110688144583 0.2585257084188773 0.5950142066664784 0.797237126728569
Ni 8.136384398062411 7.365871598393421 9.797850756753999 0.8362520745391856 -0.3308364421681464 -0.2960054505318902
Ni 2.3335931306340014 8.430109945598968 9.454403587843801 0.9191092163457332 0.13739383940184727 1.5326942440358637
Ni 0.7030517048152266 6.484667085440499 6.3590415132305145 -0.17552664171782675 -0.09439805256661161 2.189949716030751
Ni 2.3700196692648277 0.4814332383526013 11.523149491607894 -0.10434847891110417 0.7521209511162208 -1.8559860410875326
Ni 3.276771996865741 6.323362828810293 9.327937260279038 -0.12497078314714605 1.1186931561230797 0.4451206921357237
Ni 1.8392661424814192 8.48182801256092 1.8401124719048492 -0.3006573474816048 -0.7377322864947166 0.007408119538613047
Ni 7.161814235214104 1.681752252533533 9.299411034948811 0.9673662515799082 0.36677969303197483 -0.23528036473769157
Ni 7.3160672950014645 7.00531296773772 4.423967349773362 1.080127894255372 -0.818221699400036 0.6826700554132501
Ni 6.773320230505127 7.170834936313449 11.793485318075632 0.6556400478786515 0.7412436420820847 -1.948874084767521
P 2.1688608217837553 8.502591418283924 13.0942035277774 -0.3043221979277017 -2.573670407792439 1.622075560114174
P 7.883944118997008 2.6254513651726503 3.1009092019319473 1.3528774595831152 0.4665428665652417 -1.1880178106608312
P 4.756761544481068 7.897015309982363 10.035812392499803 -0.17444395017660924 0.4190651326992525 -0.28965225462035277
P 3.2018658043178316 5.3093003895734 11.75051853889492 -0.042057591291682406 1.0854120254724469 -0.6139876624451878
P 1.215955205756944 5.960379478291636 1.512002352886422 -0.15374734105920618 0.15690542707221364 0.45396785811370843
P 3.9794855415161723 0.4010272980695606 6.962925891696657 0.9122140318877968 0.981752345098251 -0.27113516965277173
P 5.557142062002164 2.0987576183896683 12.90856381643068 1.0793313664960058 -0.36756567926837985 -0.622248102681767
P 4.92985495630702 0.8453084398553325 2.5590140409276896 -0.42778425773980516 0.08106354024123458 0.17568784988603936
