# total energy = -381165.7508663064 ev
CRYSTAL
PRIMVEC
9.29712351395772 0.00000000000000 0.00000000000000

0.00000000000000 9.29712351395772 0.00000000000000

0.00000000000000 0.00000000000000 13.60728003032772

PRIMCOORD
 96 1
Ni 1.528977017990345 7.414623235457439 2.5218372762987697 1.8960731389164054 -0.19601961946485597 -2.3806710632111447
Ni 8.001941112960289 0.9280806918062302 1.1943726182069712 0.8287963895920888 1.4751257015927757 1.77369042821141
Ni 1.6106336525453304 5.06999099000746 7.699679545954996 -0.5969265931978429 1.5067407573948954 0.251786847033147
Ni 3.762815444245088 3.4472896713284205 11.762065039989885 0.2926092803661477 1.7529951046455874 1.9409106069460704
Ni 6.266716710139272 4.630218460379781 12.422031569214937 -0.6999324420381235 -2.2495124060857323 -0.6171930567563629
Ni 7.543258234398892 6.204769977127787 0.36419621375639705 -1.5897477945157459 1.1720882839147684 0.9766345642557115
Ni 1.232659101955222 1.9149935802951368 10.29079154790515 -1.4158795143369485 -1.7817858036250347 0.16004757224562113
Ni 3.66126296567921 2.2431355496243186 9.912290780132322 0.3962411928262015 -1.945874378709249 -1.2593762077991602
Ni 7.091994460286417 3.6247252708367768 9.70962464722361 -1.066771527553124 -0.5486129936941196 0.1972252097371829
Ni 1.5338766020061116 4.619034020966181 12.47217374468407 0.45510659970384204 0.3512227191339822 0.032198181999099386
Ni 2.790856978696144 7.151235730397354 8.782138041600696 1.3824155782515484 -1.3331411574964525 -0.21483880905388805
Ni 7.434537673715071 4.73657755172773 4.13951164037188 -1.032034895402887 1.2778925214357926 4.051230172748003
Ni 3.3780168051017108 3.724715832676566 5.168561881108715 0.730439095267413 -0.17345253279761738 -1.9300150430794891
Ni 8.31301356378293 5.483824545434023 8.956583686233397 0.9267207101444039 -0.31494008265286405 -0.9200530683162413
Ni 0.3379941309639213 8.095851356116375 4.124284811717189 -0.35738282519810705 1.515343668572558 1.714844047497163
Ni 5.612868617803737 1.5476084532229752 1.8402623729381489 0.03196652560426752 -1.0612575397134303 0.31727850097805355
Ni 5.592498620500996 6.799739387163797 12.45387235733106 -0.6391137680888541 0.19392082795429827 -0.015402964818631537
Ni 0.5699880395419599 7.304656860242096 8.111843338024382 -0.05907263779244021 0.0364880676237049 -0.41761914428134533
Ni 4.109784088397661 9.595839943440382 8.57714483871258 -1.7279206781754628 -0.37326761474916365 -3.283200006600694
Ni 6.813396861393705 0.05923755126158986 3.4837223086767777 0.36967861184632467 0.5657761357369676 -0.7723822724684182
Ni 2.314398000252118 5.815053159721905 0.8195841917956164 -3.1201642982610265 1.494143380345859 1.1674808670497443
Ni 1.2780197668753828 0.13926718922689926 1.3499832206052482 -0.11546155810513019 0.6471628636455757 -0.3748154188522577
Ni 8.977330217032605 6.186008382167983 3.4285717728484535 0.2952706292483947 -2.144379740710436 -0.48535151463131243
Ni 7.174013682652816 3.173889164399302 0.6359539189861118 0.8040657196146281 0.6311160945953583 0.5968201495269657
P 6.002576138086251 7.731924758937696 9.289989686814433 0.023614811205462556 0.35171971337505875 -0.6627527476640328
Ni 0.23478304558891128 3.7676406512738976 5.27611379338498 2.296301598525129 3.064322508701058 0.39714133604296764
P 3.801714608423394 5.426145192049174 7.384779469441101 0.42507920010381633 0.02386009444704923 0.23048602867284176
Ni 3.4013618818827154 4.2565112894163075 1.7363837541052034 0.39755862608604436 -1.412087651394684 0.9728558139395697
P 5.170251168424967 2.1205529779964603 4.20549332492576 -0.6199562213237968 -1.1957475752049214 -1.0434145979947385
P 7.983207409370593 3.6456066099248448 6.840325049521344 -1.2200573555948795 1.5581692483785166 1.2539822904770985
P 7.828661327598133 4.521181797501394 2.2241099163608187 -0.4065592869227579 1.6789833290448115 -2.9883006446487888
Ni 5.544451086927028 5.199797426493479 0.9385483230080358 0.07251076557521705 -0.5967856967446045 1.23873719139257
Ni 7.231460607953425 1.651968663046465 7.9075846078824625 1.6136873360504789 0.02200067264080727 -0.5286877155251024
Ni 1.3055392520493274 2.7431348444401107 0.8084657619579405 0.585743837108146 -0.08128594066468581 0.4463332243865861
Ni 4.091496646729705 4.551918087361213 9.400316790416516 0.5336645999144035 0.8440031792395143 -0.24007830034696717
Ni 8.299988293942153 7.358375639071505 12.088367108604228 -1.6782834747643096 2.082187069231775 -0.43080736083684523
Ni 6.200056335579412 6.92332604811557 2.7257148243825364 0.005945676060473632 -0.40966517954159126 -0.28952498501386914
Ni 2.303585445773301 9.623638342315415 4.0929609436604135 -0.8716168271917246 -0.9024826635326457 -0.9874288266577382
Ni 5.302493451233815 5.483657197213371 5.470113147888572 0.723066971173058 -0.42291176013885223 -0.7350148875635535
Ni 7.0499528684091946 2.776827619531454 3.231674504990564 -1.2099084400863356 -3.014919018567266 0.015102145748761089
Ni 4.85164804767297 2.8976251434723537 0.2531346374081172 -0.5921420273250061 0.3477959528406204 -1.0666429723950597
Ni 0.5031314956790025 6.991845847349345 0.1339046084673279 0.597370622713797 1.0583041135120612 0.5952597470183812
Ni 3.4321260631126425 2.195515683725351 2.9315931134154365 -0.891026084956272 0.6590385320372392 0.7278235120214368
Ni 8.161005596690362 1.5843041991626914 10.397989239781033 -0.6639315984634824 -0.12876598852352017 0.18539145032704846
Ni 6.216809751891388 3.0312712919100075 5.756831784044609 -0.5075195660879195 1.5302992614411257 0.9243637798764532
Ni 0.7951792429504796 6.296188591220828 10.52056344399786 0.4470978704667526 0.2859634929148559 -0.3887829367759433
Ni 2.551707074260543 7.990477759845602 12.678678659832078 0.00811671556986344 -0.12614243485774404 0.04536994349436702
Ni 0.2705611654520502 9.024215610185378 11.350158778237834 1.3850131637753953 1.4540490834281345 -0.48364738745601227
Ni 5.8834242049817655 0.6137588963659232 9.621231317075033 2.0486765961791558 1.196764703615526 1.2030579928234055
Ni 8.215756356213795 7.776002420832855 9.746009869242782 -0.7852650419683572 0.24360508255330304 0.8087191592262394
Ni 8.281831012001371 7.9000911264465845 2.1278930568967405 0.4994056787315334 1.1381049849907883 -1.2193770416984033
Ni 4.4213028011420406 7.349636343104104 0.9225916701688327 -0.06201732224306093 0.8101978006542949 0.5721362736270406
Ni 6.412951163619331 0.7069430341868456 5.775364669769522 -0.0197625273389079 -1.5591472960210697 0.20748828222608784
Ni 6.9191609368460005 1.5385623521843779 12.589060898535728 -0.7350881640036501 0.13574473383419847 -0.34793067864627175
Ni 5.449871450888332 7.830976311317157 7.0156139432436655 -0.4098145606352619 0.483351196371832 1.517147040329884
Ni 3.9154277243566766 9.169892236263262 2.329252943972026 -0.4569279691832969 -0.1839691160582251 -0.911360939858882
P 9.162798531132276 3.96446075300782 10.508167589409204 0.5302401476138867 -1.3310037994384754 -0.9993615735395821
Ni 8.317987524785652 5.330496386822977 11.754825370021997 -0.11491854111746659 -2.440475694073603 0.7323311700838033
P 3.2139318747520655 1.463850668786466 0.8232760794856749 -0.02762933168149435 -0.19093372030151634 0.22469256191951623
Ni -0.10137769264652961 4.800857862704977 0.5777939043230557 1.0996119711219128 -1.9055821068481054 0.48665557815471666
P 4.320875274503882 6.6329489939136055 3.690362032113646 0.2568748030790157 0.3965170721954074 0.09000892235998047
P 1.472943255441911 6.784817504155628 6.085352146294933 -1.2205286388043433 0.5045406859652537 0.08085605221611881
P 8.852888220730833 -0.3022178705254562 13.379711512692886 0.37868621466157365 -0.20169404414181394 0.26198127106764557
Ni 3.1349249203574097 3.348070770728307 7.292345609476103 -0.1874514181798707 -0.4524465363731756 1.5966229243690246
Ni 1.9783813674289055 9.161524825230645 9.53674370845401 0.28097889521607095 -0.253774309776821 0.05283848395727029
Ni 3.13951769930198 6.217767355598455 10.951927655250094 0.7968344919735116 -0.22540090084045056 1.213106121088027
Ni 2.0039205653251306 3.850961470912037 10.321135499158771 0.09774845709608328 3.2796356862882035 -1.1371968713542222
Ni 4.453656790468165 8.81938138810688 4.593096906189738 0.8953658499822064 -0.20677402976788256 0.2969865834982369
Ni 2.2840428924504526 5.806453320605046 3.99372344881356 0.6636577759768054 2.3675679501702835 0.7920234437381133
Ni 5.290621024690867 2.78129953587222 8.102931115562306 -0.26203166468960676 -0.07493788695947094 0.20246254687672227
Ni 6.655317872740805 7.624608063882682 5.069011073204307 0.8143686442025329 -0.19922295689350206 -0.0018067141914355981
Ni 5.254780614101151 4.398162261075166 3.275544841034582 -0.863381583766126 0.24759646310088324 0.1000483088738535
Ni 8.0501281033848 5.978301348968288 6.164682640582849 0.4161099067256705 -0.390631817059224 0.7151227766253168
Ni 8.422933453381425 2.015244461589274 5.391463203031309 -1.0779583974078788 -3.4418280727909694 -0.3305142829420372
Ni 7.713535048912674 8.219540285425213 7.523015607686314 -1.9326715068657299 -0.16963264483089496 0.5374181534195648
Ni 1.6300181547708963 1.5533075898485253 5.804416320874773 -0.9929847234789609 1.215523472280268 -0.7023253677503325
Ni -0.10771926049691735 2.7046540508134362 12.432372759538916 -0.13510324359545764 0.1338364610678921 -0.28616609584396524
Ni 6.503756167569978 8.73651612751385 0.26441483719242365 -0.45564576003676366 -1.0378332472522191 0.9476880564246905
Ni 4.148357853258031 1.3981943835505208 6.141972557327987 -0.5580036908804002 0.07279744357770045 0.015042753265735386
Ni 9.252413503291619 8.758327178938876 6.1431560811329335 1.0099889713464414 1.2713462356768426 0.25729749243873107
Ni 9.286757077018832 0.4156399864972714 8.70778801630186 -0.6217454520137357 0.3283193321732475 -1.08503458752837
Ni 2.2604374962150993 1.436424154846217 12.470949313536297 -0.930330024762217 0.033857571979393306 -0.6196713430935263
Ni 6.390935575480175 8.721566353135572 11.607716986945196 0.2101329189377865 0.4623949058351392 -1.5730047707294523
Ni 3.6482283987150645 6.985737637295533 5.896252375807107 -1.1394715263210118 -0.22759842271240155 -0.6920108731982018
Ni 3.907227661544711 8.829505955456348 10.731857307393536 0.3360151581556084 -1.146176192034697 0.3814578638694398
Ni 5.9451849955258576 5.213194581269039 7.678112079162253 1.0612896785029464 -0.12846979743934003 1.0915196810320815
Ni 2.43996494848161 8.707629965204578 6.895693138036516 -0.4710906338369242 0.9582509195422013 -0.12695001836070394
Ni 6.299535555633875 5.849322356462161 10.308670845857181 -0.6389780138419382 0.7213785277270416 -0.3838338203007841
P 9.253213055901401 0.7604405414800592 3.2390768746174206 -0.4140658797124482 -0.05975500857144548 -0.3104023426835106
Ni 4.335323004220203 0.39129546895403694 12.803511135315375 1.375594698674973 0.06328256210872972 1.263922689519262
P 3.89540172061861 5.683126979107622 13.299428992971926 0.9086391700523448 -1.0254227894030081 -3.4242874928040443
Ni 0.500621272369217 2.926706545372387 7.6823571456928015 -0.2622849183509935 -0.11678001980623759 0.7079959357725484
P 2.134173263732889 1.5387297004050302 7.782248228312536 0.8796001025075174 -2.465607970364857 2.5523199671411203
P 1.721966704896002 3.9427612670632297 3.7761967939109184 0.6705817567901483 -3.0103612239932542 -1.704383257175155
P 5.584233477825443 2.5050634063153807 11.089252675405088 0.9018149480416597 0.026637142971554124 -0.1243246649227149
Ni 9.233856445045944 3.04677889369046 2.94381232266007 2.200185791936462 -0.8134661869929216 -0.6259972853115542
