# total energy = -381168.58814641676 ev
CRYSTAL
PRIMVEC
9.28114983122537 0.00000000000000 0.00000000000000

0.00000000000000 9.28114983122537 0.00000000000000

0.00000000000000 0.00000000000000 13.58390093099814

PRIMCOORD
 96 1
Ni 4.413279458832607 2.4149365704808026 11.354103676562698 -1.4931959288309253 -0.5060738347803284 -0.5857546357414235
Ni 0.3647955860642586 5.273512093101831 2.575453125153815 -0.18413675198434096 0.12865671663916553 -0.07659907671197776
Ni 4.837177405717554 6.828475901502947 4.386853241501458 -0.8343391737871889 -0.6091107939688606 1.0173556961241577
Ni 0.41260835647943817 8.096847090591552 2.8232505390281224 -1.2224068296636625 -0.5798405842498336 -1.1387523887668
Ni 2.4296193491897116 1.983075397216434 6.141268027258186 0.3642245307102888 1.0550195292235185 0.5674555803219196
Ni 6.0600895239362265 1.33172431643817 9.002377303727213 -0.6774779696893494 0.19736044976346653 -0.5802838424348394
Ni 1.7478353787865981 7.090000135674647 6.706331331845178 -0.5825081037796678 -0.8103610657050367 0.8699078149204179
Ni 2.540482681476636 4.78725410187734 7.140391209456031 0.3389387595603066 -0.7360019340671712 -0.9846996006520332
Ni 7.3519234592802825 6.764565905175801 4.092028242470362 0.4057311345945077 -1.0587496856899121 0.19539432717603122
Ni 7.41764327978457 8.83830885309219 9.611099136156621 1.5211165665005932 0.35863238133449205 1.9839390467914542
Ni 4.85554480082813 0.010230611233141642 3.897641988465858 -1.3270065053536244 0.9878528015690342 1.0293285522153177
Ni 3.4002234148156636 2.0420014161942226 8.968131717835853 -1.7780721022188732 0.31417569368301373 0.18913729052272588
Ni 4.452130351168568 2.959749334698028 7.31550144380154 0.9180085270823868 0.41419880574588663 -1.0523016160717233
Ni 4.234561641627331 0.06662566070782056 1.312419525215332 0.045143172195541606 0.6909178972443392 1.1228655423332146
Ni 0.999988185343022 3.318892700639831 10.20596514030883 0.8256912683042038 -0.36907723081689986 0.12060967796497293
Ni 5.808514682163989 7.83693777645484 11.223480776721242 -0.5776852284697277 0.4677690256628589 0.3687648417828036
Ni 1.2962703248654575 4.085877624612971 4.624774584058351 1.317888602212756 0.8860936806516609 -0.41685629797339174
Ni 1.9301264385980244 1.0700237404235688 10.697824305332835 -0.7429994484309269 0.5652056079454783 -0.23749768410398453
Ni 0.021358709635152736 3.447696495154518 1.027261771635057 0.2970295209210304 -1.1883422838797857 0.14069282186809318
Ni 2.3562889859918057 5.091620122724339 11.292269873406967 0.27426754463416636 0.5572380163589693 -2.0045878333900573
Ni 0.3939653112249597 7.47998476182486 10.345960145042987 -0.6704465167638647 -2.464917629166052 -1.3274811309971977
Ni 2.020274244918903 6.134199503702748 9.138351714443228 -1.1625170952865655 -1.0402670535046923 -0.7948490861123666
Ni 5.449714718758361 4.562770935864461 5.904541168658207 -0.16984913171707522 0.5419358387842602 -2.0330877406019634
Ni 4.083668711001896 6.791184242304214 7.372390250436341 -1.1785381533051702 -0.6042218413076755 -0.1428314654776508
P 3.1530478379663225 8.391180188692452 5.986126186333802 1.1611600670380389 0.9964048049041033 -0.725428272316383
Ni 6.01257003784924 3.5582071437556406 9.615105808450323 0.21030801106307007 0.10326707292146732 0.4002284596087236
P 8.070767060141469 3.5070030412669877 12.607041241937623 0.881478807587469 0.15209437883681548 -0.40344439544286
Ni 6.27912465511843 1.0582830861462176 6.458696338089331 -0.6281477559956536 -0.48444134411221734 -0.2468672982443426
P 7.94181476723276 4.561601511011538 4.338738833723423 1.2374084452788174 1.491639897197715 1.1959018413945985
P 0.47466397911123687 0.06019196778682464 9.218945505338729 -0.07185924803414721 0.9307501430187711 0.20679408437254063
P 1.3637535637987541 6.6711232907375635 1.109619909074528 -0.279163439273887 0.5965111029269792 -0.19876324364826417
Ni 9.044248282151594 9.215290588615867 11.45473268515663 0.23629415071418658 2.3282002470059386 1.4440523772267388
Ni 8.574325114269504 1.6636089459273398 8.097377044235218 -0.3828151492282827 -1.1958699597153986 -0.4629662049575769
Ni 6.644653452003171 8.54617538745274 13.559965645640311 -1.098314849577044 -0.249407548167693 0.5015245248467493
Ni 9.243041225998695 5.554248307000106 6.411017216228771 0.43549705300303065 -0.09500714690552026 -0.835151128165523
Ni 8.892130239775478 8.805880516297673 0.6492507566178177 1.0113917652312387 0.7695535447703714 -0.640746932816903
Ni 1.4340118664703339 6.831640773525538 12.42033049867412 -1.1296990203152804 -0.06244309692656988 2.2667575663194253
Ni 7.366290678901894 4.346065373238475 2.3341488035581124 -0.30424326506065025 0.10327812866506082 -0.23000574660231357
Ni 1.2332327566031893 0.28414518015603857 7.164977902931233 -0.7586232710111129 0.16760224466442747 -0.8223213233907064
Ni 7.223620846845418 2.61828655879445 4.6623753055396415 -0.19723189460540227 -0.776998945304823 -0.4282989925926947
Ni 4.0296431390268275 0.5869306212216677 7.276148441270791 0.5165315397785427 -0.862999774946675 -0.06792983107275397
Ni 5.487470435438413 5.123046095359209 8.0788889941795 -1.113708815534611 -0.3029127191746848 1.6721966451402814
Ni 1.4587368490749688 6.527775934758362 4.245322206504138 1.1738320060787526 -0.16937013519812766 1.0680719915321024
Ni 4.212231195626297 4.157825096516548 3.5226046537889064 0.46346705585339537 0.0863705542764448 0.12685643020563317
Ni 0.4713533930395126 2.0689909993076907 12.290685832003284 -0.03833386258319205 0.43915187614679857 0.9331191574715801
Ni 7.679807913280488 8.55508529109405 7.4319019099555526 1.21262043970086 0.05319355330384387 -0.5189098102027321
Ni 2.9264949755867637 7.62731373099377 2.3704316017924594 -0.5812266659640829 0.4980640771019745 0.9146344684038312
Ni 7.525573768789563 1.8848622718702444 0.3681293750100487 0.7993276907090104 -0.4856528479218151 0.4340466937097493
Ni 6.8055607430754534 0.8674505843336483 11.807710583401638 -0.8487584345363124 -0.06032862168672836 -0.7308820963421025
Ni 5.584263544891769 7.746595065991809 2.439532545105631 1.1854289668877325 -1.5597846724947524 -1.7421339935613676
Ni 4.0521499268707615 0.363308745894115 10.022568695576906 2.5280826918603103 -1.5706193012164114 1.4165577713508957
Ni 7.829856259289924 6.799388778573921 1.367396415027102 -1.6889484106773232 1.369848540219815 2.215280738596372
Ni 1.9966630002694317 9.223467281436694 13.156768374882008 -0.30449806138393365 0.24326209739158752 0.0526389663519545
Ni 7.173539763461555 9.186519024774135 4.12176318964331 0.20455825306348638 -0.376789511859493 -1.2760171587899507
Ni 6.01614328045539 5.982610486855336 12.976958166365709 1.2566737212663326 1.071432166253587 0.5517075734590433
Ni 5.287972124219707 1.6744957344390654 13.482320475981107 -0.17739711926766225 0.5547057368554188 0.30859022917543627
P 5.507666217025382 5.617592153200044 1.4544146176939707 -0.5266290332238608 1.4470068318693725 1.0150180491299163
Ni 4.360516123206724 9.17953960025511 12.64938277464806 -0.6906062795411912 -0.6102989007396908 -2.7683075450874712
P 8.265132895616796 0.7196946822819246 5.703038129120206 1.9254829595370904 0.8094532091787866 1.0238731855277012
Ni 6.039828774301872 3.795349797858881 12.065900100512586 1.5534487029743955 -0.7736963632941514 0.22103516767258705
P 1.5596786324113097 3.109853367605222 2.625591751665362 -0.16243047065550092 -0.4446656068761761 -0.004910807038056059
P 3.306576615085645 5.293234536057856 5.086790212458779 -0.3915404449164225 0.45241799712808534 0.6787738056826373
P 9.138581886953963 6.300759014897485 8.571087849279829 -1.123592136086594 -0.7005222531033225 -0.6982272864215588
Ni 7.179637478766077 6.135935078682878 7.186440561442202 0.7519923959581565 0.9562092065218243 -0.005702449701415986
Ni 4.702248052449467 5.379799818622958 11.219989208231805 0.27656302553656237 1.3085259300509333 -2.5317328870183884
Ni 3.1210185906057384 1.8248874829846766 3.9874863011939548 -0.49672453235494457 0.07074955990973622 -1.2527275921343908
Ni 3.530920563854129 4.107159300706225 9.629355157471682 0.12528702883598425 0.7292669293361826 -1.2716552822768294
Ni 9.177683370329836 3.206525822113435 6.19393298269803 -0.7169554589586814 -0.4806481956183723 0.48355482774220593
Ni 6.891086536882403 6.204197934184789 10.061799186932586 1.0858807375787494 -0.6669567584430514 -0.922707989440585
Ni 1.715722601079377 9.008218859302048 4.3798301955791885 2.11173701497475 0.21084357185156588 0.6629656350057873
Ni 9.050373840904994 4.9090691907233746 11.18870616530118 -0.562927610544579 0.9086342849563382 0.35420751279391904
Ni 0.6834768520949622 1.8273191441867842 4.494967497269054 -0.6052603098745188 -0.6372751722182185 -0.3208716176459506
Ni 2.575964516498228 8.142686688596168 10.971118893460691 0.798714996825676 -0.8817364321242299 1.3671586520924779
Ni 7.9390025788959715 2.2486462126252293 10.280988385198587 0.39821065784774645 0.6921378856943693 0.7137541784125643
Ni 6.99458991751562 3.1057975052185007 6.990207358662051 -0.9639500268095076 1.532091577454858 1.5270591572372734
Ni 5.794323804385277 7.96874866344847 6.3676027826215265 -0.5872283920734725 -0.0644891808223212 -2.0205453851605784
Ni 5.712612563074765 3.6487818829593324 0.8059638961739457 -0.3303548745460375 0.788457580763726 0.5262392539846099
Ni 5.451515261785877 8.18551919412184 8.680832803036775 -0.359825887421961 -0.7916205518727399 0.4928617069654285
Ni 8.74004932199787 5.382277885573197 0.1449167983810187 0.48918271545194464 0.1885027422625205 -2.6376589948292573
Ni 1.5938889499340894 4.367746138765662 13.100068903699583 -1.3811685932183246 -1.2403202196089735 1.5729741746018329
Ni 3.7717942401071682 4.8010737336709965 13.13337709347868 1.3062936982863051 -0.6717693493403463 1.5068392306459728
Ni 2.004821130791006 0.7598634978648304 1.9079946091989952 -1.323020524122683 -0.46772711668132994 0.5690496642819168
Ni 2.5878443880199744 8.455869801588213 8.667017811817932 -0.016739681352184073 -0.12668288074224635 -0.389000194993072
Ni 1.330582735034127 2.893110680380731 8.025843511604977 0.8039644181500734 -0.0007512763437277384 -0.08693722541319222
Ni 8.952355619700958 1.6378073499660466 2.336960991894901 -0.4237154869870703 -1.3831856236483535 0.5892778184033335
Ni 3.8880220768781313 7.246582411021044 0.20305484775552887 -0.05440480000312566 -1.1317954978329927 -0.1474818197654686
Ni 5.566759296696445 2.3307658245193026 2.7984327449272235 0.9355779034247178 -1.1805657252581603 0.4747950792717049
Ni 9.224562457092604 8.024509810403668 5.560882472753032 -1.3795408278069143 -0.010265643592066193 -0.8294260527562878
P 4.8997045107503725 2.154359013570992 5.062203518983576 0.5734927876549349 0.8796091013685818 0.725530345111886
Ni 2.9045172132715327 5.203977720101108 1.785698756802315 -0.11347101003766265 -0.3508607078088732 -0.06233433926284749
P 3.872281247111817 6.789959130553535 9.788396009354102 1.96881453244519 0.7751960877681295 -0.2555033766527858
Ni 3.5157830088135285 2.5061238655598346 1.72181381957916 -0.34080460912445176 1.3048646791492624 -1.6915521668487576
P 8.028018084962433 7.493683738673375 12.156816386022529 -0.6820828154512124 -1.2278398277537756 0.25125025780338667
P 6.533409592581566 0.5007959839992289 1.948148574942499 0.07037906394419492 -0.30556712607839637 -0.04816961772669123
P 3.0601899359545452 1.898347782277352 13.16422577860679 -0.27413436149041176 -0.17124189829954378 -0.18875213926916526
Ni 8.567354970900105 4.1755520923029055 8.490507980108768 -0.2858665623256754 0.36571628476446694 0.7690256972913595
