# total energy = -340891.06712708494 ev
CRYSTAL
PRIMVEC
9.09686208629188 0.00000000000000 0.00000000000000

0.00000000000000 9.09686208629188 0.00000000000000

0.00000000000000 0.00000000000000 13.31417718819881

PRIMCOORD
 96 1
Ni 6.231923624387094 2.144394200319015 11.580431869161156 0.6315264426598995 -0.05940842386530415 -0.024263757643371114
Ni 4.512807726122192 0.6550959674255326 6.088493400034427 0.2859843188504623 -1.483989836851625 0.05337970117272098
Ni 2.7638359265237797 1.5438011723357714 4.870699202975743 -0.8330315107193589 0.6568407530549719 -0.08311990854963104
Ni 3.4861995502566776 4.366903155284846 4.8539627961282745 1.0089852126722751 0.4098436141009845 -1.1425905315659677
Ni 5.193025587856872 4.636916215425385 2.852336568602792 -0.3998741615930984 -0.35618649089716076 -0.37493986024526393
Ni 7.117857925108976 6.252255111127007 2.6578292830656665 0.13718815114894437 -0.48083742881104286 -0.39437945702711436
Ni 5.036304848011134 4.4491478853141775 11.674389718799576 0.0380420423743861 0.056487650674083366 -0.22445884864215537
Ni 5.630320844713411 7.953814065585183 12.322949590823487 0.34732801206526637 -1.2618079571691043 -0.13352330070284746
Ni 1.8877626242923073 6.56504161674901 0.223804639539168 0.8227542971630669 -0.20689075785140498 -0.17683867566103093
Ni 2.774706676704628 1.419492552066906 0.4410040475249351 -1.141915102765498 0.7333812086148724 -0.03641247719076309
Ni 0.5023123494862975 0.21966556729457715 4.976440218061237 0.09788703955647658 -0.96783367813463 -0.752123265109066
Ni 8.366975347354034 2.279009565320015 1.3908920176998874 1.8378091130681897 0.3869469120084691 -1.182172407623648
Ni 6.995896295255725 0.5210373303835849 4.8013319909012315 -1.4247850443566945 0.2557221775318112 -0.04056069503118175
Ni 0.6366921057595287 7.47774798256063 2.142623950959021 -0.29568997617400045 -0.9351521287412089 1.5383864093246342
Ni 7.772113342478685 4.019848770222462 3.6825416728745375 -0.9854259372950965 -0.3573918240591716 -0.6835647993133775
Ni 7.942033629196733 3.791672178769557 12.698769163456465 -0.4451425465125946 -0.07358548669663455 -0.797605308701265
Ni 8.18946827766458 -0.22860869240151616 7.067697827621781 -0.07553309734130864 -0.5287645915096248 0.054900251582305444
Ni 6.718114514902262 0.6534439772725266 0.4500981805423361 -0.25544192728723103 0.6058997432307307 0.48581045654560195
Ni 2.0447835605865543 6.564186511713864 9.361690834467215 0.3490570789412311 0.3152277890966119 -1.3344549912118695
Ni 9.534966953605108 4.914570639709783 1.415363486370599 -1.8940404247570928 -0.3778575481126912 -0.544288655287153
Ni 6.6133732449589235 1.5517609266522923 6.9306945363258246 -0.3040172650927732 1.5101646954747798 1.2475337066382775
Ni 3.1619782890051136 4.328860078082914 0.3266564912293159 0.8596935933915776 0.3878820222282287 0.20458962052205412
Ni 5.999389635999774 5.710618846258474 5.023026158438762 0.4497862159321931 -0.2750046799105071 -0.4894976755892021
Ni 5.091577381985053 2.9084669366704823 9.313759468188644 0.954375495747195 -1.154631779001218 0.31260346409988743
P 0.11062603002031786 5.695490764626046 12.578555950494225 0.5979077261641896 -0.813684730761631 -0.6306849205952105
P 4.0585741120800956 6.325384785356162 12.620588001716493 -0.7692216153522494 -0.5604837769897767 -0.512143438013176
P 2.404091418865342 8.50472912977126 1.3149668777547698 0.46895276155831495 0.3855083797897296 0.45895888357039666
P 6.337529096227654 7.945481339923545 6.0904901612601146 0.1321115079569854 -0.8379320333447698 -0.1622857175475205
P 4.742940142921442 0.8061056972599429 12.740962229137477 0.10820899030777495 1.9087175671532934 -0.28927275979374695
P 4.069690477536996 6.229130887729755 8.159912572779579 -0.16888651069348978 0.7851606551800091 -0.19707634286414444
P 4.8824041354089625 1.035322969734345 3.8692993416090986 -0.16381783792133078 -0.2618545156817942 -0.059900790120690384
P 0.02263026378652441 5.742066698455289 3.5869054521830916 0.11451564925209311 0.20361337265171386 -0.3946807903176171
Ni 1.0026470411572674 0.8693279790021006 2.611216052101913 1.0459041971858116 0.4808883366536363 -0.5432229330267999
Ni 1.7247377590278847 6.561766746401641 4.591100779265698 0.8029400906506172 0.681154390099672 0.5778896311710499
Ni 5.715076308675726 5.3757906438262655 9.407424398868217 0.5380848404692862 1.5214762638328572 -0.0848875419730151
Ni 8.719105781454838 2.5196488578170726 10.273632154178241 -0.04073707270804597 0.2073324733745139 0.7234346389251218
Ni 2.5132264731914002 5.237409177925792 6.840558278445543 -0.6747996515262379 0.5488503065159064 0.9542615958771501
Ni 0.643506565140678 0.30467119496398154 9.090347813091162 -0.3327182325718915 -1.0944538239597408 1.4675064944846212
Ni 1.4299357497301814 1.0575284100619189 11.42169981311041 0.6668850246648516 0.4039786706797752 -0.29104193587902777
Ni 3.803179709295727 6.857205536044666 1.756938831404594 1.3088925693617328 0.5469518039416128 -1.8604209369304345
Ni 5.660531523667887 7.983660870056617 8.36290086283018 0.6216444076594971 -0.8186500451867063 -0.025285771149982258
Ni 5.401361923121969 2.874808546989194 4.985214141533561 -0.4203311438958697 -0.04131042871301273 -0.07024176703538225
Ni 1.0729839787290836 7.431881603973318 6.962569031354004 -0.6069250991714515 -0.05668871094129592 0.09750317385449658
Ni 5.205060736383451 4.474700970885729 7.319228793082462 1.0762200745605337 0.4293582870951444 -1.748659710495027
Ni 8.827030953124785 7.21771418011749 9.333983611956063 -1.750910968423049 0.34822481284792284 -0.019698506870191878
Ni 4.84461577034516 0.25102608961546163 10.54080699335106 0.021955678335484768 1.264198825998784 -1.299253760720388
Ni 8.100382707354079 7.427678853694195 4.73826253644195 0.30426151989309536 -0.8962652218680243 0.26786549776256446
Ni 7.412678128130831 6.245277817914697 7.1474500174422815 0.389685908206187 -0.18124451803821043 -0.00614827898958296
Ni 2.3516843964453695 5.096990014920288 2.6543806626526463 0.7648985624968634 0.0912628493717396 0.5543465537437873
Ni 2.62700092717623 5.3027792288040985 11.301992385679599 -0.039562078563338314 -0.2032621599598822 1.2444815500755149
Ni 0.971881453616155 3.386989172455562 3.870537424537645 1.175798385776504 -0.6283575580136146 -0.6677368311421855
Ni 3.580261104122764 2.514900295813388 2.815935475005583 0.13662996465262922 0.8432596162052702 -0.5247688400866704
Ni 0.8742248198576242 3.567789306216535 8.148223105011889 2.1548965810813594 -1.593268663184811 -1.1125165949987226
Ni 3.707526204566337 2.779236914018488 7.256519574361392 -0.5369435277759914 -0.8228962220575698 -0.9162108117520157
Ni 4.269130081691743 6.981486865727303 5.942969078031858 -0.908677479489448 0.7852920385515508 0.4225168386932788
Ni 0.9505220214616511 7.4251408291749845 11.392528905491224 -0.8867125451825826 0.03603555346731859 0.44845849825970513
P 0.45333393438277775 5.647413848554261 8.109558712130164 -0.7823059593400333 -0.22459974509539385 -1.4776590095375908
P 8.554843742948075 1.78022861769163 8.06508961155773 -0.228265109762123 0.2161153617734665 -0.6337242216421666
P 1.9810600417440074 3.197092176618565 10.447434981630337 -0.5987916714310397 0.4455886329110778 0.2919467070814843
P 3.8533761942312266 6.374480549980463 3.7486731311086077 0.30039689473136655 -1.2881537941524848 2.072693013698411
P 6.898568967904346 3.957735395967372 10.394644071630756 0.6552309853656909 -1.2284491792030003 0.6436710484422334
P 6.890054305001188 7.803988747193071 10.301937950213995 -0.7665944621420475 -0.6694805533061696 -0.236512951593212
P 2.3670489964917736 8.59778093194691 5.628954496029593 0.9463019747104412 -0.25011048777198863 1.1547011987865727
P 6.981286734761631 3.933228449534563 1.3514825918141369 -1.1684835972826457 1.1644716479097752 0.9150286185184564
Ni 5.147850570787337 2.9360031381746063 0.5927433456978425 -0.24491763071713948 -0.292775887850999 -0.5552549244906696
Ni 1.4715629905900662 1.1568024658975669 7.229664727826762 0.7177959525821058 0.9862803148755916 -2.44918659158404
Ni 7.320108459645213 0.7083571851944442 9.565291343335534 -1.3960622225007056 -0.4357922156459462 -0.25904918502251517
Ni 2.816224755219601 1.7234641983372414 9.222730808138706 0.41897231587513 -1.5020142984535034 0.22269584320446165
Ni 6.356023016828211 2.1415195919029912 2.5440329966118544 -0.6651587860023642 -0.4548716008749005 1.2683305887789704
Ni 4.164770879955597 7.113300397208888 10.347139348183552 0.17867238643566002 -0.6693118889387892 0.12025949371440578
Ni 8.031856045335392 7.084718056566021 0.42155222734777337 0.03653126215681451 0.3329275203692202 0.083653669565914
Ni 7.6934800666935335 3.852848576230817 8.159779758593269 -1.4787964655761436 0.3595924312549162 -0.22307970890644163
Ni 3.1142743442784444 8.450329894556639 12.297253684517342 -0.026771354556573247 -0.4553827361833641 0.30871467056844254
Ni 9.633122095405406 4.758550358243898 10.146122348144823 -1.0892807643992337 1.415048790905537 1.4044059664797106
Ni 8.614291736614891 2.154337070568109 5.568814231158792 0.07671631901613239 2.0922413681439838 1.2714904745641908
Ni 3.6160845469781457 2.4834433467544983 11.68468190855239 0.5756697407015956 0.23693512673229516 -0.11166609561843993
Ni 1.2622350973586827 3.3134137519846814 12.590058932589358 -0.3335175885447353 0.05374119827719777 0.055247350509079036
Ni 3.13849019112482 8.376308727844034 7.962144062188198 0.5695214617120128 0.4405451569498994 -0.04601297639500462
Ni 5.468269343691124 7.902562344648865 3.704629763681331 0.09537250066473897 0.12914522623980984 -0.019585121220779173
Ni 3.01542784096037 8.684383058910655 3.4474532856162696 0.17529395688173038 -0.5719125876520086 0.301335604495552
Ni 3.320472916955676 4.4500666683838555 9.153563727029866 -0.16616936887264286 -0.7343111766283096 0.01741819547644742
Ni 7.378956060415011 5.898332595197225 11.343452244277284 -0.018755426230632213 0.45861975506342306 0.22456734919556165
Ni 0.6355504495689878 8.933391464517655 0.2817880384117437 -0.8034090598672357 0.558346933152432 -0.8448061347567838
Ni 4.533757799483275 0.5196418717411229 1.6741910449024586 0.7689634765948563 -1.1931870135665967 0.3898676851996899
Ni 5.809501737024852 5.614483207839054 0.4036641577614802 0.39277097488941387 0.1648442223033161 0.37344707774982133
Ni 7.867721362897694 8.859706881701861 12.005034274363021 0.5751020411235838 -0.7028804689228539 -1.8918763272262387
Ni 0.10683991602427675 4.811575967285042 5.696829822723638 -0.1258740116877058 0.24305795180058137 0.9722796297211256
Ni 7.628319243642976 8.701739871751709 2.6502133901356197 0.1865618164860658 0.40140576774627645 -1.0246000363913967
P 8.336992089951458 1.6722670585733794 3.4727771302635047 0.06075748169403084 -0.2940519263499452 0.5927336381624179
P 1.7968576815666015 3.1666813666984175 1.6560437147469986 0.04932404304610861 -0.8761537958301299 -0.08786102277904224
P 4.873061658056886 0.8756111816380102 8.243166144813141 -0.3584125520142021 2.0045724067710897 0.754322843863546
P 8.80834599842063 1.5765407789473809 12.522862231806185 -1.3530016438658052 1.3052850545161327 0.7509169035057907
P 6.048176107313489 7.7436401641807295 1.1563485324799734 0.49680115122915086 -0.13566220142272123 2.2096914174340525
P 2.021713918361758 3.2856774195148852 5.931665317216192 -1.7662979924020807 -0.43810338027762613 0.6395855655189501
P 7.075848616041898 3.947219423407488 5.8061932082878025 -0.06043275136476044 0.4197709005170254 1.7073310269495694
P 2.3572061917255156 8.649123621503987 10.159515658179352 1.2588707289176513 -0.47129760764140766 -0.1689541307066316
