# total energy = -340889.80488704355 ev
CRYSTAL
PRIMVEC
9.10183016488310 0.00000000000000 0.00000000000000
0.00000000000000 9.10183016488310 0.00000000000000
0.00000000000000 0.00000000000000 13.32144847339586
PRIMCOORD
 96 1
Ni 6.23040286954823 1.831579452880885 11.18395551871702 -0.3755862355800112 0.03803201507205708 1.8967886769261915
Ni 4.702551483488899 0.4212417938438233 6.091578117783499 -0.44345101774278467 -0.6339497073894115 -1.5807414772520776
Ni 2.7565347221229253 1.6273252860381369 4.708998309671989 0.7100538467428417 -0.662713152675349 0.1857858575519897
Ni 3.5117408620205843 4.337568100823501 4.9785717594498555 0.13141962409628336 0.30597850258420206 -0.023745937466688134
Ni 5.187833753154012 4.697081283663914 2.6567631923033916 -0.04993879381197206 0.2653807836674978 0.15691596859517493
Ni 7.238476050274071 6.09672429246078 2.6933834950918194 0.11492959686106012 0.47050905030184126 -0.19112449615608373
Ni 5.094904068939207 4.535951587321631 11.934658983317808 1.3544779713010155 -1.3309886299298241 -1.7734978525846297
Ni 5.435467241736993 8.028232736820055 12.703226609643217 -0.4423451862731156 -0.7534640954076766 -0.6342515549005464
Ni 1.444451317845788 6.715530408103485 0.34403825148860023 1.3041828225908894 -0.45086453659803644 -0.2139242676594187
Ni 2.8399620958264427 1.4065421959305415 0.49620901657009653 -1.510343130034173 1.1989596543843155 -1.3520837600372264
Ni 0.5813721092530226 -0.17894015726995524 4.975347891266811 -0.19947261101046293 1.1370852854770224 -0.7916516622209915
Ni 8.670039176851674 2.4135322588873755 1.487419236870397 0.7654197251076559 -0.3451497734670249 -0.06096702660167565
Ni 6.793296443552192 0.695521799910375 4.710876927382268 0.3752627908023215 0.4986731714408831 0.3925436893699562
Ni 0.6247304967842735 7.279188535826747 2.504259300244201 1.019092476309606 0.058854865354679285 0.42067104373379166
Ni 7.976743684557258 3.9070606440481717 3.6180256613821467 0.16608015159294626 -1.2426933478268403 1.7302999770409169
Ni 7.583135046568102 3.7914036903442008 12.892338061928848 -0.3252715464858592 0.35037734041455143 -0.6707820457264125
Ni 8.09916329794503 8.664751013626523 6.874426515365816 -1.158824476926327 1.2807667576597943 -0.4063816236943131
Ni 6.867558274454113 0.7405449121470996 0.33325622368048474 0.23868090577880832 -0.32650104801758606 0.8809198497602054
Ni 2.0886242336752376 6.510402465581537 9.426363021472309 -0.35366475291657157 -0.8076814619903445 -0.3131922467238219
Ni 9.099345192068105 4.940864698160423 1.4783747484076883 0.3668910217988584 -0.40285792681177074 -0.3851337700591303
Ni 6.452132549974958 2.0810879184421465 7.0748215062921025 0.7620672636956554 0.2949685246269436 -0.640443028423239
Ni 3.709323387479449 4.128371640295283 0.42410796010819574 -0.4873497760082639 0.6277415216961706 -0.9045351751863003
Ni 6.043360263219703 5.868696145679826 4.936049830094837 0.05425079092376464 -1.7636998926576013 -0.7855357791312407
Ni 5.249516855007465 2.8790999647905626 9.334965175245099 -0.028289590973312573 0.28789953359530424 -0.8029483181807332
P 0.08243436405142765 5.57809291770624 12.450025531654342 0.25190614621983065 -0.6808003491943629 0.05272149876343178
P 4.070311066778511 6.141669128959577 12.772484254415726 -0.5576123689792526 0.8467434609888127 1.2313869216750857
P 2.489396011867827 8.420175739920738 1.2080385652765213 -0.7582653734510618 0.7712005934554912 1.551409818167496
P 6.383377326217989 7.935576107504999 5.720629395741568 0.2045266284946026 -0.693698802423586 1.1319235387704247
P 4.574980234325851 0.9412111376071374 12.485234140611064 0.41594689878524493 0.7401514374591704 -0.7550242408059449
P 4.134469866389693 5.901444529989805 8.45252546407708 -0.15190643119572547 2.533152135963418 0.24309266169325874
P 4.770059756537011 1.4454434173148785 3.7120348226339632 -1.3373904196911097 -2.2437068551475488 1.1744225884749
P 0.3747714906384253 5.500299576767558 3.679636858778664 0.45743884738144447 -0.1782810645345123 -0.2217900435607406
Ni 1.5670529678333918 0.9128498353531377 2.5937257381471817 -0.9313939472503573 0.815568320937589 -0.24333743071421315
Ni 1.767329634969787 6.748997836982804 4.95036973922071 0.6047849128999971 -0.9679822878973523 0.5228335707371705
Ni 6.277550348905007 5.816542659827639 9.14837128913516 -1.1670620343447708 -0.6455908911727656 1.1293408656449129
Ni 8.431198056040634 2.4225066632591483 10.361915551373633 0.7719423567175221 0.19015441893333057 0.4164562343214957
Ni 2.5725230251816193 5.405121740544812 7.108910590159851 -1.1276465086616256 -0.673846029363717 -0.14546890310049784
Ni 0.17107617615716458 0.217851390667283 9.567437745610977 1.4348647971901998 -0.3618475458376801 -0.10613333872566882
Ni 1.551206681817919 1.0717950924974236 11.565934748525839 -1.0396245348246869 0.652653968667134 -0.5746094177578814
Ni 4.055438676572145 6.883140607399827 1.7779341770930648 0.6081754266387848 0.5847115391888897 -1.3820985612317616
Ni 5.77526586081548 7.9811034611232605 8.064232294803052 -0.2994568994156004 0.35328165854553994 -0.140436482882913
Ni 5.582762156491959 3.129900890210639 4.685526510489507 0.5487052962976099 0.4892086835938736 0.472985793977108
Ni 0.9192848291572385 7.802398131067091 7.598007436774467 1.598835358639311 -0.614236288120884 -0.7056570032267266
Ni 5.354269816381431 4.718780046364022 7.280557451057492 -0.11825557591049957 -0.6744520383788319 -1.3064433364902919
Ni 8.144472207643492 7.19120114529741 8.91451342024455 1.12529986280632 0.6110692032468121 0.7822265122523495
Ni 4.224778223566902 0.24243179274274876 10.163465621516563 0.7144905423579566 -0.04485135198673566 0.827487183862362
Ni 8.373656286833384 6.955427341193558 4.711902703622327 -0.7873748892225085 0.7621508245483971 0.8668291759950942
Ni 7.370061206463438 6.172396907011407 6.914591070752995 0.5673905314119391 0.3978080230926891 -0.024008704209771553
Ni 2.5952138873508175 5.093147415750818 2.210734384843292 -0.8366552235148752 1.458483207940088 0.7321015705715005
Ni 2.427430753284634 5.343247500261536 11.596960156418396 -1.3661862608768793 -0.1939863910849111 1.1161192247483165
Ni 1.5533911210159164 3.687915883339074 3.6523013327647242 -1.2036516605433465 -1.5013748650972918 1.0426908324548365
Ni 3.7612766330718204 2.89815919679309 2.4818260198637665 -0.13393082055391126 -1.3587318614813633 0.45241336914239505
Ni 1.0408306668658103 3.4143148737899005 8.082988435866858 -0.7066828733880797 0.7304933455441162 0.2037972065277458
Ni 4.155549704650368 2.7985487693644084 7.014168731593706 -1.8997120212205734 -0.19899104338835405 -0.9736592836774715
Ni 4.323751522896167 6.946507547801734 6.123523720688212 -0.9964569982982775 0.4936736613437626 0.06662679599061429
Ni 0.550152832381643 7.510010944415139 11.40210726977403 0.2523234362629073 -0.26446881337618966 -0.1982837329086843
P 9.538808849555224 5.696999224717231 8.099440903759774 -0.16531884794688947 -0.703658227629143 -0.3537418860114101
P 8.56085362427177 1.6497886024575434 7.880089531509867 -0.2621766749079033 0.38616812486091556 0.4655905299543014
P 1.6412237804353953 2.9809221369072167 10.185406492894447 -1.3256301938313877 0.860752373673395 2.0506776857695845
P 4.023427540491491 6.1471302269545705 3.8820560966950945 -0.7327422894792929 0.6990808926711056 0.3338819138626895
P 6.759292006703366 4.071212147947684 10.523584076051423 0.648378995440864 -0.6958970956264855 -0.022313833005851894
P 6.523545508089488 7.68102522812836 10.207879821326847 -1.1449623742322539 1.731963480786269 0.6670575456869737
P 2.5600717217530344 8.707638836547204 5.813319701827594 0.05075717594820937 -0.415087378998427 0.9115722845387397
P 6.982942173258333 3.939472260648458 1.7706873000537084 -0.38427065072788663 0.02896399133251786 -1.8371054021329458
Ni 5.552462164449737 2.6711322513112186 0.3822213384865956 -0.5851733093166567 0.47851880798019525 -0.10892247143503177
Ni 1.356099854116785 1.1719880370455706 7.083706712729956 0.7185739683987109 -0.44603677619208987 -0.7288709794493448
Ni 7.123073947809867 0.7922469472317014 9.132572332635643 -2.6137518491943563 -1.0467182084466748 0.32981828531627716
Ni 2.8423467752842564 1.887519300009602 8.914220341318819 0.812117129164195 -1.1271988796012458 -0.17508389775345332
Ni 6.39893235367373 1.6659989616726825 2.511478871793582 1.9059286915542468 1.539771462597619 -0.26591274491156786
Ni 4.267392991587834 6.643507627379512 10.652522420079215 0.9745308876491474 0.9908879888509322 -0.8277203829190906
Ni 8.104469664830164 7.229328711132457 0.5359221211896892 -0.294887277767047 -0.012025306595650258 -0.39554519520044135
Ni 7.511512746363762 3.992727067929636 8.35402637009038 1.0231504484290637 -0.8891790044452041 -0.4377529389167429
Ni 2.8934171433674374 8.426547020914898 12.343494072700004 0.9298291738663986 -0.968769045464706 -0.2516189539967151
Ni 9.087458202099002 4.754668562021121 10.246192154310725 0.8372216375413065 0.6377896499607919 -0.3449222308372511
Ni 8.508681934759599 2.230066671745569 5.706761847566281 0.18373951654592227 0.4572138758548319 -0.5472778198224639
Ni 3.4658221297126803 2.718216017858054 11.479904251444708 0.25339970004622164 -0.4295444349640215 0.3120663606494948
Ni 0.8080286102542334 3.3665757754836654 12.402694195331733 1.0740613763463178 0.12895830703998434 0.23779233252626789
Ni 3.2415348350582973 8.375121681462042 8.067974967295621 0.22083847828074868 0.057057664244940444 -0.30714244098531623
Ni 5.590862785184533 7.829985777771799 3.693184932721244 -0.6278466798154672 1.0326547883750732 -0.9004131825981269
Ni 2.919148016753848 8.277895933491173 3.533420510877709 0.8951388215730648 0.04178042637089579 0.09545374752463562
Ni 3.326445807050455 4.357664941445077 9.65134933667005 0.30420469851323095 -0.6495321352087007 -0.24364467754198682
Ni 7.2846951429716995 6.083262685903121 11.472711075202302 -0.18955972277212516 -0.25742579048647923 0.5569641938722925
Ni 0.4188288987130353 9.090334380376365 0.44685070270834615 0.48549498218771225 0.5440621410986436 -0.18563056292104804
Ni 4.65044350678667 0.47159220717466416 1.4159371048479286 0.4154092811142201 -1.6367794419832522 1.2952454108919436
Ni 6.208476561098331 5.807932328655532 0.4447299763202903 -1.1458720305307168 -0.7129666495142625 0.25975598128155264
Ni 7.608128671725189 8.755578175113255 11.819295108539569 0.6313847748757127 -0.20825627074036393 -1.750638688598269
Ni 0.1581288229940342 4.708795338863175 6.026130499045498 0.5183110002764687 -0.007177748695361833 -0.4466363574493018
Ni 7.959158949013379 8.744947237683002 2.6748539895948067 -0.7045082343342641 0.14965285927485839 -0.4152822686180525
P 8.695014598348777 1.4920811941921228 3.5645533203641677 -0.057346656240268974 0.1884135249828239 0.36847842089063637
P 1.9222245777677855 3.2081584244788957 1.342681936343086 -1.5935599691729847 -0.15963388174697024 -0.050289749393487584
P 4.863717587151149 1.0053335298983526 8.0895963644408 -0.09743375406914188 -0.1478497446278486 2.1080770496246597
P 8.541403013579602 1.5819799690197074 12.564390025499497 0.04273250587151996 0.3294387904896714 -0.53986378674658
P 6.131438672048956 7.81646956023419 1.506082539268287 1.3117796611015409 0.09995266383625366 0.24471965577372046
P 1.9681797173956557 3.1139362804052744 6.083399213352997 0.005494704565984086 0.9961528367942974 -0.0821194923095747
P 7.039764897896241 4.1612838575451105 5.983821552512285 1.1133120943168247 -0.6837602031536353 -0.261528242690627
P 2.1289453405382726 8.509819663508557 10.126778875369197 0.44361248302131345 0.5899411630189453 -0.1300739087016663
