# total energy = -340871.63997658854 ev
CRYSTAL
PRIMVEC
9.23089535310034 0.00000000000000 0.00000000000000
0.00000000000000 9.23089535310034 0.00000000000000
0.00000000000000 0.00000000000000 13.51034842246382
PRIMCOORD
 96 1
Ni 2.8213862109321006 1.2792174643573628 12.703307891869814 -0.5921371422289996 1.218123114686644 1.519744368743415
Ni 6.890337146394162 0.6060719666298524 0.14881403166506246 1.2152668761847716 0.5133451716307611 -0.04442069220722027
Ni 8.16154219367069 2.105594900218701 11.865531223458794 0.027326712839411002 0.12099380077726904 -0.1970604020245445
Ni 3.5099279188544563 1.2630818594526387 7.32458153640016 1.2871569774568543 -0.4090041489188246 0.15392808961144458
Ni 0.6137880719730211 5.005600646032687 1.7686663003428875 -0.25872368336229634 -0.5102508489761535 0.6816524127820132
Ni 1.846686750122761 2.740865111627805 8.280046580767868 -0.7722670870467926 0.25408104238396245 0.13773836722545954
Ni 8.146597374253785 3.5816704367717995 2.4359427948676386 -1.6688305568815258 -0.19579927592393373 -0.5804846455917357
Ni 1.2473154903580912 0.3982632833937991 7.374542833875178 0.8672338676326806 -0.5554994364013078 -0.8972355562010935
Ni 2.900513445052979 7.894381623217299 3.5723389247591077 1.205556076654911 0.016639151218577796 -0.1477659266647907
Ni 0.8414034871564808 6.663746360583943 3.577378070478495 0.26153878421358834 -0.32212965842276775 -0.045840455372882345
Ni 4.5881611008373575 2.4939940489436276 9.008956839816847 -0.09909391538038417 1.1208138020105085 0.6098780111521883
Ni 7.579995792642302 6.221808019383386 7.074909820095792 0.38542610448856846 0.9977536056225139 -0.19685368533037712
Ni 3.622978693035324 1.0768670094852475 1.936492283873951 -0.05303594468005704 -0.05946575946580081 -0.09406715158975414
Ni 1.704290959928096 6.06800284265426 13.630590089936254 -0.09309758858763321 0.7598088066787817 -0.7968658594320792
Ni 6.217081801013124 7.5393244681513325 12.836681405042809 1.2931167945847148 0.9866898916091846 -0.72906124108328
Ni 7.131134280000932 9.123392248285878 10.855659282461541 -1.9856341751056898 0.45029966523350196 -0.19726609027744735
Ni 4.105477587983796 3.7310447837788057 11.81385390255598 -0.47238672694052836 -1.111719553018724 0.12281388470514333
Ni 0.8445475300801358 7.187691975224756 6.529794070278495 -0.6828505468551723 -0.27832783074646905 -1.8849880847468377
Ni 5.077933941246313 1.4284164243545345 11.775916769239371 2.4831799178103497 0.8300528877070092 -0.6284493463964724
Ni 1.0157954064820125 8.96810089742079 2.5286505220868176 0.833459599395713 1.3760199591378495 -1.1560836809563961
Ni 7.1706978970613715 6.622216562834312 10.069991940851242 0.821498827489411 0.17609768372994836 0.36004751651446376
Ni 5.812537816488218 5.152279571625402 12.737191739080208 0.2638887725030035 -0.02224338477923266 0.5244268833662195
Ni 3.3154514176343604 8.202859680829468 7.7822040917275 0.3340557204363924 -1.3161780472795526 0.19407020904796898
Ni 8.082082647320652 8.722014460833238 6.469768327707586 0.793426494733227 -2.0042499904346642 -0.09531850749835198
P 1.4785032620050111 4.616296869572826 6.551694369269604 -0.8432534455576832 1.0027775411996667 0.4960043663594684
P 7.1094139834672845 6.2387374812799905 0.6459217414431785 0.7211468713322096 -1.0406015540259757 1.3339495123303606
P 3.1150486816609275 5.744423040405861 11.894740545312352 -0.07857136994700016 -0.33980650687724057 0.16449172405990378
P 2.3027945155388503 2.534923838501721 10.327850538156753 1.5908243154093762 0.9180884883907027 0.2052125988180337
P 6.123148210904159 3.6796102354211837 3.4450984183931475 -0.8351004774332457 0.5372368906466941 -1.8595984410291393
P 2.6296605164978217 8.639130252343811 0.45867118502824145 -1.2321166007522586 0.18664049224280113 2.149103114328034
P 5.069995371327512 8.327670615564465 11.2573896901129 -1.2633645030229468 0.36776056888800535 -0.8872897578422912
P 2.048824894404025 2.092090100461486 3.123633414247537 0.7023932448737903 -0.18706909513978748 1.0286888617487897
Ni 5.5047520760201305 4.674848438171605 1.6091093527807325 2.2229919911977007 -0.20117622396513093 -0.5307083454995569
Ni 3.570362590085137 3.6580560950021157 2.6389357200494614 0.5923387167168443 -0.7955468835103395 0.3660155611724406
Ni 6.85972749773051 0.6258602367867501 4.571482719291674 -0.3379547983804825 0.48386258879061184 1.4504413114722183
Ni 8.716374383832788 7.771906104981671 1.253637730517843 -0.2802970386576979 -0.6729620840968668 -0.7250240948994288
Ni 3.8643112185668502 5.563146719399585 7.601989323675481 -1.6482627600325035 -0.12779102620476057 0.6691169993191638
Ni 4.212297507867932 6.956938055654795 0.4226845398788896 -0.8943350947248468 -1.1971372564635965 0.7327890835568283
Ni -0.1933955633858037 4.219654531385704 4.619890457095372 1.0762015626177723 1.4910737402816 0.4979236948693682
Ni 7.867021249683202 8.168696137492864 3.63998477136254 3.2455731973868556 0.4488570192497044 -0.07140287722301897
Ni 1.6392500719654608 3.53441748396443 12.15286868475929 -0.9325769118148649 0.5075889858732743 0.1812360333977782
Ni 4.672891488377668 5.774017290591528 3.3886118010627824 -0.9727570835781765 1.3489364726574962 0.207114700936753
Ni 7.174104097410251 3.0708973096590424 5.080066278050083 0.5507547226274708 -1.155015387592882 0.9833934802460998
Ni 8.60325899338514 3.2639522530099576 9.65745400103601 0.4436345945085005 -0.4904196731828393 0.7915341628065207
Ni 6.690054412059037 4.121603961993267 7.247207249288096 -1.2003292810383328 -0.8179558473331592 0.501716329142581
Ni 1.860237704356248 2.824626255166402 1.1094566851809733 0.2678760392855257 0.41807037288615095 -0.2986819689227888
Ni 8.163499143464627 5.068499966296296 11.49419907696976 -1.680137754364229 -2.521425077334477 1.6345466959979913
Ni 7.563214025069769 5.998041887521019 2.926801188558513 -0.5735516659173283 -1.5396282521515354 -1.4235676270098259
Ni 3.3057774394077297 3.50899559843376 6.590064431573646 0.6687709288336547 -0.5008164430361309 0.7314924762325918
Ni -0.23197516701212179 7.987309045743534 10.128910899081147 3.061545717286869 -0.06690576068361381 -0.2073540706410687
Ni 5.9240931856378705 7.40856883687249 4.625983771052813 0.311143077504277 -0.2977581715569388 0.3938518666584185
Ni 0.8813861868614706 8.97963028559356 4.877046583272023 0.006761229983233518 -1.3508488591888608 -0.8700296852102628
Ni 5.496702735358278 6.966205874490231 8.578490655238484 -0.2936868297010426 1.049758023714263 -1.7661241858283776
Ni 8.96239620415356 3.398418704181077 7.365611942716527 0.34088688442561293 0.016937399185286958 -1.5658306215785163
Ni 8.927328033082022 0.9154989602741753 9.012091651845248 -0.7098193621345323 0.08787619228769382 -0.586491513907448
Ni 0.47764159786559757 1.0564021147062008 0.12427923516834262 -0.17606451649916774 0.006480722628337226 0.9787300133321597
P 2.584281435427098 5.646944786519199 2.535365075294882 0.4581649269141916 0.312570553979423 -0.36678843478272316
P 5.317651060108315 4.559499171072388 9.010659016901764 0.10116236787363868 0.5657203427983677 0.03533647051776495
P 6.98091069063052 1.7273220435878711 9.655292125367424 -1.3897162256780193 0.9708639803205213 -0.01999212685121073
P 2.8171307682198137 8.512620832882002 5.741951929746254 -0.1757953219981811 0.31493056957116733 -0.13249228833517182
P 7.425756763836218 8.239792492742398 8.563628913878869 -0.48399551482405034 0.016179180863023748 -1.1604231888720142
P 5.315352567189965 6.3178185609245965 6.349026371600736 0.9669561606256831 0.5991865928766131 -0.14205602076420695
P 9.390497433367742 1.3979637009102068 5.865382845640715 -3.0599266936262075 2.3746210003623234 0.5045394004136731
P 8.791504640308503 5.354233098001578 9.486696285172142 -0.29750311812333924 0.39257557104915614 -2.873835646128973
Ni 2.325364054435904 4.230897761805585 4.599503101836462 -0.6046555864109845 -0.8628105417540044 -1.6303413996673923
Ni 5.442212760671444 9.12811846665614 6.798339275020048 0.19126307861647704 -0.6099844548230656 -0.4639563367849881
Ni 7.058200976595769 3.2772078185953033 0.12723219856023119 -0.9236868084140866 -0.4635179636959888 -0.005134235902771803
Ni 1.0221831859980703 1.0264847831866293 10.990074040619236 -0.4684305705062578 -0.8622058182904698 0.3966463986844201
Ni 9.186051565272873 1.9335956289431144 3.610099747976359 0.21222065470475066 -0.7224645617023687 1.2122334886750865
Ni 4.583702578429474 -0.10649406928165384 -0.03301060451932721 1.4248174402565268 0.8390782311340712 0.04943511470267615
Ni 5.144119460220495 5.970764592044211 10.668324724899788 -1.5966668902330825 -0.7987743893087017 1.1530590351974594
Ni 2.3327672324299487 1.6613026807282674 5.398586626609535 -0.4227029865621558 0.2339269360335907 -1.6042205342106244
Ni 2.777622536530901 6.282639619110007 5.448020839965523 0.8586124445122567 0.4574113365776187 0.44526775923654927
Ni 3.350621128553696 0.5318795691119863 10.644262550240096 -1.9379499816558494 -0.5160471439429564 -1.044675466985033
Ni 6.141185380231293 1.3564615958463397 2.4646656485412883 0.0338503728905417 0.7241661177745077 -1.6316845439588479
Ni 2.001110396833934 7.894566241122388 12.121187329156601 -1.3529985585420117 0.5080001052687638 -0.04154465621100587
Ni 5.004557554868938 9.452067504714716 9.232809742094608 2.545653867974855 -1.1927051888341718 -0.8842656263039868
Ni 7.275800870428185 1.425776388311771 7.061656100689498 -0.417322696086849 2.4903746357865755 0.7790797390932518
Ni 3.217631620623284 7.358777387870155 10.258907750770074 0.5550744330487473 -0.8664507096097529 -1.5773625334775156
Ni 3.111208629235089 4.551542139363078 9.755714111750722 -0.2637465904981845 0.11516331013842103 -0.02731437154423683
Ni 4.93892588961002 1.9890179240506451 4.426733050807132 -1.9799291543011128 0.07329906580446732 -0.8889193230259143
Ni 0.9921735455259546 5.670372798674914 10.88126117044967 3.213872780959781 1.1615585880280384 1.3401834090552145
Ni 3.5501007750016873 4.631472461371091 0.4130548699494799 -0.4176530828430743 -0.7457389588492769 -0.0686944771529204
Ni 6.338071145112791 7.999983064927851 1.9861018842397742 -1.8190395457701705 0.016934570971809546 -0.7927160989297639
Ni 8.82490201933899 7.045443879354162 12.419955408050646 -0.2870161025490864 -0.1873873977111547 0.8660097654175923
Ni 5.020683928878408 4.414463344834958 5.221547286525036 -0.05218876618841334 -0.07540634195545723 0.5379603990762799
Ni 1.3562492852554882 6.594256181108678 8.540269210348036 0.09880518049537178 -0.8731738872661994 1.6208617423117313
Ni 6.2153002382290214 3.5272912328280186 10.814480258731578 0.8237873664132717 -0.19216090784039808 -0.3986562300255973
P 8.378449770359024 6.396604251921062 4.845783387224357 -0.1561628924792343 -0.0318107167526936 2.7010690836547866
P 4.811927232699725 9.0143938371217 3.7707247101194503 0.4498224684867672 1.1307907107175623 -0.9637587367343079
P 5.3231526736799495 2.405626688673076 6.412538623309239 0.28439126333172954 -0.5272628101531177 1.9749522699118116
P 4.8736634601612785 2.362398406196633 0.21583033121214323 -0.24539868411861607 0.1797352804825356 0.8128655772944453
P 8.202102747418607 0.6326938685435963 2.096522776362658 -0.16927500438116008 -0.7353496451951529 -0.5772615106687478
P 9.196805558244272 3.3938032565538676 13.770692925749723 -0.2166519510032269 -0.06536001346304873 -0.46834443855035474
P 8.737153129050485 9.120207589423105 12.188333784326769 0.07733621198831842 -0.058649691322408666 0.4213657558079711
P 1.8155417095343518 8.827320513895648 9.246279464449856 -0.8021163091977411 -0.6947573255950874 1.5957837162971809
