# total energy = -340860.0649166254 ev
CRYSTAL
PRIMVEC
9.31486875551532 0.00000000000000 0.00000000000000
0.00000000000000 9.31486875551532 0.00000000000000
0.00000000000000 0.00000000000000 13.63325198506083
PRIMCOORD
 96 1
Ni 3.899884064298898 3.013881688831843 10.320767507282389 -0.10642207361068123 0.7582162653806813 -0.5709221987142813
Ni 4.512858320425405 2.815232796843971 7.747041313766259 1.133583442971351 -0.7468638164823395 1.4406130125278866
Ni 0.20584649110814895 0.4301289705414595 10.04177600893731 -1.4011946586312642 -0.05989821901752909 0.05159149892404663
Ni 7.104897545998561 5.800489893859311 11.317112887044628 1.1114804404247245 1.8139374486569149 0.20946057546111022
Ni 4.904846629186243 5.807205914262728 1.6623845804576551 0.40178063458719193 -0.739420729940733 0.790603166351819
Ni 4.887120433863495 7.525966875147008 10.948646484972704 0.4426156663256829 -1.2575869771092212 -1.6007143208295787
Ni 4.135233539351208 9.143205081001003 6.934948696264456 0.2822945287037009 -0.7332680800757759 -0.6773465863178078
Ni 4.429732431271332 6.669837283915397 7.103728529964402 0.3801584283317259 0.39521789376800964 -1.0939612005940387
Ni 1.1388079146469687 7.184148449732634 3.9470852989594127 -0.1998410500934752 0.559598546171346 0.5280976473495873
Ni 7.635677399850803 4.252591571338229 1.62663783995814 1.7294252877454472 2.1935875698936544 -0.23082130052507344
Ni 3.131146572130883 5.181134952606119 0.17007739492351856 0.5043558236479573 -0.7641606558895743 -1.2689389117869307
Ni 8.832246815914672 6.3330861471271795 7.898642666428784 -0.021648174397394974 -1.25390515738226 1.1206821615286504
Ni 1.316647389739928 4.0050861925044225 1.158721241163506 -1.415330326701698 -0.33904546034149996 -0.22514996117190902
Ni 0.5263217576454807 3.9838017173008082 6.981956181653971 -0.26161180354336877 -0.9538188519127767 1.010334013390686
Ni 2.8190798376575783 1.6736117918199818 6.731117942764212 -0.5323947320630444 -0.6518515273704968 0.18507674730010706
Ni 1.3177372293893035 2.3141580595888085 5.198004179999443 -2.7378937086823045 -1.5830526418837574 -2.0899754549279423
Ni 9.09434859415507 3.9203022567042907 12.58001534679339 0.1620175514877984 -0.9204274209365245 0.7348035428836959
Ni 3.9759213382976317 3.2828764699828215 0.912424932299691 0.025723887128665378 0.20400700854570672 2.399910113946415
Ni 0.32891453766839296 9.019401159805712 2.5136713714011423 0.13146744661508325 1.2932438070808825 -0.08347009280019818
Ni 3.483034370715982 7.717610985798722 2.4033376819747545 -1.3871980872418561 -1.2470763073858846 -0.8311273517181106
Ni 7.7492908545809955 7.203085577999132 2.614380938385353 0.7076087276364588 -0.9695306062210785 -0.804211501163873
Ni 0.43988070668617035 9.291590940954432 5.3991494568252 -0.31454773231045186 0.874800624236345 0.9101234679073551
Ni 8.226519527713071 8.861923987905358 7.969794291742924 -1.2735036483394777 1.2527389049883006 -1.7332469754843827
Ni 5.478530768722446 8.52482820097161 8.816065025838645 0.4431224307587723 0.29105504850515035 -0.08052129458451938
P 0.20862791093125588 1.4376382205582001 7.303183158103309 1.9786893683567406 -1.0191456981450449 0.461544899130018
P 8.312123171967434 5.599400506246343 13.36916264798488 -2.728491184421481 0.5878297731028973 1.3533554276607982
P 7.037569674326033 4.695467008342981 8.36582711653589 -1.216709779278885 2.7698576631834104 0.836508670634682
P 2.2422286427300286 3.3239177819071655 12.948821741576445 -1.7442019318339894 0.9884433839651815 -0.6304617488408111
P 2.108644109296751 7.432622574921439 6.113136944658736 3.072744414216166 -0.440672426556383 -3.1170717753786317
P 1.2956982498130443 6.193726395039092 9.72327642607205 1.4691311745722375 -1.356856241725205 -1.477907892323603
P 9.072523856561167 0.809086709340662 0.38698529272938853 2.24257376998437 -1.9818932200060193 0.059847568285251763
P 9.072430707873187 7.2443411319058315 6.003143247943479 -1.6691025795959902 -0.49981499835481014 -1.1579276761436705
Ni 6.295966394966827 1.7701231474368975 9.293869357862443 -0.5913213311959236 -1.0480675233857177 0.09001894966230949
Ni 2.1995665436348184 5.8427048792522145 7.484969343106013 -0.6674686650824635 -1.7506484587902817 0.47633979805100535
Ni 8.852292413568142 4.8096486700698575 9.954441662060262 -0.8533195715444336 -0.23310572568387597 -0.7006826899405868
Ni 7.511398420346809 7.5680328226391405 13.261705390043339 2.431940145798767 1.1974056796336345 -0.5625344888712183
Ni 7.977477195527581 2.9429769075408516 8.361137080096055 1.4653539669179925 -0.9787001885354888 1.183836425589632
Ni 6.173289572896103 4.143346790074337 12.980833219687929 0.2971017689198625 -1.359459483676007 1.1210197473737273
Ni 2.4129981324052445 0.4057100419872906 8.66014157405381 0.9384585674066226 0.5762047872694592 0.7638276980301877
Ni 6.108113435915931 2.7450452604504316 1.4977079464632639 -3.801587882861685 -0.5807070460151871 2.6758697015710236
Ni 7.704421131580641 8.41217417772762 4.655891856767456 -1.2546844587504458 0.5128085824010007 0.08722107520219817
Ni 9.309251932195593 2.28017741821341 2.4510130434570923 -0.23753779331330058 0.10918935194317325 -2.156864503441008
Ni 2.6867714412496384 9.118287806966137 4.831256371220765 0.9472034034787881 1.0343332045187605 0.22754622931822746
Ni 0.7664832939188796 6.315164339559671 12.603886561062232 0.3366792741021686 0.24048299198455358 0.15472616003270773
Ni 6.783674295496744 6.937080869732337 6.826005716749622 0.0858121106698135 -0.05565409902919447 -0.07710147026969302
Ni 6.620310126516003 4.320627373039411 6.229060486850852 0.908425768489958 -1.117339727418979 2.791719239143192
Ni 5.227811760153301 2.534426762057026 5.655140681134058 0.16182291897848902 -1.2679366957746616 -0.8897289634114033
Ni 4.6581795885442645 8.747602603146511 12.750839794194514 -0.4342564957277102 0.926774960421107 1.3791245662051024
Ni 1.0432373607786594 8.1953147172395 7.622896468372956 0.2372341460299527 0.4087233844536122 1.9634229291159733
Ni 7.9086775745849565 5.646403334201459 4.723881084124647 1.2781750856732181 2.0325678635427513 -0.822802376792183
Ni 4.401778510008291 7.491147895579781 4.801726374157089 -1.2923269516935678 -0.7106189752176922 3.004592439830277
Ni 2.3834234239713377 2.430593919564819 2.9560708186103137 -1.0503712318182297 0.8809553309838313 -0.8028411031789078
Ni 4.387144851126506 0.48380217604288106 1.4013214100882425 0.7473155593077775 0.18328134596258114 -0.4464126714742699
Ni 5.711281395380092 6.368780724361426 13.031493996620052 -2.3737370550954733 1.002532515068396 1.438360469048284
Ni 6.687824295564492 1.2141186288794523 3.1691447164188937 0.24560437237151897 0.5296002000370428 1.4869851720345229
Ni 2.4505649982679043 5.34071728485484 2.6577202284421837 0.5129322524630586 0.17481341770088604 0.8508322863462057
P 7.438630665296201 8.521540052285888 9.814945912887724 -1.3506007477337967 0.1872318459698969 2.2457580812496225
P 5.985101278568475 0.9189909833154581 7.377743093910666 0.00947322959775788 0.6633055348437091 -0.7923435460816934
P 2.5932687882545027 3.6681487583402426 8.233243931498405 0.07100255646080675 0.6405247895037678 1.3406040415324008
P 2.5769584529890635 3.6474976942148976 5.94338929609067 1.3953351145266937 2.576653144569846 -0.40964949581230736
P 2.745948802723846 7.088279820062785 13.557587539979979 -1.0164799783874237 4.166717698995063 -0.03564217468364184
P 5.767515258314105 1.3496779144979227 13.405631290816245 0.19148419348834764 -0.2374341778559008 2.0281859324249716
P 5.848377634350245 5.8481168180238985 5.134991887041066 -2.1180662996268875 1.6774398958170917 -0.7508004325325844
P 9.227327661116473 5.388046133217888 2.604237046264243 0.5552870632801856 -0.11248267798246435 1.5432216259297487
Ni 7.684394163664766 2.310720873002317 0.2539428846601596 2.4219984612050225 -0.4058542904359333 -2.3550978427277314
Ni 9.10323497898844 7.354219324247993 10.412900874564205 -1.0139986067264664 0.09404709698509608 0.6699137841888462
Ni 0.4425168145560272 8.696463973445047 12.214644275623067 -0.7342116749359678 -0.18523049926915194 0.43459613845531603
Ni 7.66068782257365 0.38095391518263116 12.068386863190003 -0.6543889490803698 0.9550838346681294 -0.5801149209571429
Ni 8.607320679047413 3.475070157893623 4.4571330493277665 1.134777206169136 0.09854858439987545 -0.4084001967862386
Ni 4.381146075620542 1.6031448093625005 3.5935618094133703 0.6934427205487218 -0.05391963283659101 0.3197681001691267
Ni 7.24997662752867 9.301827981763523 1.4005985762695115 1.0320734619503065 1.2432242806296459 -0.8519692281641262
Ni 6.468300782600121 3.930520667775786 3.959123835394052 -2.545507057984345 -0.24829194650601114 -1.7714759370585944
Ni 2.6899850709849757 6.431199660177365 11.360862031328574 1.8616661221914452 -1.4462355009209866 0.08483869101295066
Ni 0.9704789205968499 5.182429719369051 5.091378739841572 0.441512148848859 0.013863645355969673 -0.5534188997231952
Ni 4.725544719691984 4.932847124793274 8.52744940505139 0.6240702434921703 0.39412851735857285 1.3165917377782035
Ni 3.4567664407053944 5.425426701704587 4.96917045567139 0.1338598581066598 -1.0707749922855623 0.23245266548090934
Ni 6.382296598987441 3.8531047931949356 10.61998996917002 -0.18437020815138572 -1.057579833751527 -1.9851132696052136
Ni 2.0349169227599413 1.6095254944891857 11.065483815793913 0.1729300846352441 -0.7789851224969165 0.8140449423145271
Ni 1.4229114129884344 3.8204282334512683 10.908455620569626 1.9639983420034695 1.8062441937777152 0.6706897431229223
Ni 5.489550258510575 1.7156870541809128 11.450472932139872 1.8118664250604988 0.4020140907542367 -0.17021088593186817
Ni 2.0573750714321144 0.19059618791193103 13.407089999270026 0.7414328752747553 -0.34154765793806335 1.5842826576361166
Ni 3.610070551384209 1.8695034826436217 12.907227126445493 1.0814450704048988 -2.3342006875637478 -1.4201526877910056
Ni 0.9930581625633979 6.956409222488355 1.5549813487551436 0.3040923413050827 0.1479739289105387 -1.3611661819544687
Ni 5.548736934853581 8.124083915540576 3.2583066405541237 3.247709784113884 1.4903101226426978 -2.9507406841171435
Ni 2.3106836135271247 8.615107909362608 10.732573199411144 0.23102493189544732 -0.1554663806328419 0.8967550170202492
Ni 3.2753314262563755 7.289425096888542 8.996201547577211 -0.06539626601762286 0.3101017807239562 0.6023130543207368
Ni 7.892469702876296 2.124851981005412 6.259585311902162 -1.6399382993272082 -0.9747193495108698 -1.3690460989231774
Ni 0.9976690226184479 2.3860409021035984 9.079841617488938 0.1007921290184135 0.9128005005188861 -1.025108343486383
P 6.019920258135702 7.69660595665905 1.168005370894553 -2.0373729982408784 -1.4726376450635994 0.08514902316451786
P 2.665198205113283 0.2824817796837196 2.7422740869830027 -1.340330733266356 0.887681079743439 -0.44875777466767874
P 4.083051644344359 0.6146276453381668 10.502279835142431 -1.512536538141066 -1.3706370975593813 -1.1539553217594836
P 4.177877008708823 4.01723278141712 3.06281921503632 0.3638982577191217 -0.4508917902915461 0.22957508682279815
P 8.601508200917412 1.327238395563346 4.109239466483284 0.2743356788679404 -1.240736995431418 1.1557090712257967
P 4.759003728414692 5.1605863520375514 11.616212392664124 -0.7309605149885219 -0.30923146230386095 -1.940452693473045
P 5.600313363388554 0.25506998378472734 4.960404232645517 -0.5414213610416869 -0.07936738348573429 0.2963237531032574
P 8.900813565137344 2.5968270681353696 10.98080700098496 -0.6200575227883515 -1.5133487496297162 -1.8724084483096142
