# total energy = -381163.9227464896 ev
CRYSTAL
PRIMVEC
9.32933421514266 0.00000000000000 0.00000000000000

0.00000000000000 9.32933421514266 0.00000000000000

0.00000000000000 0.00000000000000 13.65442364742067

PRIMCOORD
 96 1
Ni 3.766569489097607 8.646781623881685 0.34910835740060786 -2.876343757262808 2.474761611839667 0.2598811940055073
Ni 1.437622440917718 4.215935538480033 10.841584971722023 -1.1758858032839878 0.48552917785975735 -0.9250386944562908
Ni 2.02031400801402 0.5219967834462471 2.424971088217228 0.7265886111730713 0.8877864949730517 0.1507427499049275
Ni 4.653863823904919 2.429526602198033 10.458127870978126 -0.10198512088525016 -0.5395889358186384 -0.7414249048549554
Ni 0.1439646906479534 1.1538147595536556 11.768857370241287 -0.16943878365253398 0.22322754733821554 0.39690145211801964
Ni 5.818892443390846 3.3484007339027952 12.411748333331733 -0.539358050754755 1.3301597062706252 -0.06175018462460333
Ni 9.171463389764295 6.478149857795088 0.9970828747981215 0.2392786872638073 1.9632473227700575 -0.5002829391301642
Ni 7.196126102826378 0.3571119933705703 6.758584984778522 0.3027623096397496 0.034723262413798264 -0.33882794501405517
Ni 4.207940298911018 7.367907136880369 11.617306997803874 -1.956799767372501 -2.1931422548261197 1.47365837301863
Ni 6.016375793678951 3.6212930940349475 4.377171625877248 -1.0528256068959934 -0.62336961788072 -0.8920447560287734
Ni 1.9377680573644942 5.121459392678074 3.0805331532710776 0.2735000703405225 -0.3462265514709715 -0.2811501306866126
Ni 4.203340937058598 4.57689681521837 10.977801650162197 -0.7560166866262011 1.0849816228032476 1.1924179966110562
Ni 9.12559105258711 4.2245651727873135 8.784204585258 0.10572504754365662 0.4399787429234681 -0.692409137077885
Ni 3.85712933798492 5.34042820005771 5.1025898809484485 -0.2850044714356963 -0.6890206802216262 -0.5979365225195961
Ni 6.746088341368141 6.998101651143869 6.322694225983592 -1.3572622189143722 0.9960965296350651 -1.3108715474649748
Ni 5.794188365936059 7.109372622368653 9.865144182186915 -0.4730642126235272 -0.03031844847788327 -3.0230624736100067
Ni 3.680170523346561 0.8198311190600338 6.466707429170354 -1.1199082594771035 -1.3373513389230582 -0.056800811039127985
Ni 2.6053285793724976 3.3179497864660807 8.955554604063348 1.2662202273041872 -2.021668700131744 0.026958016646082605
Ni 0.4263627095862535 8.144975385914156 11.990877802898664 0.7187961117118459 -0.5622634945980187 1.6983000270955528
Ni 4.261901169001079 3.0644437831885534 6.834503376280056 -1.6317457362140864 1.4015291591525476 -0.3164112678817519
Ni 8.751363462351529 1.7176424125209633 8.138132319141844 0.165245828617109 -1.901128956172758 -1.827082727789621
Ni 7.33182127147436 0.30518678404358907 4.029202380205201 -0.7543984342964879 0.009422321755164416 0.4219805065738345
Ni 5.000672500379317 3.759768404330032 1.9506714597541144 1.0722322935573794 -1.0342182762074512 -0.5371021648410427
Ni 8.743396210785672 5.7846631155277 12.327432607949136 0.5672059262049586 -0.13694132524546093 -0.3404174009883621
P 0.8935132691091849 7.670224217666748 8.402290556421589 0.0191284932993348 -1.1718306593780077 -1.2301093405142427
Ni 7.766148433826154 8.090743965126894 10.940484312617205 -0.07038086371640782 0.6546080070697112 -0.2526473952612294
P 3.7892211129874185 2.54937123172378 4.757406374524135 1.5558172032065722 1.0570514720518827 -0.10982235754148183
Ni 1.1732291044114387 2.8428534328463817 7.048646118981686 -0.18337416278670352 -0.6127795010696995 0.24355366049007734
P 7.553308999138283 7.655194659970502 13.263784314693098 2.3213297451383506 0.12374848070427076 0.0034578766416133995
P 6.015461518909099 5.612583542773348 2.2824599078666523 2.362398233043886 -0.004435924284166554 0.24051178833996
P 2.0620347913893227 6.0493270027311805 0.6766612877017888 0.10730267644342165 -1.5098096261282061 -0.5178564292375533
Ni 0.4364365248565245 4.34314101283653 1.0149457513474711 1.5710509894371911 -0.9849130022144198 -0.6090164344828415
Ni 5.130910008411345 8.446443497271385 7.669798800018735 0.855347657718056 -0.212515303127034 0.256879431064706
Ni 8.940217178332356 6.763011753944796 6.845044591203078 1.7503324702117598 -2.101562902655226 -1.425177651809423
Ni 0.7152222255204693 2.297665789982798 9.837302649578033 0.28072769843721335 -0.6904242454373721 0.16193707595885015
Ni 7.694816343108899 5.1324680072538476 4.590767669583844 0.5344264177810926 0.4179855264818285 0.6626810138858329
Ni 2.7679295483904207 9.138987976765764 4.5116539810550185 0.4020621703833527 -1.3165711689529132 0.09618831169781498
Ni 0.284526973045242 2.3529607548900926 2.906959021148049 -0.6815210294104714 0.15798991838564405 0.46975520285495226
Ni 7.161831469622529 7.465034837175601 1.8964353742996594 0.1529821807584075 0.23263598513630904 0.5902784917537061
Ni 7.32289309846672 2.3291896108739314 0.1730330307286261 0.013939235788911477 1.749832647757206 -0.27091945409753987
Ni 7.304187783022293 2.694731590795916 9.404839488236615 -1.5674864120143843 0.031339947763862154 0.9802135398562215
Ni 9.414417915850974 6.315157056732942 3.337004951949993 -0.8812898315051144 0.0368711619947365 -0.10650974822848108
Ni 6.6909426458110275 0.3395411249875101 9.2621100014614 -0.0822058813757939 0.12475198226812062 0.8903509132661183
Ni 7.071336926075919 5.572700638272136 8.078312627057217 1.082295334220336 0.18461472006202398 1.110565899030255
Ni 9.241741265695904 8.730083250616497 2.900691574307367 0.12441053976830187 0.28808696701576186 -0.3943290634051531
Ni 8.741996810627736 0.6034726594416703 0.3156524313580825 0.7743995600087631 -2.294873607829351 0.5036539124849262
Ni 5.599513145298214 1.576778792622999 5.577818711116432 1.892738418116218 0.027962803761513135 -0.8436020871463534
Ni 1.9717734812023697 5.992119524274705 12.094556561799921 0.8018000635089031 0.9550660940563165 0.8716229978393117
Ni 7.895536972429032 3.9616272124452885 2.1895957133859354 -1.4121287890452647 -0.4432183329066883 1.4527653316197044
Ni 7.386379218965141 4.903041016027227 10.526127523452613 -1.3912737999731264 2.3099261312870993 -1.6256133980641037
Ni 0.5422526342656696 9.155995353351894 9.730579728866546 -1.8955388636794903 0.9080326468165973 0.9409857047038505
Ni 2.1852379812941187 7.6264043340545395 2.0795002382938184 -0.3100696419344402 -0.5467952237590905 0.6149366566220185
Ni 4.90885319134986 5.495425761550841 13.230604536948405 -1.8117820928768087 -1.0168191068943973 0.9277658635794667
Ni 5.438778043157542 4.183945250869588 9.059355577245062 -0.710150520221706 0.3587977032677627 -1.0521141826512657
Ni 6.167986806789874 0.5255773819836892 1.2916379493751418 -0.8220261607477907 -0.31713991851766027 -0.44936455501374223
Ni 3.1894568639642817 4.002741589085486 -0.03497194288029071 -0.4990583226944437 -0.26706665601035295 0.6542701641143184
P 4.267918589680209 1.885971592852043 0.9642744045620018 0.13084446831910368 -0.07349292698282826 -0.7602824038810907
Ni 4.429894493294254 1.3724850282329317 12.351245733970035 -0.13317054534911904 -0.07814765214602025 2.5732562030731554
P 9.236591473114695 4.489406317344132 6.084410897624106 -2.536767107008186 -0.1335757512073377 1.3646806228656303
Ni 8.139639006645222 2.4305901463180652 5.262224121631545 0.08730900693031415 0.7066003409766024 -0.3400782724813885
P 7.780711524803087 1.5135165761498486 2.180119908449823 0.7534916062115024 0.4106409131912992 0.6720529420190361
P 3.1786721534137787 7.008168002946631 4.027795516579755 -0.35672385145786956 0.3875938015638486 -0.6410824617794508
P 9.112865840484268 7.757528128853261 4.853341785884805 -0.03605020875533791 0.9850251023122518 0.7329983713541569
Ni 2.7398762398909717 4.9968568026153415 7.359911897311354 0.43861297292419305 0.21026944451565077 -1.6238077123139323
Ni 2.8416033020386244 2.9367158661064265 2.34827463022788 0.1027471958622553 0.6367874339485227 1.3809891302176667
Ni 2.5732543277525757 5.434813076043386 9.472128245430868 0.596994727431617 3.388469454664171 0.6658630111582403
Ni 7.122564301190809 5.188341390893089 0.33210471254823154 -0.49596348581920396 -0.058661775507266714 0.11998875655152239
Ni 6.814733583782157 1.492348316427451 11.452689026691644 0.2111870712339137 -1.039168935344507 0.42461922974826233
Ni 5.642110886105824 4.7734938787397825 6.396715030870964 0.4219188000979637 1.9174816864991688 0.5553870791931597
Ni 1.869971784379627 1.9983061081968598 4.516378355988215 -0.7543251578563912 -0.00023242772578024485 0.3956354409214025
Ni 2.493264614724882 7.723532034349771 10.360526240496073 -1.6791013426799144 -0.35690614267200466 -1.979443730024262
Ni 4.544160180857024 1.314316628334673 3.1060945965559594 0.5729096614579553 -0.17250713816521257 0.09012102245781253
Ni 5.517582930718182 7.666054005196095 0.15991878538187676 2.06735951730064 -1.4084929920648905 0.46472612507147704
Ni 2.60452625661528 0.7839784870136812 9.54408726741888 1.0194927970718184 1.2292135681728507 0.3740507727720913
Ni 4.907024641810155 1.5625888750215151 8.314424086371586 0.6464897488379511 -0.2553671081852376 0.5099536294507089
Ni 1.7324760541950983 4.263785694547101 5.356712553228906 1.8190184627242478 0.5123347280883758 -2.004599660464599
Ni 1.4022735929282228 2.10528558560397 0.9236274275745561 -1.1027667147008104 0.4278241098388051 -3.4427606119075675
Ni 6.995918586897487 3.135906484587216 7.211651981111972 -0.0970275197696587 -0.3047767689666171 -0.5060563512788316
Ni 7.9156043706938535 8.02992603426294 8.27832236109712 -0.10046277070345279 0.20176809191285897 1.6564236985767409
Ni 5.7089648963176804 8.847614205214454 11.699451787074793 0.5557519187317461 1.6959189284578855 -0.35491842281801456
Ni 2.9740145449826474 7.580578643549287 7.920808273414503 0.10902377289958644 0.5903898205205896 1.1935333411624218
Ni 3.9733915031063476 5.846852458546431 2.152346479981962 -1.0120476536476828 1.1270656964574912 -0.573797206269231
Ni 0.3565466357067637 0.66283428120793 5.564724057371894 -0.8203819402761483 -1.3738118957429373 -0.08031946298635845
Ni 1.6694564004159904 9.60175095032684 7.443136090570761 -1.0357570814494808 -0.028629490811234566 -0.006576367665937061
Ni 8.204086048585426 3.2010905439439337 11.40594999434998 0.5564052360450288 -0.6424423182414549 1.1033873790039448
Ni 1.9755145442912552 7.108700910292844 6.036729602509429 -0.9224475366903468 -0.33013144568132174 -2.230348945783404
Ni 2.2075350904772524 2.4519076753906432 11.997910255159018 0.8833654830872205 -1.2904780714102873 0.1417325759865172
Ni 4.810447372243712 8.27753589820836 2.464323153591862 -0.5883905307023738 -0.7125969248796696 1.2958434494872586
P 1.6714435486402615 0.040909131283699184 0.25573944592959535 -1.206138431520942 -0.2746393261512883 -0.056227455034161225
Ni 2.5584953207535306 9.241685289689585 11.972949621008611 -0.1637785000429631 1.381177334969073 0.25670253916720953
P 4.461754170223292 9.145303936145254 9.783817575541672 0.7436165131896355 -0.557737067482575 0.4046145044915613
Ni 0.031614315434679914 6.551814282108905 10.079518292381325 0.6574259361344806 -0.6583366208742081 -0.6767950846897117
P 5.440392018006362 8.644449290285122 5.460404373198304 0.41137984823985285 1.027180138413747 -0.3565924680863278
P 4.538665202903523 6.185731200792518 8.065845837516875 1.5326451359654831 -1.3862544923816642 -0.0332019406732654
P 0.4496617892824702 3.643412945864742 12.560172445816315 0.9642511029896943 -0.12726677827017435 3.112491612207117
Ni 6.285368492037651 6.511791437591899 11.921922826583025 2.2873384757945705 -1.6168389943055832 0.21431970332562442
