# total energy = -340857.2421871223 ev
CRYSTAL
PRIMVEC
9.39680420192754 0.00000000000000 0.00000000000000

0.00000000000000 9.39680420192754 0.00000000000000

0.00000000000000 0.00000000000000 13.75317279304178

PRIMCOORD
 96 1
Ni 6.791004437858516 5.434726136375215 7.758645962809142 -4.275176600530115 -1.1309791725792846 1.1681424118931432
Ni 3.207279537386023 3.9017409365907967 11.759842672418767 -1.3201236621908619 0.04450476728059432 -1.5847986780405865
Ni 4.933904676191506 3.83957168165008 4.01130485161986 0.8534666386452591 1.1893794668950486 0.12133678593898457
Ni 9.273367534434131 5.477923244138589 8.795690402382071 1.4422595469923742 -0.8722228362068398 1.0522036570412783
Ni 1.055336258144211 5.389226811643814 12.194291687254413 1.2820553945642308 -1.0266000975405611 -0.3346110787192302
Ni 3.1068652903641807 7.915510569887041 5.7174552942962125 -0.44855954261394365 0.7422155190770507 0.16978922501341726
Ni 2.9069294926958547 5.418854934501746 5.397143618972645 -0.3373274492091287 -0.2909180087066538 0.37959972761477856
Ni 8.009600767849768 3.5638600569197907 5.0299616252212065 -0.2866160388971903 -0.21529672252691306 -1.545771646045112
Ni 4.719507197242381 3.979029649088893 9.679015345159549 -3.5015008060612534 -3.3325423044792477 -2.3690442776054943
Ni 4.072386896343431 4.146358537046776 1.7907047639894662 -0.8085322400264139 0.6428179564133186 -0.6926649618424329
Ni 7.975039322917489 2.30136185886883 12.10170497792387 0.145747096462549 -0.36585152479075056 0.441154251288808
Ni 8.558975514048997 6.793616749356932 12.133983939176417 -1.4504156004406052 -1.0199082873426824 -1.9670322437337866
Ni 0.7599496053010328 3.143794729892147 7.355114312333522 -0.4713328317547173 1.6765826900231189 1.1840829943827993
Ni 5.465726192610013 1.624914132838384 3.9480408690188358 0.9386855958157642 -0.33619539248721453 -1.0927229573115633
Ni 6.173220958895014 -0.07290416377449555 1.750311662525112 -1.0807835255615001 -0.5400941575898311 2.2328035779714837
Ni 1.3008371581715967 1.5150936850614545 12.009531727967172 0.27566442498169297 -0.48489437248923584 0.25410803896715595
Ni 9.177538927740445 0.9973861681775535 8.395294465384946 -0.849599185270053 0.12070995098826308 -0.2302258330329196
Ni 5.743016480404093 0.7805210885108602 13.403401943656993 1.558486008287987 -1.7312394581360508 -3.0288348573174098
Ni 8.60001135690361 5.137561608224482 6.678636516530433 2.25357166375677 -0.022924727116973423 -1.6537173553891713
Ni 2.7185987479071816 2.4131744290834 8.20081069336907 2.7117512459589816 -2.190935219872472 0.09299834400560758
Ni 9.414469942564395 7.7057551120897765 9.657078506335619 0.7318753134933073 1.2282738299674008 0.4189869711631494
Ni 3.0418769942381227 1.3980752854579548 3.408462290938665 -0.6798302719716098 -0.7584728614761775 -0.7580514576680428
Ni 5.780960774758782 6.623431232997903 2.2893254926878193 -0.6602304954628114 0.7420867068086704 0.678953011572979
Ni 1.6757602390179822 5.970748024159881 3.4653871895942534 -0.7504777590858429 -0.11932798303907192 -0.721975280770776
P 7.50258681386226 8.688275536416633 5.505202166008737 -1.1335325351287575 0.5856435640848558 1.019099932508774
P 3.306725913600898 4.966690125177021 13.616300632375912 -0.8690194987781937 0.528537048879851 -0.29252186285866394
P 1.487824159995257 0.032298694540845545 4.140970409661194 -0.17027747750374544 0.05542758484068518 0.2490483650560614
P 7.990600430260571 6.988825954637836 7.928593740028207 1.761203608598309 2.893244646783204 -0.0749301736499871
P 3.390592388864789 1.1241584502823327 10.750731172270985 0.05417262938766154 1.3002644613730896 0.261162374710776
P 9.100954975538684 0.6398575111251164 10.694246983720705 -0.4228536532074073 0.4833288277743289 -0.484464741150985
P 2.5097265896813252 2.5440907017306302 1.5513719260756065 -0.6581972670828664 -0.11199699659529744 -0.3714578152339345
P 4.854962126198011 7.94081616292745 0.3388543885603441 1.1763272616967804 -0.771352031431691 0.2594135103404694
Ni 9.488234853580813 0.16061299217400626 5.882617279262964 0.22467739241086465 -0.2705132197980567 0.48896005791817726
Ni 3.472908391476743 6.925153211064937 12.362176866006205 -0.13039118283176898 -1.104339458504569 -0.5471325524938513
Ni 4.019417112470876 2.2608616338394327 13.2534787556578 -2.155274276135753 0.46393165419463966 -0.025087024875614858
Ni 4.419814928828792 9.035280712724193 3.6579859627375324 0.6647641216671067 -1.8055795636105225 -0.026393916612496477
Ni 6.224649666919582 7.0683323128684 4.885883249279619 -1.9757593391941393 -0.12846002724732716 -0.02829601873121578
Ni 3.8271585036306286 0.20346053883039739 1.0723200416054945 -0.9897273928839275 0.8273336890036331 0.6573403183992099
Ni 1.3908679368274333 9.348551362847173 0.36004887987213197 1.1231434785849497 -1.8842154682468713 -1.1388647459749484
Ni 8.158136047905378 6.247408726089234 4.304385528773429 2.38351187509405 -0.42916108348267373 1.1534192467503555
Ni 6.941700982822888 0.5188163397501351 10.384552757181527 -0.20187864934879426 -0.08402570819335206 0.48646505941046536
Ni 4.422511811562768 6.214867594006449 10.284415715876243 -1.0791511321643996 0.39074905936337867 0.6827423034120822
Ni 6.891963699509524 3.2974230776892735 8.739082176019636 0.3088985044444745 -1.2343467756343582 -0.2650663377508725
Ni 7.8382406509968465 2.3361112398801316 1.5294350872516786 -0.6288504384896332 -0.4069691207666668 -0.06498231840865583
Ni 1.5302601266385885 4.69072478674005 1.3350076960595088 1.3313377857391266 0.27008230290822516 -0.9611189851186157
Ni 7.9776610312198555 8.415166826380808 1.0606473317373932 1.8932012166852492 -0.29882646492045306 -0.27268734463124006
Ni 6.03764387148802 2.8116646942392354 5.904484581737654 2.1471153944740444 -2.0597534228186074 0.13141731010343818
Ni 6.891080399938117 6.315526157931021 0.06463873501907609 -0.32828873604562814 1.6387923586482227 -0.2908552737895184
Ni 3.1634528437579235 4.6441824167700725 7.852483386745584 -1.9296442900036317 0.9996122560978075 2.0907210748447156
Ni 2.9911812369217428 7.013483168205617 0.8597934663230409 0.5078813203027125 -2.7652715864746247 -1.7047462969415286
Ni 0.5282629467622123 2.204480810132615 4.521754277131904 1.2923382645474775 -3.0771425432838617 3.804659065587841
Ni 7.702672960393804 1.0487678921823667 3.702436604147987 -0.006522117389233929 1.5495660800905378 0.3177695816818592
Ni 4.8009962811066345 4.401895223693975 6.534971599962696 1.2037755877157204 -0.009643179516718876 -1.2204347935389561
Ni 0.7677583493844271 7.0083525132482976 5.469347720852781 -0.026481334119980198 0.2578574787072591 0.3384304524653204
Ni 4.9972391348221645 7.499335519695167 8.374953203871922 1.543098212978007 -0.7400658197238996 -1.4227639001616077
Ni 6.331857803198096 4.555485984275298 1.319784873658668 0.32625499344505104 -1.878161548743307 0.42667611227729096
P 4.342366470663527 6.400576630492755 6.773093189847255 -0.43812574887512934 0.6153652595190048 -0.8109493341083388
P 8.458918345577299 4.961625247847358 13.323248145634198 1.5567782815682607 -0.9792439768541007 0.2272976036425311
P 7.13994535578001 4.832672907225915 3.3485670625541224 -2.3834044029819084 -1.9994106600644923 -0.37400037915013007
P 1.7884467120000083 8.82768651983569 7.49519058947232 -0.8464673245092906 -0.2800946928389047 0.32463134179869896
P 3.8690964396645495 5.829025426968843 3.3701740735593653 0.2165820169972399 0.10725125438019595 -0.47961075549279336
P 6.136000218444563 5.103094131331714 10.243624189924361 5.277518082633627 0.7043951057951675 1.0517683692760724
P 1.0313650112648622 7.737102850070768 11.936529837431584 1.7025282062442875 -0.032506200157821435 -0.007494508604832253
P 6.2272713752219495 3.136596778065576 13.377806929054888 -0.057753918981016665 -1.0353328494278686 -0.32131821826506596
Ni 5.328739584610349 8.945052601185383 5.97206733543462 0.04840744476911018 0.6903859360002691 0.4195109619874194
Ni 8.449606112861723 8.38003217640751 3.6270000017086605 0.6784326202931348 0.6561272719277151 -0.40089488954812896
Ni 0.4328694120914624 6.858915140013377 0.365209604602096 0.769644561822281 -0.2680930403923383 -1.0106034650019886
Ni 5.34711033633482 1.9964073802426048 1.3459888011568064 0.15193239933765446 2.746159291125206 3.470963299594029
Ni 0.2932178704912558 3.3717893841585656 2.911725621432515 -1.4503243262783796 2.7699828759073646 -3.14412106618694
Ni 8.30940579791077 4.595459988283431 10.648847265111185 -1.0446929504865299 -0.01671885541657766 1.1382793057851235
Ni 2.4776740914039994 8.173462235149682 2.42048984095936 -2.282655211386288 2.3959079347655576 3.912228108318772
Ni 6.603463024601738 0.1504155805262332 8.04922333139013 -0.16154421139580566 0.26229777386679987 -0.4538215623438313
Ni 3.2585015157236668 -0.18873292799778152 12.47547507092545 0.0068648454406333385 0.4800002776217282 -0.19938467928234693
Ni 2.519612027437921 3.565899163377187 3.650119898150036 -0.03535498246052621 1.3394380462487578 0.8657146027746768
Ni 8.729226808035685 5.364259503545645 2.0354698942674783 -0.23195927078425857 0.1920269533656951 -1.6798171378000166
Ni 5.980849588407351 8.027398314533219 12.290481131219824 -0.7851598838490607 -0.6346135662256555 -1.093930347356103
Ni 1.615329392808225 0.38463279836909464 9.689426064257013 0.5421878068940662 -0.04846837991403265 -0.6268439495825655
Ni 1.7991496717003526 6.596434215246289 7.718404149888402 0.08414192205624219 0.9568008173592359 0.2674338095417846
Ni 1.4555085512072996 2.7169824976275865 9.98335903152895 -0.831308100270349 2.152929172942344 0.7306553250432772
Ni 3.936687650485073 1.6354949340873635 5.6606271827213215 -0.6088326006068095 -0.2819361169230177 0.9675971366437917
Ni 7.105806767025531 7.160026325823588 9.985532512282846 -0.34344410362982786 -0.5754062026275638 0.24073573142530802
Ni 2.8701410052271563 7.892441416187 9.858810033239008 -0.05067670041926111 -0.9258077114118314 0.688856129619304
Ni 8.081683650958935 8.918938883005175 12.427435790086054 0.8355193101382191 2.41763864157443 0.012740330384803865
Ni 0.5973914747091413 1.1281896791773702 2.201594111958826 0.16495220863609011 -0.22090661251452276 1.1613693548353676
Ni 5.4818229177783095 2.484561948700182 11.283460419951172 0.05065638870428695 -0.5610831011366724 0.4721098191300579
Ni 0.3895717585258119 2.838060316537977 13.932239035140622 1.106714900715281 2.480447863591167 0.16329770375180264
Ni 3.784233903181838 9.374580509791821 8.203726521635106 -0.11792930291933239 2.174108635233436 -0.6758723157651264
Ni 5.212510516538744 4.934647023703645 12.442824935916832 0.9708459825983924 0.14664415435552164 0.14280935399046374
P 8.372702669325625 2.371480809952209 6.879942368214835 -2.8238150912364723 -1.098493027026121 -0.42695970495598085
P 9.02988694725624 0.9731048267678174 0.11296085965739917 -2.3378585960313094 -0.934496754545397 -0.18423342546320529
P 5.297448227453065 8.387201937822228 10.172506358580975 -0.6519232611486967 1.5650857729926917 1.6721652776817137
P 2.059037078576928 5.207953066622443 9.880650084982241 0.10517791679093498 -0.19062724480469104 -0.14320324699477271
P 0.2847569882136527 7.351138524581797 2.352108358926546 1.1022792335414306 -0.35181998639834894 0.24485978089601054
P 0.6871234349993317 4.486109380704058 5.184464815466183 0.22747038177496953 1.0158027498147408 -1.0587072624877507
P 5.103253876998884 2.0979116565227787 7.691186307243936 -0.2644922104149574 -0.7984126350939088 1.0930875397398336
P 2.4741127027065186 3.1946596296796472 6.200865416438861 1.6401794688037363 0.23196107055647147 -1.5665734132818117
