# total energy = -340858.33481520653 ev
CRYSTAL
PRIMVEC
9.40556733173162 0.00000000000000 0.00000000000000
0.00000000000000 9.40556733173162 0.00000000000000
0.00000000000000 0.00000000000000 13.76599851929809
PRIMCOORD
 96 1
Ni 8.96712661414178 1.0654438328657914 0.3453997010006106 -0.2687898093490467 1.7458831761911542 3.354357600582126
Ni 4.463599990846577 1.0259780732063264 10.828499634999663 0.323835585370281 -1.2352353488868986 0.5632371713651977
Ni 3.5511659239817805 -0.2087274050969681 2.8388795038818824 0.6258862136549866 0.6466792391409378 1.475514709501078
Ni 5.053658244477781 2.5231468427091763 4.790746307726329 -0.023525593925765937 -0.8874054574845492 -0.04348841020093801
Ni 5.480896725595877 3.0254229383561593 9.765970587386128 -0.39124965314888105 -1.1501935407242063 0.8443963009128748
Ni 2.7873116010017713 6.371904910548313 11.394859621700936 0.4034577651792987 -0.48199313968204094 -3.0214974431157318
Ni 9.075704481040935 3.4087374209972054 4.374765349900991 -0.4371656989547052 1.0676439028557483 0.6035566969198509
Ni 1.2881864735367747 7.132777668749473 12.97945031596709 -1.263629069538243 -0.7350249148658825 -1.0413890829242776
Ni 8.209141365048211 3.1249996775160147 10.488134734081445 0.16977919771108826 -0.12993738312380204 -0.8377985930906989
Ni 3.5542415444318864 6.849359714550556 9.08028687334458 -0.7983984940265217 2.4053443975881095 -1.4898758633187568
Ni 9.44666945404593 7.554702004441546 1.0631742695183584 -1.3708427858122842 1.3080585034962118 -1.2074679489656432
Ni 3.422366087762355 6.501852225957076 13.422908697593467 1.7070348358653893 -0.603163061025858 0.9995222674871623
Ni 8.171443852008379 8.947732334728572 4.896606906282869 -0.21372834959852866 -0.9334197194311344 -0.10969303105246915
Ni 8.271528491793022 9.361784210736428 9.820745788656106 1.2411545425848107 0.3496636021769785 0.5340037284213771
Ni 7.091618907007382 6.317183321010952 4.350633486326566 2.404643514866343 0.4766904965222049 1.7029465247286286
Ni 8.032373136487681 6.095127286740145 0.3309630960193635 0.1387138437648514 -0.3965618093904138 0.33723308972310956
Ni 3.4419861007865786 2.41704263996408 2.7816127678803055 -1.3144050145395298 -1.0139577261862023 0.2921364544947872
Ni 7.98025688904414 1.405699629205353 7.333078626258521 -1.7177126272942094 2.3640262555656126 -0.1831777305051813
Ni 2.944525655507957 4.160505590220682 12.828189985451477 -0.35446153778625406 -0.3704584274351426 0.06892433377553936
Ni 5.718424917788471 6.580962451051393 7.421126021235685 0.32188874605655526 -1.5063468643905864 1.9173035090500916
Ni 1.4790724583529902 3.5064330467319205 7.231678147632991 -0.9942535628890554 0.3301841532961281 -0.23285915689070866
Ni 3.814869809485216 6.796904866690491 5.957111875850952 -0.030516937641934538 -2.9611888760336615 0.6848004714926915
Ni 5.181677418625772 6.182326299562571 10.5279738947558 -0.48777375091956 1.1923616894518239 0.4157304118990647
Ni 2.9362393508702094 8.62519662685384 7.05102730096297 -0.5067955434377014 0.30292120381511706 2.3004917253470767
P 7.776861499950735 1.2362113096001202 11.548763857135587 0.07776507199562091 0.001510008886623206 1.3389081418872169
P 4.146782867784276 8.2189795882617 11.29229003108168 -0.8619623348210961 -0.9418555089033134 -1.1742631800789003
P 6.499293911698883 4.632382892917382 11.249518214577531 -0.0921809903106348 -1.3140283479264014 1.0883572241436998
P 8.52699310049434 3.4287900901092123 0.883890051751702 1.1789981236607243 -0.5011038923695629 0.38107631216030496
P 7.286003762794359 8.319120661449096 8.249082105847522 -1.7023086340343134 -1.055562546211182 -1.1657929378243599
P 3.2633085420995305 2.565556544878987 10.204776034955419 -0.3892395646973877 0.8636029557483126 -0.11318690313834055
P 9.044910654271373 6.838298767610726 5.851375430780471 -1.3739175680828661 1.9124662355624482 -0.5596404551528749
P 8.929824134921226 7.647864146821669 11.260393871844984 -0.13903188922590248 -0.02170885243200132 0.5301766413658031
Ni 6.6470741823779855 3.977539092924312 13.81156366124849 -0.17490906273848586 1.5908042608047184 -0.28145017842553466
Ni 6.586746874833703 4.031188447809342 4.232466643742751 0.8277404375237486 0.4349468369265154 -1.447006060538424
Ni 5.815048308870854 3.3203439011498155 7.461225716119423 -0.8358090734644962 -1.6184194514188257 -0.0374907978566064
Ni 2.368528724729685 7.09558805633443 4.1054200052355565 1.1683375586230846 -1.294761015056357 -1.0740063547386665
Ni 7.205567352735317 4.54916243498913 6.2890371613872755 2.0757405422754833 1.2457403621832803 0.7286771182709837
Ni 1.5192436355468828 8.281554826349025 10.646623242933162 0.3095669912664088 -0.1310738107210904 -0.9716386537030169
Ni 3.0510248920723324 4.530736928989871 1.7960776927578048 0.06275240063687258 1.364323753746844 0.14592398836004547
Ni 8.474528847067148 4.866779031257116 12.291178189852548 0.35972869972246435 -0.5331241540299012 -0.8332680522101973
Ni 6.1776611382682205 8.703676678950737 11.514624470139408 0.5700706493472634 1.46137801298938 -1.1280324312461347
Ni 5.627360216877379 0.21480998535716256 1.338341660234605 -0.3625008631509628 0.09187117237969984 1.5135053298122385
Ni 1.3869261172224425 3.541092561590149 9.853976597867941 -0.6328988975273939 1.1137319554630625 0.1187998784497438
Ni 6.198494469451661 7.418217819880417 0.8448578887367323 -0.17396675342987458 -0.6844022076130084 0.09527968384061655
Ni 7.9476571933864415 9.267211233287448 2.266861127997785 -0.41080777778646665 0.07821295816631692 -0.12540864201551305
Ni 9.080435481305166 8.966693958053996 7.318059816672193 1.4183626857701184 -1.5972667286006106 -0.47487786879349825
Ni 6.625911656345145 4.909273383531058 9.156605526115989 0.9033444973123088 -1.2499914241501506 -2.0846041633137005
Ni 0.42225353054147174 2.5897288523920525 12.684004522527822 -0.049740304647920786 1.49776477914853 -1.2652792035471565
Ni 0.9870766475744039 4.84887083144977 0.4743161662523954 -0.6198232952903583 0.9571476591756936 -2.1755523096584986
Ni 6.664794270842816 1.730069422669596 13.658609388093538 0.7669204780228986 -0.6696119366777112 -0.5920592378032126
Ni 7.4552099153858205 6.815226911451368 9.842881790886457 0.3020136043991831 2.1878573522780966 1.4820347700077832
Ni 4.558727896755974 5.258652579982556 3.7673820416242365 -1.3838340558656297 -2.5584083394270456 0.852260791262616
Ni 5.3325427153221066 3.326278814006136 2.36932067348167 1.1715462953683695 0.9656698377140918 -1.7983624770367932
Ni 4.01572569545468 7.470832562381619 1.5697092059598616 -0.9792437197437844 -0.7679301502343355 0.09125410762099123
Ni 5.782476829914533 8.117709847019217 5.915552436949304 0.6938594963711664 2.330662335393186 -1.8219901437580621
Ni 7.553121869164427 8.893217667667976 13.392761033285442 -0.18730717929252258 -0.7830235542323482 -0.1062984035486234
P 1.3104212342219452 0.291687328815838 8.698926867552254 0.13059404287119444 -1.5666482323838051 -0.15896668047661655
P 6.212800337049861 0.16121800443159895 3.9194550131395105 0.1791146161794012 0.12532302428024222 -0.5672740604387326
P 4.911051035717817 5.123259441208009 0.6587762676083279 0.12258017142778244 0.26394096589717764 0.4850715214970485
P 2.592484683559885 5.464060760440861 7.602368478077914 0.15860878291656555 0.15802077162357947 0.6666284285693552
P 5.60773079828603 1.1963599216885012 8.14821868510487 -0.08451524623526091 1.1138119167713785 0.2699028399075674
P 5.000479167949035 4.683182360963324 5.907416621385568 0.06786143972866378 0.5944004843418795 -0.44594215959575456
P 1.9046931819254647 6.6836336217956065 1.356244216701675 1.4058036181581854 -0.0354169460467132 0.7641334021960646
P 7.342343109877342 2.2600825357702883 5.3329612630592 0.3036513971129222 0.01618098063523665 -0.0010613513849788174
Ni 3.4874338011379926 2.600808610466135 7.8692505047131265 0.6090107780558867 0.03145744717833292 0.8966987098610171
Ni 3.6930206873716873 4.724943079001461 9.544930354364897 -0.7246417718593456 -2.446273531702303 -0.33198881060503466
Ni 1.0183689694016298 8.416806881616687 2.8276878195590047 -0.02092955106381557 0.9886539573140909 1.3026381038115888
Ni 1.260223722472049 1.3023606631952147 10.608615346178182 -0.9177233917418001 -0.07658210743111327 -0.606989890971116
Ni 2.4913560258242873 1.36046825689783 12.519982718536047 0.8361366320072439 1.1564554624735182 0.5359027452163029
Ni 0.24240685986069826 1.274040500579712 3.9658329240796575 0.08678270211319891 -1.0958494187556869 0.42754077427043147
Ni 1.3107222123699678 5.666346292613434 5.828592325531872 1.024944307104693 -0.9097719981052074 -0.6543735224614021
Ni 0.33813578150942736 5.934480200233077 9.687600580424604 -0.31345861301133116 -1.3351309342329718 1.666133983885969
Ni 2.6889858022696345 2.7042980655502853 5.086949249319218 -1.082390979257936 0.24705601721638096 0.32039570645079657
Ni 9.46651520068117 5.1329471753474865 2.5783029694477446 -1.5348747966269503 0.9248533179183621 -0.24452630881599174
Ni 8.17965491210912 6.242568957002722 7.716144801927449 0.8271280007507305 0.014993130974722565 -0.0706935098608202
Ni 7.434517667709266 2.1501878894735325 2.745297873207952 0.23274962789603787 0.2495016505433961 -0.13848990067950342
Ni 4.038901012852421 9.182843296169859 13.26146025676729 1.865421989689452 -2.2556766259149152 -0.8388607158066262
Ni 1.2767869261804183 8.68807284308919 5.41305248880473 -0.6840283692133575 0.4207186091422754 0.2032675592765209
Ni 5.264728576345761 7.185194894341036 3.4523745496769216 0.12350705411742602 4.087224845675057 -0.29305922341937274
Ni 5.2108440822825886 8.691449441687318 9.04923063125221 0.1710729768218473 -0.42463645613944284 0.07153606036677358
Ni 4.272027399630185 0.8907034445775639 6.396673531017148 0.7840491672833853 0.9016411414679568 -0.11900736647485956
Ni 6.65871827447961 6.654720908451185 12.267776198287075 1.0555347782970403 -0.9185332892376052 1.1427357988945805
Ni 1.3604212290622013 7.289380361392488 8.235770406694511 -0.12231869023627966 0.4420317687977549 -1.0525736387861873
Ni 6.7991527972335355 5.451165727911517 2.168309595654631 -0.8253943058890753 -0.5486060517155842 0.1811406454704945
Ni 1.4395032374551422 2.78889173627889 1.2542558901307883 -0.39056034039134024 -1.7984177557547607 0.39306742308391013
Ni 0.4730012679682216 -0.13518903796791856 12.633290645142724 0.21417854976206982 -0.1965664931072615 -2.286484098214075
Ni 4.9839065586735405 2.9364180566455977 12.430875316143817 -0.19650452952107447 0.5948951645901109 -1.6758913203830492
Ni 2.1031224315764967 9.210674369294825 0.5996575754396991 -1.1791745013375885 -0.2592972964775792 1.3874965923188813
P 4.3220368000375675 1.7021725105747503 0.24154248824184582 -0.02097685936198323 1.0870390195529085 1.3580934565664158
P 8.38757437898999 7.307542511512228 2.8815948869832795 -0.8940723279817634 -1.144130622359578 0.9601345097181594
P 8.860928355725425 3.8613333110862067 8.197913939570254 -0.4709080855124729 0.5762065870416722 0.8984979678532848
P 1.188327567363148 4.996114984802706 11.788292613455818 -0.3557478606978454 -0.8954077589637354 -0.1445132240554479
P 1.8302293069912456 0.991657158764623 2.5554370952084393 -0.5669534438745204 0.7144969701158598 -0.7414526727690972
P 3.7193750864579176 8.706808732803598 5.024906366331208 -0.34595864252156544 -0.10222397636893363 -1.2653691921578012
P 1.5638918626926122 4.240612805430325 3.6960191821713626 2.1649714488188585 -0.4012715561612573 1.1001259346438539
P 1.1303234348989153 1.4853083493573336 6.24440868593251 -0.31298038782333193 -0.45845057647541043 -0.4565775278224136
