# total energy = -381167.95056750206 ev
CRYSTAL
PRIMVEC
9.24679852511305 0.00000000000000 0.00000000000000
0.00000000000000 9.24679852511305 0.00000000000000
0.00000000000000 0.00000000000000 13.53362432221759
PRIMCOORD
 96 1
Ni 0.8989820836694732 3.1360240105805524 2.3027866650783864 0.43641545105224194 -1.505482202397446 -0.24671148939276863
Ni 7.609144347986814 3.8565253120233667 5.620676710859304 0.5109807851636426 0.22246264414773298 0.20113765741771167
Ni 1.940209519824927 6.947008839414891 4.2232487217767165 1.9989103233893055 0.26386434702297135 -2.3853905801740014
Ni 5.376125703154018 1.787720563830966 8.481102662697925 0.033322268301213584 -0.9469043841811307 0.32168845712029115
Ni 2.8269405200066555 9.364602831442852 3.8757863935427057 0.45809550712883684 -2.1990933302032323 -0.7183412835626144
Ni 5.906771735391325 4.73704246353443 2.0871420745298956 1.3326174237824984 -0.18028575366936692 -2.370686184084291
Ni 2.445047737122016 7.263045922548819 11.234627300404558 0.7807573839059908 -0.6317946087196217 -0.90108372630259
Ni 3.5661203546559337 7.561680530685437 8.784945992495533 -0.2927527479225474 1.283071237423255 -0.9526762536679012
Ni 1.103069100626499 9.076000999805744 11.423637412216465 -0.7640305580696132 -0.5346326202546277 -0.65446531084426
Ni 4.1266150528291154 5.625465627863081 4.775556304454352 -0.5891284373096627 0.6266097220845724 0.7688945710301338
Ni 7.773977780134552 5.408452511119264 7.400714109719354 0.9165399129566603 0.1520126177562866 0.6687873838938869
Ni 4.507601649449283 8.17232986455756 12.97253351072569 -1.8623626340378379 -0.1706806264794351 0.07236318425375923
Ni 4.839820630163068 8.468791475019168 4.952156287842301 -1.1187497203926282 0.8096131317954186 -2.4974510830173826
Ni 7.766090260914197 6.398803136603784 2.2433602644061175 0.868428402161414 -1.0495096551488827 -0.7776072683127834
Ni 5.2181903827746074 8.966176772630906 2.1343469814699945 -0.0931073587796461 0.8579287881816708 1.328159645121461
Ni 1.2019081310442694 4.995157600131084 6.670330754594486 -0.4303635884312072 -0.23369965051413302 0.24691332099092958
Ni 5.712431768856544 4.647496465726807 6.90365060069949 -1.2757268812430418 -0.6132009048778343 -1.1848921205476564
Ni 1.758889045742968 8.20467516612004 13.381059847667052 0.6006030136081656 -0.7509192174986359 1.2096114776712072
Ni 7.76293710258578 7.814192107320152 9.753412219693054 0.5819200924866818 -0.37653342998462896 0.9335595874431083
Ni 0.6711474385041101 0.2893267806486837 7.140705228765925 1.0849541119994217 -6.684868219343326e-05 1.11184733684584
Ni 8.863019487258969 1.2010296851756486 10.371546837045686 -1.0009636279193794 -1.0802942446299073 -2.7481940621670473
Ni -0.016880030875445748 6.665009221990367 11.036373164015174 1.0682905353008116 0.7570204453003672 0.9795054580456034
Ni 1.1927815408092295 5.3712248998869745 12.515733336924098 0.4900766880211237 -0.14059280595511917 1.4932491506663639
Ni 6.158423359754654 6.8739313899442545 5.861954351854151 1.4531414840122006 -0.9540361101299053 0.32244847521476727
P 2.05285402057797 6.034580985876349 1.1827857515041862 -0.9904886965299845 0.323609585402404 -0.9412181324296305
Ni 7.366277182309693 5.305054808983282 10.076717286539992 -0.6854982688906646 1.6573786062908424 -2.675232582207657
P 4.217400121651425 6.81591697542081 6.794312755131909 -1.5057439406992648 -0.8498097586189622 -1.5778970658247469
Ni 5.131788296496785 1.8090621750391438 11.098194485529262 -1.088033265145378 2.2283637970325754 0.2517806763855599
P 0.4444279572519646 3.432032527909925 4.485218848716824 0.4064430730598677 0.43996151653228743 0.7808975090282808
P 3.3289584637255403 3.3369754381265326 11.586785152976313 0.2607630823898283 -0.1241130631325411 -0.3977226624677344
P 5.940420835558811 8.433209793940716 9.044345509420097 -1.8343417233448795 1.269709728514684 1.7285783663641197
Ni 3.1022639488296613 2.6691161612106495 9.20456941245723 -0.25909700754131504 -0.7723195375512829 1.2764570745408468
Ni 6.44913346147645 0.7443876316304073 3.768871209212794 1.6909448722820621 0.06861811538903022 0.18853899481709466
Ni 7.567922119751953 0.2936135964875535 8.322245436496393 0.5903803074388928 1.9605409795824877 -1.4709918819300603
Ni 4.2388157072485395 3.1169201246377036 5.937160414366436 -0.5278515927770522 0.08395166042230702 0.5370533138809782
Ni 3.266736755831334 0.7087523191199758 7.860924502850919 -1.6783356681584838 -0.06465450275559188 -1.236251963076871
Ni 1.2161574477131611 2.0816855386659676 11.54139354324502 1.2578371454468145 2.3252365363919245 1.2036732578099012
Ni 7.415969478077782 8.90222591339531 5.922164881049147 0.7963310699745317 0.7173503804042549 0.3634560279753805
Ni 5.655961569702149 4.402114170825846 11.500900887421047 -1.6866873825572886 0.4249503878354359 0.2984253728272925
Ni 5.236101431695856 4.106318329864665 9.078233176991905 0.5195595279715891 -0.8393597669302318 0.13701305902366082
Ni 2.8722220928344053 3.575746272016295 4.224209464153029 -1.1708315286895319 0.9435889466546523 -1.1409270278206158
Ni 0.6753121966012346 5.431236622911704 2.781795799798438 0.8145982437148359 0.6346909564308101 1.1870248506199428
Ni 5.640972509143892 3.8855325192850882 4.075096514334158 -0.7732865294502425 -0.653395474818849 1.6536772461798555
Ni 3.05673271243925 0.7105665410086432 12.268771688819342 0.9065558051607548 0.5758476610403567 0.80258990640005
Ni 7.983602704783335 4.948979087837479 12.066525709466974 0.7285503628851323 -1.8118224591964411 2.790351412261388
Ni 3.5467020775601044 7.226687510386532 2.1884139376638148 0.019654283895817762 -0.15043755995968283 0.5576470788719299
Ni 3.1860214507030045 4.476347470123615 7.8233011286378185 1.5237298357537241 0.38017462628164206 -1.5551667141067669
Ni 2.013971232393226 6.048515911392261 8.895637569380654 -4.048369563370756 1.1351878113439935 -1.843140295473116
Ni 5.944961013679789 9.062019840296749 11.496786986716316 1.2401965495469158 -0.5584852585025091 -2.1872960804579877
Ni 3.6521433221904567 4.770118262187658 1.8525498689351838 -0.6554700979596905 -0.6262109439842569 0.7350650240751986
Ni 3.686356477073584 5.410190909259272 9.955685939441272 1.0826735434953614 -1.4463956806479348 2.4043092714553755
Ni 8.80404340567935 4.790387244756258 0.9264080883676775 -0.2081590830408673 -0.8359083180465215 -1.072084198015289
Ni 0.1527478663552387 6.403232353141356 5.253022148485216 -2.459492087275106 -0.6122452258327842 0.16204609073288867
Ni 7.013807712624543 3.0971967031875116 10.122677574386232 1.0259637495081428 -1.8234461594782982 -0.7384959041336184
Ni 2.602548457966424 3.4808463778093923 0.14330873432694236 -2.9920277157913886 1.5342919275402864 -1.3121884665041854
Ni 4.4289853676070265 1.7687553798673727 3.5362550444825485 -0.489157518640964 0.9221397756419409 -0.34494922742044465
P 0.9340653623024662 1.816034261196408 8.70707407794195 1.3428342164145004 -1.0785451231492844 0.07417478354120129
Ni 0.7440880353552145 8.120002231183609 2.1527934200311702 0.4915291041969341 -0.30287415262726547 0.29857295414875035
P 6.228957939605598 2.3239424156343613 2.1183638900604036 -0.7248983679548419 0.16635628807246836 0.37581223554788823
Ni 3.7508898846220564 5.8094491799467525 12.665726581971313 -0.22070735201952313 -0.7103042721907509 0.41592555862900626
P 5.716981193776138 5.342273173416955 13.54905291090224 0.29690199420423063 0.1148411509123119 -0.65705672572052
P -0.049662706012513845 3.240374132974092 13.012999350833676 0.031177711154385012 0.07280489977686816 -0.508824143831956
P 9.121042155869452 6.078826917258988 9.010226671882863 -0.16169899180611505 -0.9821511231985666 0.18384801709932855
Ni 6.178470419156444 0.5341293012763547 0.0671761425932283 -0.08641040637544473 0.6829855297711398 0.6891986005603873
Ni 7.944174355480185 7.8706253192800775 3.8827973162541616 0.6501736254474416 0.5609612308468275 1.733463205260247
Ni 5.214584131313954 8.808833247362989 7.084378354990095 0.405647830852082 0.8163404232169231 1.4572765892264967
Ni 7.868628010778792 3.713098218674126 3.304735550068286 0.6124907661846871 -0.17094673565662816 -1.5594802538804562
Ni 5.778481651378214 6.7503386796286104 3.2858961225658847 -1.276007645708254 0.514748736846507 0.8590202214736368
Ni 8.539409276057667 0.10703631739179527 12.919400481192193 0.44174997589127796 -0.7067921452724344 0.2748236742479525
Ni 8.183139372140905 1.7556064322339113 1.1262314064823764 -0.2842516524300718 1.7218873274971895 -0.29007057310469403
Ni 1.9275783929140209 2.7579316619275254 6.88483891359294 0.00791256997885734 -1.0416767893680254 0.197069400885609
Ni 5.470738946603791 6.428808998116148 8.468380917160571 2.197629858283828 -0.9587029194779554 -0.2871243459921765
Ni 7.600822229231459 1.9648429913407788 12.023406962835754 -0.2909552897024924 0.9258912722645731 0.9964847662124193
Ni 1.5522046030544099 1.6329384017799735 4.72978557597976 -0.8275787151349037 0.19509865031248336 1.0972524697508006
Ni 7.58750683922289 8.835538001769061 1.8735678421917645 0.6122100017194747 -0.25853136484583217 -1.1529870443089432
Ni 8.94980069228009 0.8376157046473446 3.4115425468543785 0.6285593896117756 0.23276711139753462 0.33635402955226584
Ni 6.068387281620326 7.394711088057157 0.8665128750055235 0.6674049017240635 -2.127944992193181 -0.12017696130292851
Ni 6.087389452778387 3.0150204038776858 -0.1065749021408039 0.8875939193462714 0.9768153128079501 1.1007939072451558
Ni 8.88202165841703 7.1989748549312 13.655021223053765 -0.7020816271706425 -1.0961286405590025 0.0664578745129178
Ni 4.121973159923351 2.17620631412957 0.5420288413349104 1.7698206608433584 -2.2370137593980894 1.3166498447096486
Ni 6.788897829861757 6.968211748643813 12.225586365238081 0.8224668478296352 -0.34365904785411133 -0.014195574774091682
Ni 9.12168018497403 7.386444450093505 7.413624489948495 -0.39460879942910104 0.49482165890527685 -0.5881174795466452
Ni 8.833448225281606 2.016171970464087 6.335508800069999 -1.3249897320339117 1.0952670638896558 -0.16536384225221198
Ni 9.163337012743892 3.611207744712725 8.772792925073128 -1.0932551756659494 1.1731612052639733 -0.5278616200793812
Ni 2.204630973078417 7.895471467164122 6.242357475481583 1.4329824925658223 -0.001655276215235859 1.8180314162206301
Ni 1.2692248249764768 8.326714414268018 9.144034320630775 -0.11478432953244748 0.561612234167265 0.5656357535043612
Ni 4.962645856193497 6.991892799902107 10.723462423493675 0.8337035970857191 1.5223668939679265 0.8158341730044659
Ni 6.215836732367988 1.87119141494718 5.882877083084977 0.21216331910425396 -0.4793238203799939 0.7429053460552237
P 0.414686554180048 8.602435455431559 5.232491481515755 -0.8501524866703616 0.5108442595857783 -1.7764651627430696
Ni 3.507976484951851 0.19985568190985847 10.00149735382978 0.5788599655041192 0.44190912717696146 1.9158132976578102
P 7.071045396064154 2.957884435222863 7.859313710531827 0.5075794727915774 0.48107062786777144 -1.0550650377494732
Ni 1.7094834007320086 4.314694936700146 10.317034185158525 -0.8230348045179632 -0.675351667374966 1.2303165714290423
P 3.622535073018626 1.0757910447061676 5.799726171200913 0.35723884342107504 -0.38749764230561645 -1.1147051180096093
P 7.366138480330437 5.700928751376919 4.508943359928619 0.06516075296804907 0.03867941884806887 -1.0184838961913298
P 0.9342410514761904 0.9575522307898023 1.3152489157331773 0.6617366476946926 -1.0177603877617438 0.543553062672709
Ni 3.1906540968101518 0.14989430430201356 1.477899178727427 -2.3392912147127776 1.2137851494329224 -1.0549796771245188
