# total energy = -381165.04933927895 ev
CRYSTAL
PRIMVEC
9.22180684535763 0.00000000000000 0.00000000000000

0.00000000000000 9.22180684535763 0.00000000000000

0.00000000000000 0.00000000000000 13.49704647269987

PRIMCOORD
 96 1
Ni 5.974826962990442 6.091805580166395 6.9596301488991505 -1.2853116967179994 -0.1065871384336358 2.1419739594824208
Ni 0.05589337001997999 2.858308188593106 8.861512494963433 1.3632564888245942 1.9980001528702105 -0.13454917086420054
Ni 3.8664729772524518 7.063359796481355 6.172293508484228 1.1516423573555907 -0.9667733551909158 -0.371532891446244
Ni 8.235562081579474 8.162442376763696 10.503995564348124 -1.6687097150329453 -1.1054817996391284 0.7038595450066717
Ni 6.146739882296245 2.0966238476971704 6.349792998250037 -0.6343700827562816 -0.9321675921915881 -2.3760333073288176
Ni 6.490445837421583 4.783470985509632 2.6650993512231005 0.6888175630718847 -0.6703637272420713 1.3679598078375346
Ni 4.309737556818592 3.446235248856067 1.7534011152395519 -0.293445660224514 0.9443903595100251 0.15585795964430577
Ni 0.44051924773064344 4.943386334382174 12.521695502132903 1.5690907803870267 -0.10843858982007777 -0.5008814919461115
Ni 7.171577697353235 2.8440881627606016 8.19226201070143 -0.26540700891974295 1.487596837476593 0.8367107593431591
Ni 2.2594809528865527 8.544400385814605 12.297900698693724 0.6479529636470389 0.2524648469367781 -0.38811136463021545
Ni 1.0897501119668462 0.6629353910777623 0.15479447964764528 -0.17058343877993848 1.2101784059182705 -1.45948259573888
Ni 7.653287988784298 0.7733932687814941 7.783894591806733 0.1910879864911935 -1.7699754412536677 0.32977431945221913
Ni 7.725015200798059 7.468077224309578 8.191330608231208 -0.5302841134779448 0.9581115657508595 -0.22961416759084974
Ni 0.21855312854735484 8.86779070092113 3.785408686019877 -1.3941092125393926 -0.3205456017650995 -0.28407167520878174
Ni 2.886868123744381 7.761579664109266 1.1455309759458687 -0.8371218787386486 0.359869853286019 0.1937534491384986
Ni 5.71840540767357 2.1920234373451977 0.19303915612790615 -0.014230027556452913 0.634744692486881 0.10836454204903273
Ni 4.425517339131882 5.924005586620189 2.3588247092327395 0.673194254712331 -0.5125776973371171 -1.6684983703530876
Ni 4.4406042147881575 4.802071369494173 4.667535354664196 -0.8581283057869865 1.4891076176941644 -0.07687572741213212
Ni 8.406764921774315 3.600543739294002 0.19134879897155202 -1.1327429493479266 -0.9486658469569276 1.4413491193629628
Ni 0.9366312345849377 2.70063373873308 4.000753548038614 -0.7446709225960788 0.4354422885056953 -1.2807983822286781
Ni 5.940807718310736 2.357693193558519 10.210838942297283 -0.9382788472956487 -2.503183871736102 -0.9611526665700286
Ni 2.7059731647752465 1.7261838751344585 11.830471297018962 0.8015123570651551 -0.2057018797496264 -0.36289604170685247
Ni 1.8495439825024296 6.498367369321792 11.37459497469761 0.04118470176842585 -0.47850775223660175 0.3446196119951678
Ni 9.23250393156297 1.838072055047413 2.093472756369695 -1.502207388300916 -0.1867129973519494 -0.9913883255261186
P 0.038556373544553095 7.779580630662474 5.900166294285813 0.9002085227864883 3.1149567859181584 -1.6816403070516845
Ni 1.5904204378412488 3.3013237793800783 0.9019221987688677 -0.4706574029542475 -2.384052835199184 -0.5853424879046694
P 6.312713958128549 0.2127267911148151 9.508047825119972 0.12081485199724354 -0.5801822838599685 -0.345515898557192
Ni 4.320296525416658 1.1677297088797236 2.182944568712188 0.1484588389667572 0.7824653677360331 1.5580826022019811
P 2.9993372774753952 1.2656284081260705 6.99774572008651 -0.9593189557953995 0.6532520072624491 2.038626411032005
P 3.556546499834288 6.704834398092181 4.072774013503396 -0.1615570669116121 -0.5078471246306673 0.14350663716780448
P 8.594308803327907 4.256924270214991 10.527871743909044 0.37196200856386263 -0.47499331132544 0.6338188382385019
Ni 1.88183874934123 4.167269866101108 10.593089282618546 -2.2209682758994522 0.09276668761077571 0.23944555185897473
Ni 9.156746790049336 4.4100800348234435 2.4567187975757685 0.5652876261363232 0.2417641726898224 -2.1674083403951254
Ni 8.19060577422963 2.686801028779282 6.0793939506151835 3.3056567929423135 0.815732614429595 0.8439041917678047
Ni 2.5751341722255883 4.569810947563267 3.188177745041992 -0.8478161252277011 -0.6405908668550129 0.46896664551538586
Ni 7.190288743017406 8.247098561680941 2.9439077643291993 -0.01875774022347737 -0.5157794921038665 -0.6569250852386622
Ni 5.429144998926381 2.844623027545482 4.132417892282182 -3.1975488469887767 -1.1744182175995257 -1.400198613266582
Ni 6.147366965147484 6.854356770886102 4.890263195075607 -1.3039383106802511 1.0680303396608897 -2.4823646209979056
Ni 6.176600092183177 4.86439233873935 0.36511253486917233 -2.0398744245064933 -1.0795457964996569 -0.04253093138367514
Ni 0.07827930562854316 8.311881753297895 1.2746998993137713 -1.314545396772136 1.72875834358541 2.0090453549407785
Ni 3.6918396249890693 3.1652836878877926 9.874897748359343 0.8191110439835247 -0.9525867792778886 0.5978385634891511
Ni 5.008104973352676 1.9051422547100618 8.290304570131298 -1.5038492947797133 -1.52804491818931 -1.7006507867159162
Ni 0.53949782053405 2.2267712047491384 12.081746162052356 -1.8896410101378167 1.300129478457122 -0.8790534859754281
Ni 6.499888967416709 7.888305730899327 12.617092325238941 0.7141221032749443 0.12164223299454535 -0.4219329411653508
Ni 1.5911858477920255 5.974725523117448 5.143238561252657 -0.30702982666685186 0.39527034427249985 0.3250002951023435
Ni 4.581808517996528 8.293207594860268 2.685047963337804 1.1088746273707613 -1.4715099592170593 0.5886970061991991
Ni 8.745804642741904 0.9528339488441532 9.943975535326619 -0.31789376596454927 1.4176710590197326 0.9858977347251924
Ni 7.7698700682749084 6.361239104646473 1.189600145497342 -0.5606380431794539 -0.20475931333069894 0.6054554566044605
Ni 7.171568475546599 0.32558694944718986 0.7089143967835234 0.390745716929269 0.2266720542433903 0.513210960045742
Ni 3.679454738677102 3.803165274697236 12.414339840181478 0.25901576068141846 0.06561301001411925 1.2922027674108778
Ni 0.9759622398869034 0.6971197060962516 8.048369550858705 -0.3739353302401495 0.19941347563775333 -2.2873749854594605
Ni 7.234968396168173 5.8603751208327175 9.86875694732052 -0.2902392374720743 -1.8932035306780943 -1.058187642538855
Ni 5.560306754708295 9.22438874172341 6.586720576519354 -0.24108771544808802 -2.3837975246552685 0.4322497497103266
Ni 1.1601032747918631 1.0790435944626067 5.452145106856893 0.5049176096886981 -1.00361212128582 1.4971898804816666
Ni 1.4675859734515222 8.548006112209228 9.832638819450489 0.4457315862468452 -0.9095585965428206 0.44926556754203273
Ni 8.343484884639006 6.24004612183793 3.7744762342530587 -0.5596710512804942 4.304447067359458 -2.3998661480823573
P 2.9975298033747655 2.406707095828143 3.592980935671929 0.9507414985390336 -0.05240679573649039 -0.34258921182870034
Ni 5.5453950933781 4.288979270081259 8.885713282117935 -0.10725613947620237 1.034817857464663 -1.2404233208457411
P 8.156595751356559 0.5416003924470273 12.23809543829881 0.6291083201367101 -0.04234426929416578 -0.14448288503814471
Ni 3.698553100219979 0.63912007544064 9.730168870654746 0.18340938690001318 -1.2325979112640515 0.5725669334065558
P 5.714144933007801 7.1093858334009585 0.887140564912239 -1.215137292585443 0.0454272790948637 1.1331296432633842
P 0.5908752718444467 6.442759875307524 0.8138161359891463 2.7212614994422615 -3.1674420003010675 -0.31596852391737845
P 3.47616001138945 7.6553536734707315 10.53505184255573 0.04810893969208489 0.8471047009829733 0.5419276112541441
Ni 7.811884619307911 0.5111462982127455 5.4544800682970935 0.9906362778514424 -1.508199087107977 -0.2173394639885547
Ni 2.3776584049251674 3.5853646455713677 5.623382067736286 0.24420492092083104 -0.4084217940527934 -0.09907154678288098
Ni 9.04564246370043 7.251512317272916 12.539727822828675 0.08336364912932094 1.5406638925049014 -0.6682559368704492
Ni 7.539592334770713 2.582769828120085 3.759710277467711 1.3858552000607165 -0.9526109476476047 0.6025822488217236
Ni 0.14197893496578318 6.268089635817597 9.882266894042063 1.589857580620733 -0.35128288294795634 -0.4700963882444549
Ni 2.4074632839722843 6.196297871157386 8.855735955286729 -0.30612428413344694 0.37806503613780695 1.4330719669558354
Ni 2.617702031656743 5.143093778888474 0.9337300542172945 0.04691671915619662 2.782315429330789 -1.4317617327848438
Ni 3.885313128209525 0.9954848045350305 5.223545742160427 0.10833086059761989 0.3369003889740391 -2.3239041907337463
Ni 4.451449059391935 7.564509656300823 8.559246572317683 0.5280678225529163 2.2023380623927746 -0.20704348137918535
Ni 0.6781237066070326 6.629344688970987 7.515762264242974 0.04358174124569268 -0.7307728244577478 0.07737966363174416
Ni 2.4716286145446356 3.7980102847877872 7.986755894182498 -0.8387987522204392 0.10756981406187925 0.07715314944323487
Ni 3.9140943867200604 6.8991286421032285 12.88050124344381 1.713221681402391 -0.5974359287340936 -0.5601690739628352
Ni 6.421282287652593 4.243995297311508 5.4963618253145405 2.443671832413398 1.509381280341536 0.4624170173223262
Ni 5.80003684001425 7.208280487763979 10.48230587514057 -2.1051292798502454 2.44215616709982 0.9689564788851635
Ni 7.934165775299485 6.236975260228187 6.0312496647113205 1.3729922280551192 -0.19633792203622316 -1.0249795312180026
Ni 1.4092488246730377 6.742579252652778 2.7712405012405834 -0.2926735579451798 -0.5858543945440813 0.2008388952303702
Ni 4.852652978891894 0.46221354784151675 12.09047829075586 -0.11550295286602688 -0.17447377497328018 -0.08643251786263179
Ni 2.408201028503153 8.401434717538784 4.112994923145722 0.7653377069168109 1.1712891850522409 1.0187026970703552
Ni 1.8884876719256891 0.49123457332458503 2.1652230229000455 1.520538068289304 0.4286689743376037 1.905869299071221
Ni 7.060049167899079 2.589344976251457 11.891667205854565 3.2498258020156228 -0.04927673474794094 2.1139345368467013
Ni 5.783898678401487 4.38510738245352 11.055012343551033 -0.09856195413631412 0.24242134665784704 2.2423266869705705
Ni 7.375776161691201 5.573945806722739 12.16850491888258 0.9439306462647872 0.2883204231828067 -0.14945102767669746
Ni 8.70185351231537 4.440180011682908 4.581802062731883 0.8001177907104736 -2.4425071226813357 3.037472478387749
Ni 8.039903010186318 5.061775887973413 7.845819023366569 0.1603918429589173 -1.9798047129081064 1.574849537247675
Ni 4.5602202686619675 3.6106323957536386 6.717452596112036 -1.2978959611409133 1.0901940202421225 0.46003823267750454
P 4.164844530955875 5.607070536158767 7.980182590412454 -0.5284223776788577 -2.2138730596155676 -1.5645759232358087
Ni 2.1890079065752697 8.348999525007253 6.740506190521035 -0.7294618189558082 0.9104600253111675 0.18148388774252616
P 1.7942684735270527 1.681891537862397 9.671673106802123 -0.01654196351908119 1.2261179599666625 1.8745028689447973
Ni 3.9079065544673943 5.5130173302795775 10.87386839580273 -0.14066402551268678 0.44839447779098907 -1.1720227207841558
P 3.685236811437789 1.470260297375923 0.2648807185439517 -1.1870909279711879 0.17834817032702185 -1.4322679829973013
P 7.1270363713020055 2.6884240667471944 1.7574909864825579 -0.2186209018041396 0.350464500811719 -1.026400322824929
P 0.4712573736093099 4.448959171600252 6.574478628210242 1.2094844651750396 -0.3517711354382845 0.17127018043431794
Ni 5.991647538294261 0.5820942675657758 4.083032351205132 -0.46915176494299843 -0.3023306214189696 0.17501319241651794
