# total energy = -381172.8719379783 ev
CRYSTAL
PRIMVEC
9.19747672823476 0.00000000000000 0.00000000000000
0.00000000000000 9.19747672823476 0.00000000000000
0.00000000000000 0.00000000000000 13.46143688696279
PRIMCOORD
 96 1
Ni 6.482455126508783 4.457603048401996 7.81809245195107 -0.4602346649590267 -0.47640330429908917 -0.379664776524759
Ni 2.3193552806113145 8.316910240373026 13.016172389156198 1.1457457893654976 0.8475664711107403 1.2866126749176099
Ni 8.637377919475627 3.8618824854345304 0.9193613715161646 0.1654484315462183 -0.2327254595263218 -1.9491149971337334
Ni 6.175480145659591 2.64884568431282 1.2345956864018668 0.8765857411612258 1.382683230090638 -1.5574056307396145
Ni 0.8227924653732448 7.418270783761382 8.116667377370923 0.18050352610712783 -0.6274921246895258 1.2700023200544384
Ni 3.3500705019938852 7.365716402152672 7.154713411211468 0.07839036428444562 -0.5790412282769898 -0.6229428147559465
Ni 6.385265390691627 5.529513767723911 5.691131827511842 -0.3800869516638422 1.0003429636162449 -1.389711083471697
Ni 7.829020893712965 1.9798304298788147 4.852444282982809 -1.4786691959696598 -1.8636188750424423 1.2849846523958839
Ni 0.47095311314688776 4.935457948031064 2.697335700987527 0.5737401277790506 -0.1658808910979466 1.0564884004595612
Ni 7.155103384221654 4.881211230717769 3.2238930790020404 -0.7809201347361002 0.6951378488629577 -0.9078763237443912
Ni 0.2282105500157119 4.662624000526557 12.10224856583868 -0.5751056406680095 1.8395358659513092 -0.33342400038966447
Ni 9.018604129363515 8.062967909918623 0.8686409667525334 -0.6186891816859151 0.41141095858810434 0.7646622781163411
Ni 3.471403614031353 5.692023982747411 0.8426093485748769 -0.05019873234157806 1.0375316568514001 -1.1382553945257234
Ni 1.0934236172187939 8.76402717301989 6.382565011545614 -0.6602214966017469 -0.7854051670906473 -0.580045244061472
Ni 8.283983273946848 2.8950253444701026 2.8273861813989423 0.11355765621419797 -1.6920918414023118 0.07826206623669747
Ni 0.18764507922726034 0.7011843487837816 8.641650147382041 1.8786078922521066 -0.31981720823950727 -0.08940111357265249
Ni 1.5233596634734519 2.5916465769931554 2.458260171798842 -0.21789379383012797 0.18023227472361217 -1.3176199219324018
Ni 6.533133222879799 7.079288584151548 7.458780149942235 -0.12981782682680224 0.47029333474660934 -0.38624885750017995
Ni 0.663673359992574 7.285597183007858 2.96493536452747 0.272083392498654 0.0811069918846603 -0.6046417024539136
Ni 6.024512763838563 2.4294582736525916 3.391905224560776 -1.3948219223357012 -0.1570653496888456 0.5266891970378349
Ni 8.25513998715565 7.703567312133897 10.14155072689834 0.3020938228178152 1.8023435731717283 -0.38823606313353787
Ni 0.32205884256397704 7.274946505040955 12.176758243971392 -1.3261421004708 -2.179676359129201 -1.0692732109290553
Ni 4.60241731834059 0.31349323255484324 3.3301036999227707 -0.9665193301985806 -0.2647104970733506 -0.40525265229619234
Ni 8.568562399140246 2.6113107820823083 12.152648898414705 -0.06477894414859811 -0.881930550412907 0.4613818911895925
P 7.474724895471962 0.30334473681332236 8.629158134588735 -4.260848099722585 -0.722401312564601 -0.4476557998527516
Ni 3.572548264810313 0.5421746933753093 10.720002107697708 0.2763974464929756 -0.04858562221818729 0.2651118462768273
P 4.820259552922719 5.798613539706343 7.857009734922881 -1.2830864069319066 1.0881289101829776 -0.5073660712291908
Ni 3.2412367607310473 5.0989982804399645 2.94555076272864 -1.507137992833314 -0.29001323750419733 1.2539943746619564
P 0.5998198783127587 3.5454800910135975 10.10373714112517 -1.9461014071183904 1.4355114296352631 1.553289294578396
P 4.460969324857857 2.9616058779782315 10.86845489940116 -0.014844264101684112 0.11322444124449532 0.8936432108641449
P 2.0929593927397048 4.125923645256516 0.8578330119348235 -0.7919059443236426 -1.6657442046467181 0.6279232986896733
Ni 5.3075142736935605 8.032616236955944 5.489668459357573 -0.5071799233603136 -0.8704361766200622 -0.19253551757099746
Ni 5.634374199071635 0.5193870252139972 0.9575722882808448 -1.1837394950004516 -1.2917533385782851 1.1139731249395912
Ni 7.376403870026197 7.184783641388491 4.2115990600488304 0.7046653287374187 0.18941445544351249 0.6577671215239833
Ni 1.6210552605066528 2.7021450615306133 8.47899553197505 1.3945025913230693 0.31286443107075795 -1.0813905630178795
Ni 2.324156363425411 5.238588383638316 8.332804399781148 -0.36467447376351386 1.8638754711379382 -0.7508567396918165
Ni 6.267234172773432 1.5242518187090217 12.488470845045757 -0.27019980232269597 0.30886970808906805 -1.5753424177236932
Ni 4.051801180890995 3.8328644465868793 8.36998519916043 0.5236807492288142 -3.2814742821588387 -1.1913070229350644
Ni 6.1655652658251165 3.299539565249354 5.591544309530634 -0.900971883315074 1.4698868217913394 -0.46809298466118093
Ni 3.5479174223272674 2.9934567396357323 3.9933889264004887 -0.607015859113045 -1.4471145610918303 2.0780787034903567
Ni 8.052372416811652 5.826270352009001 8.764162375926725 0.9507229865962724 -1.3098873291748345 2.230734611257597
Ni 8.514196114630433 5.845217153919036 6.710391591720166 1.287492249309086 1.3986718922094104 -1.1672173289757122
Ni 3.034348720845449 7.577451512235643 9.558912654725454 -0.6582319769755438 -1.2869361196952998 1.4673290883664922
Ni 6.500224651406933 3.938663020553449 12.574745015568336 0.3228868483037665 -0.22041938846545908 0.38578991558589043
Ni 1.5160936569157202 4.854299414024195 5.076980441074706 1.4460645225607611 1.0086237155677986 -0.657248530016352
Ni 3.7660447786857114 2.6502253058111234 1.8211031370036619 0.69457452016032 -0.15789658734088935 -1.2071727863227275
Ni 2.7222047581159465 7.214445503602017 4.806850551706874 -0.239626043300897 -0.041449011173406033 -0.0008705755304114039
Ni 1.4421275496533397 1.105233177244272 0.43631081732448596 0.32995326823224463 0.7726270414893726 2.14843128507199
Ni 1.3429511588786265 1.6469001699082058 10.561937952889407 0.13017829549001453 -1.4332740556643122 0.7506654496166169
Ni 0.6976451597668002 2.457317430441668 4.504883596896524 2.4959932675249337 0.25626879406390063 0.5626728142212954
Ni 9.114818932655204 9.089645439049493 4.440699006057116 -1.5149652021872166 0.3581497852711187 0.39197213313720236
Ni 2.5177908394506394 4.361627379503347 10.543939410822537 0.3801738549506936 -1.0134548184078547 0.24094450500200437
Ni 5.449762447645312 1.096081687972192 5.374841642306104 -0.0030709256158398725 0.13626795332752015 0.7727633099569207
Ni 2.085803755901837 0.30672021074583833 3.766455905892206 0.4804741319343532 0.4168231307426112 -1.395997430701041
Ni 2.6902435267385814 3.1992226873693768 6.233479433448271 -0.3050418497025456 -1.3524043766014384 1.0880085825550294
Ni 7.785884728199341 5.939031415803676 0.308965314797411 -0.6493822398943978 1.2067714371192506 -0.24287437503486559
P 6.725286905163516 7.280097091967955 2.136397235487624 1.19226167353885 0.13224494821105612 -1.8106976015633782
Ni 7.51759433416258 8.915711958020038 6.442872865974789 0.3103036123221172 1.008442709905244 -0.1873390609717225
P 7.512830041255105 5.943823301141117 11.279633611764885 0.3429779626266867 -0.7425703313133082 1.3174795396997954
Ni 7.820779954629765 1.0792227132629229 10.656476975934487 0.049886086197165704 0.05599039932269067 -0.7657295430385909
P 3.9580604988195973 7.709426104763359 11.612441545295976 1.8164591866375042 0.5372255777927845 0.05476655421791858
P 1.063099536686082 8.672622650018955 10.274522325895495 0.9624986390749618 -0.8778201277889592 0.03587228841657693
P 0.8298579669398901 4.298652256844118 7.145882913874659 -0.5937847051347516 -0.9657888797904592 -0.9365366677935614
Ni 4.935651095040826 8.647826252956113 8.489818202755409 0.36456931564421724 0.7261507523047043 -0.8412976073828929
Ni 5.459833684582927 6.0186263787791345 12.489265507028781 -0.26309070208174046 0.6079381138169981 -2.437554663772066
Ni 2.3973498826487414 6.36148991353753 11.973853631225229 0.8110231247690678 -2.6383089697084303 -0.6780322995309226
Ni 6.192256343078962 6.688092309569252 9.727166693920225 -1.002710435407157 -0.04559517213129567 0.4681996854423743
Ni 4.665052134363572 5.09229331995821 10.028865082412237 -0.6182140418217095 1.3501993985303198 1.7545940737015908
Ni 4.919334771454223 7.454306497297069 0.6531450084651869 -0.021108499843841066 1.269161312210382 1.3544684582193192
Ni 2.965330856023651 7.530525986340012 2.3723088327068664 0.010520439915349622 -0.038302752234940486 -0.1507455781184049
Ni 2.906117501316463 0.6812295034323191 5.940007268076809 2.146562350184052 0.8023345958561343 -0.2041265648427065
Ni 1.003978156745448 5.982406715710339 0.5829259531921992 0.4300098046362142 0.21358333938023216 0.7897601016252334
Ni 3.679257388965764 4.0767815274869434 12.650263656890141 2.5170935398386587 0.19410131939622055 -0.19086610028837453
Ni 0.7833702409330542 5.906150436760775 10.076262438860287 0.08801580318935165 0.2080233287939514 0.2190163374703454
Ni 5.723663302441839 4.938870211870202 1.1068758465749189 -0.29751545941851343 0.35424556512070604 1.2172386551991616
Ni 6.494604993170509 2.077029363172626 7.41079047599758 0.37462747121116774 -1.6330960795943938 0.1965883474841324
Ni 5.49368039867464 1.6526853827244252 9.533402533474154 -0.24993102477133086 0.2749933670565974 -0.32477326669320195
Ni 5.093029118090638 6.543857480659946 3.1900104947513714 -0.4285530175850296 0.20254867883262537 0.9867297437081844
Ni 7.920186282320862 0.9856475857713217 0.6117802769553847 0.8829805889439761 0.7578123450740433 0.6411343980633087
Ni 6.0091069904408405 8.782238176797497 10.589991176435909 -1.0406614607296336 -0.03220666663953163 1.1172510243599145
Ni 0.1923679834897861 1.9251882210693394 6.674839665456549 -0.18536291108195818 0.4789440684430719 -0.11302132409475373
Ni 1.7904267931150502 2.9398998330715886 12.421419400732875 -0.8721336189271433 -0.6622876351021562 0.7178437751009057
Ni 8.249419156676018 3.0989609943493313 8.621996059517208 0.9601373379316368 0.02283756671980583 0.3013931972063648
Ni 0.24183201294229545 0.19855512603584466 12.316756715133241 -1.0514937754584472 1.6696916193302407 -1.625368629043149
Ni 4.043597031714416 5.0392238796568005 5.793748994303324 -0.3077487071107474 0.8412996642654221 -0.21884818732359726
Ni 8.542754279645315 4.402970037069176 5.0390196956750515 -1.1230894854185627 -1.4426979200813734 -0.772835815066069
Ni 6.763070139263722 8.256262079307604 12.788041857187388 1.0484727292439362 -0.10544094064433453 -0.17140336357807257
Ni 6.5876466670161005 3.7754537973041415 10.268034425862806 0.5840379101606329 -0.07602340671416585 -0.1275082048570191
P 0.04866200948816227 0.584931003103067 2.420608461614808 0.4656128985518046 0.587753154228691 -0.6381529468374816
Ni 3.8116642628962816 1.5846516479047503 13.185934814522447 0.02306562357021189 -0.42951589571893123 -0.8775445055300695
P 5.11717249431095 4.396329458924009 3.828742137549948 0.2422557676142602 0.48674762364789076 0.49368368864609175
Ni 2.532589579389109 0.20011041933826554 8.25785140327365 0.42190902990595086 1.3404760005949687 0.19615254549829444
P 0.4088903801718704 6.895660962727347 5.00683312611963 0.24074344473479184 0.09821716920238568 1.122740843829892
P 4.236201390354245 1.7807050602903378 7.497482211960311 -0.45098563555693294 -0.8348847618780136 -0.7367185005182215
P 3.363618385107226 0.16534027859035433 1.4046202398527943 0.42480460628619093 0.9344311914147843 -0.3419310094194111
Ni 6.986486044698996 0.16920689777626635 3.0362939871580568 0.9031622060981735 -0.0559160944413295 -0.04101552318041324
