# total energy = -381161.19932248286 ev
CRYSTAL
PRIMVEC
9.32762860836805 0.00000000000000 0.00000000000000
0.00000000000000 9.32762860836805 0.00000000000000
0.00000000000000 0.00000000000000 13.65192731950282
PRIMCOORD
 96 1
Ni 2.3981239131682393 0.9887565846913946 7.505938777190564 -0.25334133600446046 0.7130934049001137 -0.6309512868827197
Ni 8.018831478986503 3.4302539695426524 4.05247860115325 1.404063238428311 1.451658214598455 1.9229892465809595
Ni 8.674461145895679 2.0294307486059457 9.821946914453115 -0.8222750435338033 -0.09761630239359316 -0.20822053240642205
Ni 3.1775125526129613 8.417055914806523 2.393864918077816 2.3078589643454253 0.5469659450089999 -2.607997206098766
Ni 2.380065624742793 1.4360723283539374 1.904484368985401 0.3286170659193243 -1.9281615348105183 -0.01977821106819174
Ni 9.627884674514972 4.393387559241949 6.25617276582758 -1.7479246321012154 -1.3673260309082775 -0.8706493210721329
Ni 3.8060361316273306 3.0382044236697614 5.82152300865931 -0.002428406935834527 0.1014773280108962 -0.2115161724385583
Ni 4.882910821047644 3.823795935946571 1.529302906164461 0.8815759952869656 -1.3335545908847872 0.4658887779210106
Ni 1.8987600034860745 7.971195281161734 3.8906629050764745 -0.6358983464753499 -1.5798158801140147 3.093704304297285
Ni 0.79054914672832 5.584189900949657 13.636226803988714 -0.5893935180455914 2.0076099080458327 -1.8075909376135966
Ni 0.1431399186566154 7.410987251955198 1.3173110990716739 -1.1465261191749478 1.0115480883034451 0.981212156324065
Ni 1.0709516454377939 3.5475862061664554 0.6175011206298918 0.42261402639277545 -2.8243930752271296 1.3686241808944108
Ni 6.4255419753170235 5.184846149731365 2.872351730056555 -0.5406060642292431 -1.2263403603901135 0.5344657556594601
Ni 0.44346996250664844 2.4531382649932802 2.6640779156116925 -2.5457417997029705 -0.6797773072464873 0.6627038967039683
Ni 7.113678426917666 0.7331189391686763 7.861298097070948 0.24702902063318746 -1.3632266640279231 0.6091611875908218
Ni 7.54495997749997 0.9687488219472926 1.3080254450801805 0.38381582257865515 -0.6505348654416021 -2.4648430671743746
Ni 5.139886981234128 7.621213339007212 9.943626758636372 -2.027376292039482 0.585947725588836 -1.397621339457709
Ni 4.714920235023739 1.844062791023877 11.666540447528337 -2.8199844046364726 -2.9986390504603198 -1.5071127960223334
Ni 4.443766079792484 5.64981909380164 8.72773123122508 0.8976032239531573 -0.23193150287011668 1.2065289820911413
Ni 0.2247016334401595 3.1463489463994203 12.225368920506506 1.397091435096168 0.9928836791247222 -1.2364517377925026
Ni 0.32233391905438574 4.121188709638973 8.38887714965504 0.4387952641383281 -1.1438609136379592 1.40793249157573
Ni 5.635435890933851 7.526267410348837 7.452573550052309 0.3632194864845422 -0.8592595911779524 -0.07860659406030979
Ni 1.838121091784719 2.136250748114317 10.025647392733205 -0.2324189840294965 2.0582992068705845 -1.061966392854997
Ni 7.045866569039054 6.6103502751999565 9.431542762215683 0.7455661807168384 -1.1899926749990153 -0.5202439556331233
P 8.284799472872434 4.099763147390394 0.1852168500033026 0.9277810330881183 0.34549224440810816 0.2855022370077212
Ni 4.107215922417218 8.100625451715187 11.922459787426288 -0.6165646791437446 0.20753199097982966 0.5174792484037927
P 5.917391439758427 8.595866549680386 3.753092513289092 -0.3274312731413393 -1.7071235389244535 -1.1948314911485551
Ni 5.940122869971657 2.6608645476558217 3.769816018102099 -1.7813440881019256 0.23663585032432152 -0.08739822421001077
P 2.86713572030061 8.39453902004463 10.19562756187754 0.5016443382540651 -0.8537193780860136 -0.22442928095580056
P 2.4228514558417187 1.7814091116056332 11.980671650239058 -0.4812475197652679 -0.3833427395969785 0.4127934407579278
P 3.3281630775919777 8.597097796618485 5.842560541569822 0.024255787223571128 0.4416669292591684 0.15055351671225684
Ni 4.796163877681608 0.37117711198362374 7.432299949901118 -0.17947019974660705 0.7504214519266109 0.13910773676916044
Ni 1.054982745755788 6.2672334674881665 7.115629766761985 0.33303190715756836 1.8508600327148768 0.31982235044582985
Ni 8.088340965219158 6.733904039912485 7.129650124888167 -0.2971822444488108 0.23595630775879362 0.14414349942085497
Ni 1.0865660952436804 -0.05222912200900913 9.388716822314986 -0.6383185258810684 -1.430971889893697 -1.6802544824477517
Ni 7.468659977851134 7.056649307375736 3.173895298350881 0.76484765465427 1.689815129552993 0.289102809874786
Ni 0.42792360438749005 4.783814097787347 10.617867842330305 0.6129725909171121 -0.9304524092726943 -0.2554283004404762
Ni 7.769905062039254 2.8294241190071814 7.494266183112256 0.3306765195515144 1.455505099148371 -0.4186514422006016
Ni 7.415623083229705 0.6684066521804449 3.429732555119624 -0.33113674701738455 0.1597981752389764 0.6472947612377496
Ni 6.4155147748741745 7.169205798300248 11.835565467532811 -0.24274222033237552 0.43833092290739994 1.2684799698726412
Ni 3.3759391898415303 2.4782482404278365 0.027871886179790726 -0.6137326090115882 -0.7435105837393904 0.6178697711084132
Ni 3.154659863231586 3.4198163534537707 8.34744382466236 -0.07520682435014145 -0.11661932585865721 -0.7337496476978846
Ni 2.2966113341733383 3.5707933454239504 2.905948914498504 1.716080233897109 1.7059835117827393 -1.5991976270747361
Ni 6.8256039539158735 4.763395919397212 12.455363050254824 1.4589151532711842 -0.5355517896347873 0.027037977954398593
Ni 3.3904156689925076 5.7834653523552495 11.683987776298896 0.8589816549262174 -1.4635217988052602 0.3832226690793465
Ni 8.091754877183888 1.6191643446261879 12.50942411846567 -2.3368455813857625 -1.6462192472399133 0.20053884749144815
Ni 2.1336110293000603 5.527627162823674 9.014121134552475 0.09091446489338537 0.43656226104275137 0.7903907932306968
Ni 3.8609758624258204 0.053054617115234314 13.832269299418966 -1.2694611028389877 -0.4560712776099565 -0.8230551162329374
Ni 0.22629945617119196 9.07319860127324 6.955396969210933 -0.16315603596761577 0.1638612895647565 -0.1006139515693364
Ni 3.295301843024392 5.467678495617919 6.777799858781363 0.22468561994098077 -0.23093082951974422 -0.7294355937035631
Ni 5.015064659070227 0.8408353237584963 1.8556103948827105 2.0841673328865973 0.382903852287347 0.6523066126300444
Ni 0.1768611605552063 0.178091474730473 2.7782900605628145 1.5021821914899356 -0.4593311793081509 -1.082732678868071
Ni 7.330191335456637 8.683798101842926 5.947830289251587 -1.0619267978663132 -1.4504256277429342 -0.3015387216452936
Ni 9.021616816669566 4.663804831836011 2.2712299247547016 0.37487686821781246 2.0534210528426766 0.19002277845147275
Ni 6.453440911618938 4.88364770368484 7.722322031695902 -0.61607951197721 0.25419031426831706 -2.124684062053721
Ni 0.44280117155618126 5.792158701948491 4.574282919045093 -1.0682897639698634 1.1848787508112175 -1.4197654796549162
P 5.69265156304216 2.6844261367894355 6.803355694849564 -0.21146526459596482 -0.5008974327857115 -0.6141234166921037
Ni 1.1847393833004045 8.25053909405701 13.047406274913863 0.6164039851961642 0.14893295038969837 -0.42692808038709695
P 8.319880682979925 8.554321293147877 12.875582966413711 -0.15078902976183065 0.24837730713096576 -0.06757373328491588
Ni 8.417736831673805 6.277885619028383 11.497448268599967 1.5182932381191854 0.9204009385739632 0.5619493057917097
P 9.211490018729679 7.227848597541352 9.12587638220439 0.5947280428846273 -0.3539066937240486 -0.30607826138685995
P 0.3265901158563129 1.8491650037143308 7.825762631464326 0.966302329091768 -0.2641497394738741 0.4965206438742545
P 3.9686726589961707 2.248853877180424 2.9343720635119435 0.80631697754265 1.4554004552497064 1.47613820201769
Ni 5.378842163508443 2.4311064069039707 8.93163691732819 1.7309604934430511 -0.22687028629712538 -1.2800288510525053
Ni 3.1528503033377135 7.940479401107502 7.957052731104574 -0.42929503795737683 -0.8211838673521534 0.29511970549282723
Ni 2.863880378017304 0.887748630388548 4.367688077697638 -0.3021501299770474 0.1558448470181832 0.4232881696416645
Ni 5.460346979759242 0.7762228423932775 5.216333424647573 -2.082426438936091 -0.4076563766416786 -0.16608426535800427
Ni 0.6075317514826208 1.149415654856622 0.5664202296669428 -0.7960562190465902 -0.6609624885328295 -1.3711796003264127
Ni 2.6708077994437995 5.214358765732456 4.412916814653291 0.36412760012110834 0.5111023983431713 2.29090485298959
Ni 4.2886476208487 3.59891614480552 10.424788734416978 -1.3276084006036815 2.858905764292018 0.023565188914449735
Ni 1.5092755554008894 3.0438662940593515 4.8946804224604685 -0.21948710645917682 -0.45658755512474264 0.8961346098274308
Ni 4.0478642234238755 5.588396661321494 2.7061259313105914 0.9186394757981663 1.1770502559057343 -0.2121206387917766
Ni 5.281648276425207 5.1067645730736135 5.151882311252271 0.8637091423088739 -3.0050580666127855 -0.001523121512745764
Ni 5.566234216435721 7.857099731564598 1.310561627220097 1.1185062369232543 1.0613048480115979 1.6806159795522282
Ni 3.7732495180862964 0.9544775506193318 9.554246779988357 -0.5165410528602394 -0.9471028733451816 0.3003035636866118
Ni 1.7381942096040364 5.931541451918243 2.295476161806925 -0.6448573554408508 0.1743267078724546 1.071652252684193
Ni 2.9564943995959463 4.739694415838814 0.610890630440267 0.2321258782691099 0.8255462580859072 -0.3080708663368565
Ni 7.307907631402717 6.184338834617846 0.8917660399055106 0.42657352526115566 -0.2758521155124668 -0.7421802949637412
Ni 0.5278318313115349 0.7657152690920044 11.381898541747912 0.6293065521904452 -0.9568902917492487 2.291446841535989
Ni 4.801639195504819 7.123780248387066 5.011950163974536 -1.0332335436966789 2.983756476921532 -0.33846876190242353
Ni 7.547077349128367 1.5451589415438078 5.454326928442205 1.6042989528570437 2.088354631495068 1.477591903745081
Ni 6.136049702810753 9.222851070022132 12.818954934889495 0.6669009655044514 -0.4503109780874116 0.5591833130107983
Ni 7.32669347483704 3.201866990153684 1.893481498620393 -0.9896528308922504 -1.0795414256242828 -1.400496861233291
Ni 1.6262440145202548 6.79916945526003 11.137542662676937 -1.9791436822853397 1.6612357752534035 -1.0387896976282174
Ni 4.4649771065897275 6.433573063299621 13.80059640469921 0.5228993909780995 -0.8732042262835025 -1.234816259071609
Ni 8.040117126810298 8.533996391040931 10.494836424803635 1.792222425577326 0.21993010753386638 0.768284962470593
Ni 9.158732952957818 8.21736072012658 4.5728903041370765 -0.8786878751058932 -0.3984202027553913 1.336347580248892
Ni 4.748313144405504 3.993819944944003 12.772128375202811 -0.8323686803243794 1.53519027098484 -0.22383689878744029
P 7.428523193194784 5.316496295824724 5.641385985038496 0.5904091037942993 -0.6739984957811812 -0.5436327668707089
Ni 7.405782435353235 4.063422707459848 9.554860537931743 0.08200970620458778 0.4398154778727264 2.057240940809399
P 5.422439498271117 5.478852994343996 11.104573227620854 -1.4800578487870704 -0.04153205780551557 -2.388121348841603
Ni 6.221453467698864 0.35105461941119903 10.15317006329544 -0.8340725503893636 1.4932807752352475 -0.004072884517792985
P 6.5607459477998935 2.542627531085082 10.943070939855595 1.3405798731626848 -0.22585470054841747 -0.15912146088692597
P 2.5567495603599397 7.138760419467265 0.7566049745129068 -0.41812359472158955 0.4925716865288356 -0.7286709476233968
P 0.3763530129377973 1.218412121531737 4.8682086132913485 -0.44830654606287307 -0.945809865565371 -0.6210569105871433
Ni 5.924181953174607 2.0750894892271017 13.279392786071107 2.0291958617467247 1.5333861278965655 4.281123819252485
