# total energy = -381173.19548391755 ev
CRYSTAL
PRIMVEC
9.18455061098795 0.00000000000000 0.00000000000000
0.00000000000000 9.18455061098795 0.00000000000000
0.00000000000000 0.00000000000000 13.44251820777986
PRIMCOORD
 96 1
Ni 4.482326968482828 7.1550403321466085 13.257979389508174 1.3661150413193117 1.1600876599094667 0.5406677707051141
Ni 5.651860068330783 5.315136079964277 4.858609734065344 0.025633127187071985 -0.4541684041602888 -0.3755291570898307
Ni 0.1424128838146999 3.7766871424446884 8.421589838331245 -0.04066842425363964 -0.059481957415716914 -0.4718519374829809
Ni 8.388828546898608 2.4531383162065215 3.350345821578937 -0.5454513081366864 -1.3641486616215603 1.4369458480889445
Ni 4.543698134547554 2.4541026940031085 1.625952904961742 1.9285243174665756 -0.08471939182626699 -0.4292798684487252
Ni 6.8187480176509565 8.911530497199362 11.344289214426384 0.04295773450844859 -0.6393112288116409 0.48646120275572347
Ni 7.27691013198391 7.216980940338843 7.006374606389846 0.04557486041632151 1.1964713407448233 -0.7353154495231078
Ni 0.8527276460286768 1.9130040891636475 12.078854863631873 0.7736343997079643 0.9076654932851658 1.153066748506943
Ni 0.7719982029937885 4.386578030107375 13.149927745813402 -0.6629746338668518 0.04016217404118245 0.4287427649983326
Ni 2.3262078290747468 6.433924538610854 13.421870344535439 -0.5417062392719574 -0.9476420336781035 0.33069451727364335
Ni 8.074386277908491 9.134384429165017 4.299186114180635 0.3151892225491926 1.0872243960908372 0.21092867536620447
Ni 1.0056623508316662 3.889978572167585 4.096647489341374 0.9309380906598613 0.5466782385652521 0.41195757512019376
Ni 3.727963102340921 5.79575442013205 11.321651134492779 -1.3907343825298886 -0.6397097498016402 0.8692041039851741
Ni 7.086036804663177 2.0482649635478474 5.402910991644519 -0.30873292540088765 0.2753702907800419 -2.033493460680814
Ni 6.728372041285062 6.205027172453251 2.2407060936293184 -0.20724377031544952 0.7793705308607932 -1.3251779367853178
Ni 1.974751821796565 5.11112884550907 9.174249970365848 1.1296177734553836 -1.3314082339657458 -0.5284702001976577
Ni 0.36328938206983025 6.371616548400872 7.676175398141669 -0.25226352955924947 -0.41670537421782433 0.2000688498335651
Ni 2.961604213319557 8.172229293785104 11.840815195962623 -0.6502610429549253 0.4515312236477579 -0.09868125332299779
Ni 1.1915392827110327 8.270706043642331 5.066901561302532 -0.45818780973232703 -1.357673852530494 -1.1627595503146748
Ni 0.09662147066760243 3.1592649234181764 6.070479937638526 -1.5521083868964174 1.0280214033681196 0.14767773782635857
Ni 5.639653800791121 4.6144742802666165 8.395793191500058 -0.5993228613441615 -1.520124377790653 2.027362150972096
Ni 5.670568997584577 2.262347649839781 11.534607794900317 0.15833573176083698 -0.8063763700256759 -1.8562652628908483
Ni 1.727889474971107 4.7177545500058935 1.9674602071993206 1.024630632519016 0.43138225950370873 -0.7636587765524913
Ni 4.859747699865316 2.0853797318907925 8.295109394171211 -0.6772242018073306 0.42847537026955884 0.5180484906437014
P 5.576344694582777 3.23350364465451 4.106621911123219 0.5466687254835554 -0.8670577470661325 -0.47125389888766583
Ni 1.1528172180404423 8.646014328422773 7.244790840627287 0.14854497092266028 0.6116513010025272 1.7230024149382392
P 6.318603323239902 2.7129049564053616 0.016171237966202245 0.11572252507600068 2.1399425308746887 1.8434614262579605
Ni 3.2792518904145225 0.6309528987401538 6.006385552367246 0.033805378585219197 0.10490846517963223 0.6150744677514632
P 2.2045584584480933 7.725823404020071 9.042513207986891 0.36331564574277425 0.44433239190647345 -0.27448300307908213
P 4.012647427893488 5.760687806538047 1.4881001504423335 -0.8546514029819796 -0.5516378965633726 -1.2742598097792117
P 6.918721849230504 8.295586990794282 2.7521000254238017 -1.5576172325297883 0.09345214371357455 -0.686388899025734
Ni 3.8786540214705174 4.211042902027602 3.0583074264861083 0.434731892702232 -0.7705097380360537 -0.6173231545763239
Ni 1.4896881592140472 2.2540264471377993 9.854414608838328 0.16821005345175546 1.4675196071107435 -0.4533132552488451
Ni 8.097310915815937 5.8982356339827255 11.782797309264888 -1.5968571518670176 -1.3550927220668791 -0.31116853142557377
Ni 5.8663193211909075 5.23829813095238 0.33015519788917974 0.4687100494198896 -0.7960428493101516 -0.6183436254210383
Ni 0.3434397316509307 6.188256183343076 5.385650465995695 -0.5273648829486207 -1.6611820391973326 -0.5197150797128469
Ni 6.579058804722019 0.8050543184956676 9.23529232952469 -0.9315001338109182 -0.06761667070770935 -1.0129033167797588
Ni 7.233421285633046 4.91879517466779 6.85287505173457 1.1275056122083873 0.1369598371882222 -0.9800402475031509
Ni 1.5364283364219775 0.3219506389778329 0.6312054738773551 -1.4540737660184828 0.8757092520935434 -1.5408551825801011
Ni 5.8721515107226505 0.721861579031782 0.13056022146711999 -0.5865632476856478 -2.0505277904552814 -0.6084762457086553
Ni 5.371676172495624 7.727072502880412 5.316838895616537 -0.021137553309563593 0.09867379712383006 0.5245893770860127
Ni 5.283449380933552 0.7949908065745181 4.154006843772297 -0.45988576626004024 0.8641935381444601 1.0681280415810186
Ni 1.9752753411718553 2.2267299632191575 7.330985091176171 0.34951036442856576 1.0572286210596955 -0.28476792994485794
Ni 4.444624388911487 8.947350243929746 10.068217166341729 1.5520549079506625 -1.012365699108734 -0.06911588096105517
Ni 8.456481945466818 2.2856947770676372 0.7996629873852223 0.9253819367283224 -0.19093192052930344 -0.12364537946750317
Ni 8.513104698952157 9.172325807047894 1.5090299039934107 -0.9357835916776207 0.23404983476470012 -0.6865591060550112
Ni 4.563380626148378 9.151587092146046 2.101858652296858 1.1692852672483347 -0.3484608401181289 -0.6103557221195552
Ni 7.733777224704304 4.36031940038887 4.6014138495356915 -0.2240006780588142 -0.31487374819130287 -0.03836574426239199
Ni 2.923469959877363 0.7540157716800909 8.700602703984835 -0.4564453731199235 -1.4380398524840716 0.20195295423015544
Ni 7.51276938737783 2.6176060610016503 7.466095338933093 -2.5382526904147773 0.7109609319381434 1.8995518414936257
Ni 2.4831809807078264 2.6075214246144807 0.5518573872291976 -1.3006953782629211 -0.217789921262412 0.0696082472164414
Ni 5.84747262368046 0.6190754381063759 6.758077632785083 0.6094671488670148 -0.09283199363107238 -0.4391284791080309
Ni 4.755181593063924 3.3841027182796695 6.297094024555828 1.5896485499337203 -0.4528818241383813 -0.34134916877401206
Ni 7.031682635137429 3.879048957139596 2.100138385998755 -1.0716489102500832 -0.7480560370182278 -0.3612780464874552
Ni 0.4258223937656829 7.224989868325739 1.185638209050963 -0.009217147722893804 -1.4096816130563528 0.5967504726312948
Ni 1.0703307705056766 9.176155764582912 10.54826330901686 0.21105851607584944 -0.7000643396302976 -0.7333529264800983
P 8.287017805230322 5.450516353504245 0.6153685535473032 -0.8666173170946042 0.5771823206913802 0.04175908621465711
Ni 4.560175218043531 5.69617552422158 6.821822086684458 -0.6743016288438968 1.6622760435924595 -0.39249046753451755
P 8.831037097110876 0.2759792086420391 12.6569506745686 -1.176174023948368 -0.44266991660238597 0.3432217032063767
Ni 7.941743000400742 3.2631881116885113 12.088345259605337 -0.6720141183613008 1.0376098183875033 -0.056908797371901985
P 1.3106996401674469 6.457124713031611 3.3926764961188525 1.654562734108602 1.1684537724859747 0.2847923554248902
P 8.055622241352035 0.23728377916773533 6.476080706692339 0.14520459369551766 -0.411054346579634 0.8780911220621587
P 0.9189510100928037 2.6156130135553695 2.3450738141411276 2.7556664592846927 -0.26898727007183354 -1.5726157628211497
Ni 2.6359751618890273 8.076131342492792 1.8322957705947798 1.1963235023130494 -2.8678066663260737 0.5764135608461557
Ni 1.0789642479227437 9.144643572010617 3.05286282498309 -0.5784061657961522 0.8622448990585215 -0.12567115164828035
Ni 8.251041921142393 1.4690137361653046 10.591696129610018 1.7243321894932562 -2.321820311621524 0.581424898017818
Ni 2.961025586641605 2.805044366456444 5.0306069733142085 -0.6715947714356949 -0.05898316340242745 -0.5294814150709913
Ni 6.694324912790308 1.225733364012885 2.276315514154543 -0.678948897807921 0.6756128914561527 0.4766424168930888
Ni 4.40556249587448 8.267298575427724 7.459803921879168 -0.7318236343197655 -1.0616617171303844 1.1687844163525163
Ni 2.5326857075993066 6.954403827704234 6.3254577532360265 0.7225841179993684 0.13015438423061457 1.3009236922236433
Ni 3.271628713546261 1.3810992193183187 11.252181031846808 -0.11706669780872095 0.3125337872042166 1.373749160825802
Ni 0.2987697521130076 7.476058739254407 12.231199001841334 1.7804943385071208 1.1999721548092304 0.6176242307565105
Ni 4.240727369061603 3.791713066970562 12.934148673054517 0.04891240942998673 0.14084863071966713 -0.4904816367690263
Ni 8.271789820594686 8.38654159383813 8.93916680948442 0.6508675661906725 -0.36991643888874354 0.02309210593277313
Ni 0.7313336059043579 1.180187178362634 5.4709437121460525 0.15251115465925993 0.24684878630158133 -0.5042444948810735
Ni 3.98140158728406 3.521494408366805 10.287854668742007 -0.8566383515050214 0.5967779834351206 -0.7031216383993826
Ni 2.8981573388545576 1.4931966574835362 2.9984884494463655 -0.7465995070773593 0.45709020579277404 0.18215443144698953
Ni 0.25002917981844175 4.536846459916562 10.70507022028691 1.4504636800697215 -2.1393982283354447 -0.07532226688208317
Ni 6.271339626656681 7.111597408547962 9.187893620049946 -0.857191395795014 0.4655360225672821 0.14170943605806563
Ni 1.7861562629858665 4.49610379414836 6.537580456463277 1.39502786769892 1.5496200732569247 0.6929508685139679
Ni 3.1706353968674628 5.5181697520724535 4.706776256860553 -1.1575448388829548 0.559408541647727 0.06503991111946864
Ni 0.5767851755884124 6.674385253777062 9.982171705510035 -0.9875023602081509 1.5303928495961967 0.9553208903795998
Ni 7.0461758557375695 7.3089182902801655 13.217664723790648 -0.18768950233260578 0.949034800260572 1.009292459500049
Ni 7.513954194385065 6.823294370120582 4.271091492828437 -0.39921364519096403 0.07321859027551907 1.970604020245445
Ni 3.9190017515696405 6.349169507116497 9.10713111263346 0.6749711441070956 0.8930716546313909 -0.7452571341168519
Ni 4.772760822613144 6.714044142592908 3.1616804601848663 -0.908427568262171 1.3901887944390638 0.5364143947453988
Ni 5.933687998695364 4.864422636041154 11.282560769349397 0.4228863062175555 -0.3190744165362118 -0.8140907079507979
Ni 7.624141246057996 5.2447732390151796 9.222534988958406 1.398014975351702 0.6685801529790872 0.8309496884896657
P 5.4628052819979 7.067658519225357 11.208331232663507 0.4173833741214554 0.5822800469292617 0.4158972764942321
Ni 3.3294362740388355 8.468559629300268 4.181564168923539 0.22272232556702287 -0.6633896099170833 -0.6156974460474429
P 7.517673937314759 3.1358718734381017 9.852344411168321 -1.262293124335639 2.5823543087196814 -1.3568991791479985
Ni 8.78034756321216 5.449478499304108 2.833091228146335 0.2769705453876262 -0.5960825000299927 -0.5458377449418277
P 3.600646864090512 0.5262187146656414 0.03005919669210354 0.5828829706205833 -0.07991142891466238 -0.37618890216101664
P 3.5324423924956814 3.9498802101613215 8.015047652856953 -0.8016506824152323 -0.04323155699512555 0.4421351271448386
P 2.292803619111052 3.7409776103196277 11.838798268685188 0.7435293527924679 -0.4820358199945182 -1.2486436518730044
Ni 9.102918159344942 1.3049409270392542 8.16537486378898 0.773189598861062 -0.6901771624235726 0.7769462376900168
