# total energy = -340856.73805841233 ev
CRYSTAL
PRIMVEC
9.44634198423000 0.00000000000000 0.00000000000000
0.00000000000000 9.44634198423000 0.00000000000000
0.00000000000000 0.00000000000000 13.82567634479716
PRIMCOORD
 96 1
Ni 2.295527185958192 8.692523740133938 1.2823163411882825 0.43737987184804034 0.20176063571369124 -0.38680035912827576
Ni 5.137081267972634 4.397734986628575 0.8003252516762548 0.6388237476522611 -0.7198456360222829 -0.2974699508925587
Ni 1.925438406246208 6.285775325620718 0.9304807277695621 1.2736358030419677 0.1774444275658299 1.3017778126938226
Ni 1.69103688039565 1.2274009776685102 11.220655757729068 0.339391530827009 0.45290804939062645 -0.09272220752608548
Ni 6.924433049535862 5.322890811515814 8.61981146863067 1.4883673970940303 2.2154517169565975 0.16857592143160646
Ni 9.570088894946416 5.9400675541387775 11.432644892984275 -0.8450475613436285 0.14675702578430208 -0.12417991181473452
Ni 9.288332857566527 2.1348921433576944 12.294358141593408 -0.0032611872497750284 -1.4074072151998793 0.27328641166781964
Ni 3.383802441343837 0.1506455361288698 6.675700478514518 -0.7784495617084207 -1.1587905383645978 -1.602006557278441
Ni 6.521659927136567 5.894007191438394 3.7588146544109144 -0.02667622373960567 1.8736145528025732 -1.6091197712844543
Ni -0.1739921699299359 7.334045323410768 8.252131506082058 1.599711076376045 -1.2503920020226789 0.9558582509403084
Ni 8.332778704711725 7.780129923041658 3.1863068283386697 -0.4913560689541796 -0.2656702898834586 1.5531057178126801
Ni 6.994080927753649 7.954547178353365 9.384233064328331 0.6120747616931911 -0.00562865904068708 0.9805737514091176
Ni 6.520384670991253 1.4471228883352298 6.96019123185047 -0.11351471879140451 -0.3662161072190209 -2.345644924844947
Ni 2.1668491177250853 1.7262717353735888 4.865476269509444 0.02024923716733932 1.684948288378995 0.7439813527282219
Ni 0.8298035059508277 7.869350621504562 5.829790015131282 -1.27406800548338 1.1539810327910964 -0.8321923026475152
Ni 7.752574943961054 8.404665365940176 7.211209817591563 -2.0828622409219286 -0.16488073196820638 1.0022152409382934
Ni 2.4468103501597183 2.283690919661313 7.199775965456095 -0.6442246069528583 0.45530817419168684 1.1270646680162266
Ni 6.659585964008656 1.4073348966014283 9.035701781277249 -0.04203110892912116 -1.009014266137998 1.8130360198885678
Ni 8.317995179767898 1.124964847003424 2.0920048068736885 -0.5012172780189755 -1.0704875429521308 -1.0598652873515941
Ni 2.991203029081604 3.5166652390019366 10.956461414421426 -2.3817319003754913 2.9119121412857205 0.8643992263973629
Ni 2.0569881623917254 4.723293711014552 7.810856983704457 -1.4332468019708025 0.035616720762345115 0.8279564101892968
Ni 1.8127152093422543 6.484148503780697 9.792629594011373 -0.1475430120207072 0.7076755763186522 -0.6818624719102901
Ni 9.50509806324448 2.86482986825188 1.1354956288611737 -1.4528794886000655 1.0989972203560492 -2.303374703321827
Ni 4.312717910274298 1.1395594451109081 8.396706822959231 0.1619357904072695 1.487135324459142 0.5111049694463325
P 5.055729372243409 8.750533725233007 10.166378831177498 1.4394716998345918 0.9979315259612748 0.8318765711793092
P 4.522303896171224 8.677844124950099 0.594111609808048 -1.4562946849292016 1.7167592622420045 0.08840866775239613
P 4.56316877087218 1.8002176991181753 13.300632537566988 0.06510290314692013 0.9742290401380124 -0.29987521789994165
P 0.8705134606459822 3.5650399554475203 2.8987053946423327 1.1637836207038152 -2.6086201843947463 2.442897159030902
P 6.461014412670517 5.11075431332826 12.982945449817235 1.8900343889214934 0.7775992978929834 1.157209052810091
P 3.4722296470941014 5.0676128702493735 1.8590835227858766 -0.22063484691037485 -0.45980863316520165 0.6434741019400789
P 6.207852451971116 1.863035872202169 1.4510742931173404 0.35202284643777443 1.422206484996241 -0.823850101330407
P 1.728000415926126 8.43410016704239 11.199295689612146 0.06657871636149823 -0.5636197515155971 0.15622999827174386
Ni 9.460227939613057 1.5639741366132744 6.760948990243315 -0.8770248855811735 1.0492607723628702 -0.9592906736606253
Ni 4.371937027125961 2.023463095282689 10.542769265515696 2.355229483209589 -4.074571418577105 2.1866741306032726
Ni 8.22088678588768 5.780868355494486 6.297374488737987 -0.28882435940241874 0.9526759965575852 -0.2164588611558143
Ni 5.333725765580076 8.602112802602074 7.832991651850383 0.42931637811361545 -0.3212781090557499 -1.0453519242267673
Ni 5.224337127337574 6.991152561790336 -0.18621762550968088 2.433450668906022 -3.180421186169555 0.19309267562604812
Ni 8.261336021548681 4.198813920643202 4.075436194803694 1.2765966854425046 -0.041728490087037814 -0.8256966676208426
Ni 6.280230322974056 4.312311717576161 5.203708206077299 -1.27169641992741 -1.5697266141988127 2.7101803019274358
Ni 3.459666012477303 2.4717109071897045 1.8540788508911548 0.5345971390310018 0.6586232988766915 -0.9403179892128645
Ni 1.4011286500275664 1.374886712459546 2.158395586432925 0.5405343304510433 -0.46169222334115967 1.7756997453319547
Ni 5.999154422205 9.203400798288603 12.577148553402274 -1.251736174755399 -0.17072639211570598 0.23149287267080132
Ni 4.963410273664481 4.013155518569096 12.100314221888226 0.40171070058120495 -1.710689659009157 -0.6931195328813482
Ni 3.5783592974096905 7.481786109430867 12.316824376337115 -1.5649011677857114 -0.7749598033876073 -1.962244592537156
Ni 4.396062984126941 7.0874391239324614 2.210988094499862 -0.3594278806525939 0.6412246437842699 -0.18494382126666856
Ni 4.072251832977135 5.529831821703941 3.918652425762045 -0.4829380200938134 -0.21627065640440818 0.7265287044694133
Ni 8.415349178535362 8.869245902849027 13.426459699839683 -1.7984090140040125 2.2364272907669998 -1.2823731829149656
Ni 7.526476752567765 4.270530547718943 1.4533272456407287 -1.4698842506881782 -0.6195612998782233 0.18005075484042538
Ni 6.763335136186325 6.865176147316932 11.648615661315407 -1.4005223151545882 1.1158096639276978 0.998711598660409
Ni 2.3083742108295047 6.021438342551638 5.688242250806502 -2.272201620153132 -0.739564711717765 -1.240818499401631
Ni 9.240326548451812 1.5349927599182835 4.199950315563804 1.0535519435390568 0.06819182648488901 -0.6908201953242104
Ni 0.7835721644635538 3.9559012408153986 5.705330683153711 0.13458130965371662 -0.1728768627998055 0.047967014797581906
Ni 7.169754546527036 2.053578032995737 13.075964522324814 -1.7400398300365 0.2025070269614125 1.4631106794097704
Ni 5.0697288508164124 3.5553857941104012 3.172895856860874 0.994327096439468 -0.19086301496458097 0.004240006223276568
Ni 0.6890907982426825 7.465387260036309 13.239066949407949 1.7532481011966579 -0.1637479039153438 -1.5004582668202933
Ni 8.015513868441198 -0.22678966361430516 5.374648262966117 0.33938227485562844 1.2677852577984616 -2.896598650857102
P 7.5513773095977506 2.821546730045736 10.315987158974846 0.05865817596284091 0.14734992217329462 0.707097335217679
P 2.5215309139333106 2.05277509394128 9.516987229055536 -0.7344764985615801 -0.11306914661355366 -3.203577312571044
P 0.7017243357889281 0.539680843623495 14.099977258962625 0.70128484230096 1.3969183998534136 -0.38830188337446675
P 9.356318179624497 7.958684676069273 1.4453772043674222 1.0710030491359683 -0.4352545979749214 -0.3464949746410097
P 3.482507266991152 5.627780940005885 10.747251392928822 0.6991271725280088 -0.5308896082724277 1.3186612187127225
P 8.436423967129405 7.917970942837392 11.087196895902306 0.9295180703838829 -0.1067383192995194 0.6828469473107465
P 5.4060752975575666 4.61836374610974 7.49380657939318 -1.6376852416269732 -0.7317966377365719 -1.9629909837848774
P 2.0789036754074943 7.765932071290494 7.56390315884728 0.7781132614149244 -1.6014434856861195 0.03429517373744416
Ni 3.880434416038253 7.568749132199474 5.221045077214299 1.2569835391972675 1.0999228174941122 -0.9632797402153602
Ni 7.580755432649061 0.7762805332149019 11.151527428311224 -0.49874696210161196 -0.18494973480393953 0.35576174465491633
Ni 5.397904211885739 3.5365781275524717 9.367614115169435 0.8688811734281165 1.230200100455836 -0.45812867435961746
Ni 8.506544162438049 4.171164478144428 13.095956760146613 -0.21635678836031125 0.7843409874921912 -0.37376846564498206
Ni 6.742685432974053 8.618927291036586 1.3002851725928501 -0.8455026466031762 0.09839457532051442 0.3928133980915751
Ni 8.020803819858799 6.635743397262189 0.37616938993967797 -0.9035476144620503 -1.4736902546978299 -0.15589395508856377
Ni 0.6502568870324125 3.6363220507996727 10.788824743266064 -0.3156088265851145 1.2762984374757955 -0.025956571964761744
Ni 6.32470370024916 1.3328504913732648 3.498822043943538 0.027902382837222912 -0.026112895036967933 0.3470163943621185
Ni -0.020156604169417298 9.501602916772137 10.111034603739228 1.0911676970093014 -0.9821452096612957 -1.295940380076439
Ni 3.095972406175524 8.685495661821985 9.336921061337177 -0.665028688182403 -0.1721610676797035 0.09135746596807492
Ni 7.290884987648246 4.861484245457521 10.810655239205477 0.4443151655152928 -1.4335609907771119 0.9420966783798419
Ni 3.2816402545914474 5.140330809557731 13.128378494531407 -0.9593055860589607 0.06381143802900623 -0.14614870277634184
Ni 5.568335110950612 9.492817818882196 5.344992417465382 -0.4876063721037603 -1.0150527590225937 0.21739499981683852
Ni 7.778505152249109 3.5454671352024025 7.20361968194149 0.18338573275092934 -0.04869026611685163 0.6896701408801671
Ni 3.572370316697622 4.143770086874716 6.15469316339515 1.65122364243304 -1.495710981943295 -0.8207444658218898
Ni 1.2783450990883563 0.21672647567650394 7.929274435455783 -0.1616892216141022 0.08253035459474818 1.143844715688043
Ni 1.8716698286230364 2.4072585169713454 13.526972555310799 1.1700344867095334 -0.1523149794880538 -0.42123308688484873
Ni 9.254722773381136 2.236090803244735 9.147537022050392 0.37615316382707475 -0.33821088025534657 -1.019101989391303
Ni 1.716475878909213 7.456526591411828 3.3367020364093856 -0.15560856263766104 -1.6702806590644914 0.26151718694703346
Ni 0.15700670270853312 5.192682435908331 2.0212167551985725 -0.9948911964730542 2.337294753108039 0.06794602902267009
Ni 3.929347573967413 6.345551776639592 7.131118063860744 1.287144893271996 0.08637801047561253 1.6650338088432552
Ni 4.811550882612109 6.744867537933812 9.389679825020096 -0.012611003895791183 -1.2546980855972003 0.4257350885202604
Ni 3.1028776820438546 0.18937081440824283 12.749582076932382 0.3897393871519417 0.980468336179505 1.4334311500674668
Ni 3.6553375368775796 0.23737051108368576 3.8423486550999 0.1462857425748384 -1.1109207112665127 -1.629867288244451
P 7.818869370833756 2.3668092813103443 5.4374862733679254 -1.0743300566266722 0.17470800247127333 -0.18954918124916387
P 4.383112049495639 2.0408821495934983 4.695738731933949 0.3671738431465999 1.2466819001609433 0.744761425427356
P 5.534998970677918 8.685665695974693 3.166135110022345 1.0194778846734829 -0.2827516708457775 1.0904061362529285
P 1.0253626188834801 5.063059733493511 13.279202566520622 0.09496806613746869 -0.4938852631339365 -0.4693962768536367
P 9.169384521405076 5.00677842894698 8.238968973394053 0.9602345256311333 0.27810105944764363 -0.11388341498473291
P 6.193116158736374 7.062727493738819 5.647470894889536 -0.08454224281845439 0.8158945939287561 0.34236706851556525
P 0.20012736383542226 6.056408699958697 4.582423249398061 0.3298763922477222 -0.2582097198403553 -0.21807968458868893
P 1.5094876370120003 9.391911995591487 3.9755316837456016 -1.27755930646609 0.5875628925947559 0.18495950499595246
