# total energy = -340858.063791728 ev
CRYSTAL
PRIMVEC
9.45963114139130 0.00000000000000 0.00000000000000
0.00000000000000 9.45963114139130 0.00000000000000
0.00000000000000 0.00000000000000 13.84512636959387
PRIMCOORD
 96 1
Ni 7.188297953572389 4.981299813502335 12.333003433735264 -0.04306777772375164 -2.2725428055426344 1.219058739127036
Ni 2.6302787907816683 5.2655806456479 13.150461234287366 -0.006655814753620796 -0.21101583576337204 0.03065372033011495
Ni 1.53440891318393 8.355493449244717 0.7960099790851921 -0.06140437124941039 -0.5758219500087438 1.553281581268912
Ni 7.710110121242216 8.121064872703009 3.02708477208939 -0.04039228777411753 -1.1333903531239384 0.9355429364217243
Ni 1.293708601259802 3.442066488485774 4.060055670946869 0.10866021891258061 -0.9513716759238648 -1.2171661500900133
Ni 9.37913904381865 5.053391661691519 7.4703453668283775 0.6752231122169017 -0.12446864669974694 0.7456317438474513
Ni 4.6255325495544275 5.359703974539434 0.9886667168611472 -2.6741331784958917 -0.5140434832493663 -0.0299626078003613
Ni 5.647797037995882 1.688941445924844 7.0862540756074 -1.0888246506984216 1.3075581668210254 0.7006927172429158
Ni 0.6119340726295899 7.925014019308333 10.157310996643464 0.7699497517675256 -0.7647029015462895 -0.6422751965359713
Ni 0.03172854848593899 4.417600399568014 12.249530703436593 1.829505735408817 -0.10530338662520575 0.7923929112623902
Ni 1.849528142534158 8.711601259910223 7.14686760748734 0.5330930436816497 -0.1747995337438151 -1.0317608158058942
Ni 3.0645988309220686 6.235817163345291 5.910276258473474 -0.887721188952755 -0.019207169056070148 -0.18962554301305407
Ni 8.234145302207471 0.26175082888717616 10.519900546500576 1.3499672279148558 0.4958246462484945 1.2919739392295233
Ni 4.679934887690629 2.3113757090136904 10.333323513596842 -2.1278184939176454 2.0912543216403665 0.4013944548923668
Ni 4.4422143595454795 9.03232059083872 6.3204250493692875 -1.170407810888552 -0.2934677717117011 -1.8574366574911303
Ni 1.2921856006616577 0.7988639497712802 5.039709251348935 1.490804288670297 -1.7110344439430853 -1.474308862118435
Ni 0.3171568338771864 9.439860415492495 2.871784117307673 -0.543878821443244 0.5987582470899431 -0.0328098474411693
Ni 3.5446845660551567 5.2061457837960905 10.595550161925548 -0.5029481446671532 0.8177928393927335 2.1188597420624604
Ni 0.5607971991299062 0.27213561184769136 8.868689784959328 -0.18276558266842718 1.4874122322696126 -0.4996730734603072
Ni 7.261808746418229 0.9738500967563422 2.8136622522448222 -0.3582927386068862 0.009935256835840954 -1.2298843689876302
Ni 7.224547259734435 3.302395036115574 0.5419659116098684 -0.04438906763833646 -0.05428524370612586 0.08323483686094053
Ni 7.947698214552744 1.8120207054432103 8.018030571367674 0.4092635732277984 -0.556567729764822 0.3343562823959467
Ni 2.7323671290125664 1.4637076307582697 8.24475900823926 0.28816924231692304 -0.3316687082614546 -0.16435519848203953
Ni 6.897367000802629 3.881598785331625 7.217270911535103 1.4409544550277054 0.4799236587475219 -0.8434125968433667
P 4.108317762572167 2.184162590728932 2.2011814129408678 -0.402866668562519 -1.8377664327557124 2.3212983776797826
P 6.745889928889048 2.5983525360069017 11.768953067489196 0.5562437707665001 1.115218567310918 -0.9989769365066538
P 7.556116787470832 2.638631644993852 5.437161325456987 0.46615694398073265 -1.281780029415657 4.565944713922465
P 2.6636050709510024 8.729659695573936 4.2511875161984705 -0.32230757876152877 -1.7002666639036201 -0.7279754642182689
P 3.7089510591407326 1.0182346856165507 11.691129628850225 -0.9580532017090984 -1.9975409538456048 0.48279249565488475
P 1.4358773962257176 6.94595166584654 8.229155346831563 -1.0649290750277467 -0.4149307988159048 0.06694818388577502
P 6.561824428027595 5.478838567912295 0.41989221087151923 1.8984565515469174 0.6949239330799387 0.5958035353369933
P 1.135912495808579 5.500151116655273 5.30638003434229 1.644523347594729 1.4973747427989632 0.2080760364087578
Ni 3.874201353854924 1.0104683285291187 4.220645205445496 -0.45872722717556486 -0.24650657247081417 -0.3047065778503139
Ni 3.4130538000726753 6.64814356130752 2.7226161413320242 -0.7981588672118899 -0.19571571507119198 0.0187831941447741
Ni 6.663174915037031 9.099266399739765 7.22445644727641 1.1306156185922784 -0.8982999929098658 -0.546915808497355
Ni 1.3873400293370284 0.955820039985763 10.837258870519006 0.43480131248758663 0.02411334810843589 0.5513761582615537
Ni 2.535748697755227 2.7407105235937053 11.991332911969682 -0.14344364514035296 1.763001838149312 -0.11749530070570734
Ni 8.286561117824355 0.473290882153913 5.091877224632456 -0.2593335490321534 0.02326257007236639 0.411362364738356
Ni 0.5624346612636875 2.226078215886559 6.455594663325471 -1.464347380030349 1.078288269943472 0.5180353780175787
Ni 0.5460836890034849 5.570502392732292 0.6533861758660421 1.2092782627015046 0.8957265757557349 -1.603855951782354
Ni 4.994723029954304 8.104018617561046 3.511830321474937 2.227279305719145 0.11564230665736858 2.122755477572441
Ni 0.9088870265221997 7.1427876686179 3.2478451277350793 0.7319236502327395 -0.8466730127621935 -1.1326102804248042
Ni 1.7878513481248315 0.7457424456784865 13.206173731323213 0.8416506198469376 1.4841109358105216 0.44904728088363954
Ni 1.4598575609232087 5.144147361931255 9.359291791924447 0.18701998706940695 -0.13296459998590004 0.7849058588567256
Ni 6.615961896494555 5.017577498557515 4.946517696115272 -0.22409580887578182 -0.9340241857843528 0.5708584353558814
Ni 7.936961533317379 8.13892465611479 9.005271721830436 -0.24765354159106384 -1.3920399887151897 -0.20450297434551876
Ni 2.934699177420708 8.894711338036196 9.638090767879795 -0.15044758726201185 0.10242760773930747 -0.08854287933741525
Ni 4.953810125687381 3.8173489712782285 12.516866498492366 -0.07652682871314562 -0.9086581962157383 -0.25547843695212136
Ni 8.776361894040015 4.725596526741828 2.142671703005198 -0.8864343518205314 -0.6044915500292944 0.8219130322086942
Ni 8.949037999124041 1.5167761609172148 12.318659795182677 0.7296623650023886 1.6316009831061062 0.4212292302301068
Ni 1.8833557831488439 1.4695063845884717 1.884958244647761 0.6050649060342611 0.7838627623041919 -0.14547327397587204
Ni 5.643625340705313 7.0367925027656755 8.385286557218976 2.819867419442634 0.12773831858995421 -0.4179379610733448
Ni 5.989327557222005 5.582639099362225 10.567611141635988 -0.2991105718197752 0.8647740932382785 -1.679002098097889
Ni 5.229255662437499 6.870302996384671 5.745616244736453 1.2657391739027104 -0.8103803489787463 0.4701071868777323
Ni 6.809761357700669 0.6920420121657771 12.74925652454401 -0.6817873956979806 -1.2300836294826298 0.4220080173776603
Ni 3.5106961117127162 2.746301165540931 0.38533901655572983 -0.4648263980947672 0.5724178094232013 -1.7085854681819606
P 9.335719337324969 2.2988227786178044 2.1826566174666677 -0.3118038510167275 -0.16539263860761838 0.4496872284604836
P 5.947061925715737 1.4884729448324439 0.8308270971071195 -0.009791017948492815 -1.1064732170181202 0.7597327020252077
P 7.625559938967591 5.735620252611862 9.047194914692897 0.15715739518201968 -0.4358302679727333 -0.668065675236514
P 4.506303359871121 5.215539197423156 4.227678441126988 0.35990559161996083 1.5393585434299166 0.04979326937304328
P 7.143099836442364 8.031434868557556 11.381317252515892 -1.2943061869071257 0.617035448132576 0.07774964537665319
P 6.547076863229414 8.400351019657144 5.039792496102126 0.30622250027420805 0.6961776029813816 -0.10408236973391108
P 4.222987410092083 4.3461707255519375 8.93071563975419 0.7867056310696258 -0.7095319128011006 -2.43760891404877
P 4.640005785052321 0.09333250373622387 8.299280537726622 0.18676827606991706 -0.17925448419137513 2.3010313999006304
Ni 0.8041906680123678 8.349656856890338 12.404914602971498 -1.4402474016583517 -0.7350164302254503 -0.34230330515716534
Ni 8.49685817557186 6.361866747011591 11.194670218342427 1.1024306715176306 0.3853944799196846 -1.679194159504037
Ni 6.092541591547183 5.975563794052439 2.667194054969239 1.2357837651912007 1.1641662008542142 0.45415683419606306
Ni 2.484373441553225 4.536044439874638 2.024711049844943 -0.5153421474561318 -0.7138703922754545 -0.28195462886577893
Ni 2.98728526639639 7.390317834156067 11.778657702977622 1.8797870001618722 2.008613923830315 1.2905120099720162
Ni 2.2743223342128727 3.638713298636247 7.376669478485242 -0.05976992096978093 1.7112380753134593 0.46284587732962873
Ni 4.786648985502226 4.356235772983153 6.5294308674792365 -1.6971162912000963 0.29635049257613477 0.36586283764466027
Ni 4.820372570175424 7.791633221582642 10.516591567561255 1.8948040423959946 0.32575080011512286 -0.15405793032108953
Ni 5.55499805745056 3.6388646527329565 2.662168152995362 0.46589571989954603 0.008932526602939455 -0.20074839239909298
Ni 9.088548637766488 4.19532744891833 5.305687589349842 -2.9692829658957054 -0.1942987801190073 0.42309328002203905
Ni 8.815477468408508 3.794797210868438 10.015163012865846 -0.05819126362875139 0.09144668324777153 -0.6896889099332444
Ni 3.798136460627102 9.122688446205638 2.088634506627309 -1.989365360013348 1.3162574943672365 -2.1267463438993888
Ni 7.851701878714425 3.083508633379775 3.562129071664089 -0.10146678648793492 0.7894145453603565 -2.690232140940283
Ni 4.936631435710796 6.125300293853855 12.626492270739423 0.40350533058778254 1.5184145941883977 -0.03711387413316189
Ni 3.5424426334976395 6.728011226215179 8.31673923278212 -1.5163394568269242 -1.1681930626254204 0.06069474677689547
Ni 0.037216080454781066 7.501099573316745 5.3051058220406135 -0.31962514683335924 0.6594193124154256 0.7255429435173761
Ni 4.729001993917803 8.70634170504955 12.794571941098987 -0.15651667627422722 0.6502795548976865 0.025217379805892056
Ni 6.436635670786333 3.582693363591456 9.413716833175156 -0.15619323149653747 -0.46545323304548875 0.5097451129843285
Ni 7.927577579321358 6.797747626274313 7.0036544692541245 -1.271059043453727 0.14132017103944694 -0.1826046316105307
Ni 7.909424547347203 7.248744995945947 13.473370469802637 -0.23751002539915866 0.26506273820644677 0.21602151650807958
Ni 3.628260406332212 3.332911805864728 4.190434927742179 -1.2748938438187851 0.2639090842179777 -0.3195361866639787
Ni 6.209613985352372 0.9009910724894595 9.858878556455515 0.6042552656487723 -1.4388368944640704 -1.3266586350959024
Ni 5.589118946627622 2.4634014395278445 4.886747963324492 0.6192550814917142 0.10072862277032975 -0.15351671310563883
Ni 5.981854448696949 8.417794579302972 1.0318991226601508 0.28392743632143363 0.4803851717649727 0.6158475984720619
P 1.4550804472457994 6.313026671929482 11.36959014791018 -3.495179491828916 -3.572384320445693 -0.3147343943999612
P 0.5324116842550494 2.5019305167715853 8.56178435324493 0.4743862738690604 1.3233678801597724 1.736682483528493
P 3.4654506964274696 7.370547205273323 0.40319596207819697 0.6742761749226001 0.00946037408195145 -0.19006237344015656
P 1.3979537353688172 3.3765774627655643 0.05016347746521746 -0.09243244419980855 0.5529535300510026 -0.25375785471658874
P 8.823660049261893 9.373595700026646 13.792376661549 0.47299787816196603 -0.8925924010021273 0.2311429455305503
P 8.2256883920538 5.831890917750468 3.901390225402667 0.725326456631196 1.4794130161142198 -0.5229199598033898
P 3.162742503007462 2.1381604049601353 6.14448064175943 0.6947030753183843 -0.3665290104737494 -1.075410948395677
P 9.06944018305685 9.272207374493034 7.111728862009903 -1.3697847768614153 -1.0883227713613388 -1.869949188135844
