# total energy = -340865.20833267435 ev
CRYSTAL
PRIMVEC
9.29637577332776 0.00000000000000 0.00000000000000

0.00000000000000 9.29637577332776 0.00000000000000

0.00000000000000 0.00000000000000 13.60618563632866

PRIMCOORD
 96 1
Ni 0.019968614879403726 0.35150804831917976 11.502151791014906 1.3957356923992221 -0.07679782298634515 -1.1348242573569876
Ni 7.78744372619562 8.047463352907407 9.902812621909817 0.6494588587686041 1.0503537483167331 -1.0273323477208953
Ni 2.9856240012426913 4.201022856325729 6.011716055293358 -1.7190994803394068 -0.7962799050216222 0.029289492992736657
Ni 2.8290637390527293 7.373931641255789 6.1300626357685735 -0.014330557690059191 -1.480808868020482 -1.1409689368021445
Ni 6.540102524406049 2.4939479899034063 8.979606290361026 0.6261286686830958 -0.37036586772133634 -1.4866804963099107
Ni 5.065678754804937 5.466445508739338 6.1501186365790135 -0.6078545529642564 0.7442402628165635 -0.6844464305873825
Ni 1.8481287740411267 8.14242583009228 12.536168131305796 0.00152929216033285 -0.6542377682144862 0.7518062480892794
Ni 6.6856279887087435 0.6058866342912933 2.9006207312832855 -2.7123472276717675 0.3742837147185038 1.1693032649704636
Ni 1.5766653089138138 9.006133498255988 4.901056675658077 0.3218278109116328 0.10999642122550089 -0.40335132150842146
Ni 5.698427266514311 6.173713767596431 12.324945180339814 -0.3915892958764869 0.5942325913054476 1.5404060108578246
Ni 1.3015483681591238 0.07000263822318342 2.264136935840883 0.9150964956419143 -0.26755773671415856 0.7727039174738951
Ni 1.7195413061584859 4.049696453622314 0.6970868682537769 -0.6557878863104254 -0.47846147237969855 -0.3094330367917058
Ni 8.745872165777502 3.842452351431184 3.7258767305158043 1.5597810729503265 3.0709996636109174 3.2071894554023346
Ni 8.529127167680064 6.21531504859519 2.2826553161201066 -1.85096210551038 -0.7382807027990188 1.7309543227954642
Ni 2.7652348238935183 3.7395879549504567 9.27333643442649 0.2812547745852769 3.323637288680134 2.3653542303484167
Ni 5.728110593939793 7.666841844989611 3.185180930415302 0.8445042872456487 0.24333614516263255 0.2307608796007832
Ni 7.296074495252526 8.658346789106373 12.088456539653514 -1.2942259684884938 -0.22531425466391516 0.6437073009968075
Ni 1.465638694619252 2.446406324869295 8.318209137835144 -2.7852459727140224 -1.435620958629934 -0.8677460313824088
Ni 1.652179768255246 6.048538069574471 10.001430433997195 0.3668059182842199 0.6755604409516623 -0.26738213036824277
Ni 0.6951820408846939 6.120733722811645 4.797799042487685 0.0947073562769143 1.1053321614351417 -1.1976589332950212
Ni 0.9732747514824458 0.3718382922110643 7.147655998849986 -2.244432934680296 -0.22211631655190775 -1.0026340736432668
Ni 9.02750586585736 1.0391953511611478 4.160798368559577 -0.12991527163661498 0.6918080131587763 0.4489629486999493
Ni 4.501100565679673 2.368326065850621 0.2521325816169628 2.2043028994286296 -6.162386632628936 1.4039102577902145
Ni 0.39452144877798473 6.9127663347741395 7.169683760934133 2.706865121511273 1.7657588320691588 -2.5203022765839433
P 6.37715565214991 6.5844648289705345 7.9701500448792135 -1.8183211795469072 -0.7356414654039589 1.5632001259342045
P 7.670281503977218 5.739814730873299 4.539921300723854 0.39442907931812715 -1.4631541310531961 -1.8520653658768877
P 2.4334006953458847 5.522205169841137 7.538452389908149 -1.8199540871646398 0.49498775216949586 0.4591769131184737
P 1.2675050405574588 5.895491837377254 12.183767630924969 -0.7396891531107712 -0.4192723636140521 0.07144427198391566
P 6.645607091569157 0.6620943806990451 10.123750285421877 0.7892749344586987 -0.3563543839335927 0.8339635356153251
P 9.094848811009317 8.749795236298501 13.475674727905586 -0.302017461053925 0.4333589236141052 0.022618251620148144
P 0.41538809354442313 2.604370339781226 2.2707773369620927 2.898666074909092 -1.163292025779377 -1.6128887514085835
P 4.579803681866373 0.8280244598987607 7.606605979016102 2.419860588926413 -1.1760948339710005 -3.3139977087078414
Ni 6.387967337021766 4.412682736946894 0.35707564769128164 -1.5424695782550726 -0.665724428697847 0.5107187897515075
Ni 7.054852140089226 8.426346438580117 0.9205410606521769 -0.2254420384910311 -1.0826632590827159 0.22433774968325879
Ni 4.8294950352397 0.4542255620647606 11.371246736684672 0.9912068056429316 0.11152571338583374 -0.39579382087613774
Ni 5.682697798927741 2.8863851912624146 2.5881825608754974 -4.108794344315718 -0.9810926000270652 1.1003869016147243
Ni 3.732448338457262 9.289245322062953 2.350495617368919 0.827781318064013 -1.35624226229029 0.155820421538151
Ni 3.609280657574012 2.5070186940563124 11.443672940037771 0.5693011181710904 1.1779164605607713 0.6756640564090622
Ni 8.656255104586883 6.033682461298266 8.722299346061625 -1.2169262661650655 -0.7016591949212432 1.644943722961599
Ni 8.631182779479921 4.988193463827362 0.320548328518026 1.2327825164710318 0.6322828612099498 -1.043271901769287
Ni 4.987412568273419 8.658820904264124 9.129069699385747 0.7340977750659228 0.100085332759376 0.8376792939040153
Ni 6.855714477458078 0.5834953839195374 7.40455390262113 -0.8391710479581934 -1.2334193787240821 0.8569916210793822
Ni 2.8171085999768852 8.674996597881519 7.986163981560434 0.24031792716159903 0.1720834203642327 1.0704294360206856
Ni 6.733587990646752 4.366228747862918 7.231619934012596 1.42569521487579 0.11627351248346426 0.5701524104277923
Ni 2.6636905127539805 9.171785615824001 10.586224521593945 -0.27778507086912163 -0.427761889142302 -0.6747202044385541
Ni 8.26149380931733 2.068583026019795 6.384226475463352 0.6772365431025046 1.0489784652357612 -0.0850063269390665
Ni 0.2309563675416398 4.578502189276468 6.292846821450975 -0.16742586698756326 -2.025577805378163 1.1786728791108219
Ni 4.440497492868298 3.7389279122798618 7.850850585900675 1.2675890826272556 0.1229342123330915 0.25810121928694907
Ni 3.774309917974001 1.6225336263323322 9.176378955028804 -0.9900505805513014 0.9007613099661649 2.413181634244341
Ni 3.95029960525612 6.4340029892018435 8.554834435243386 1.1352839706022253 0.06911382407852613 0.5054963650103036
Ni 0.29589898850278434 4.124411424658518 10.037854563400822 -0.03842128009067577 -0.05055405879846778 -0.5592455337073013
Ni 2.874113975414736 1.5809509380848588 6.556140631663939 1.4314436873237928 0.47581837832989665 -0.5576403940037106
Ni 5.037994148142524 8.108419687993186 6.703059622675395 -0.03865499336803665 -0.5189360354549772 0.4884260397915782
Ni 3.6197297837958233 6.003999133872783 3.679888489851502 0.18011888907419948 1.2288271313677095 1.3186293370335227
Ni 3.7607000240338486 4.277457656855736 2.085243060808147 0.19091726524128408 0.14203519482860055 -0.908511900445861
Ni 4.927636872894198 8.6069564245564 13.368798015697694 -0.0327414560970791 -0.7747600286719754 0.3402893600509301
P 1.95984332013321 7.390469893523227 3.5346010127652483 -0.6199407947048291 0.3040211217475151 -1.3381962034218566
P 8.596014590425552 3.5891354115574075 8.13745133948615 0.049149208031141166 -0.19816186261883934 0.5519070910643591
P 7.1718935094242795 2.4598674767991726 4.171941934041859 -1.278587490620288 -1.2686902861112344 1.9564794079186048
P 1.1329121140099696 2.4210272193661426 5.733170611201833 -1.3912601731263716 0.09211876961413167 0.11634936002672219
P 4.3567278519566095 7.484632882402873 11.02766384860045 -1.259933880074843 0.4533196830067483 0.6439996354262457
P 6.392327337197948 1.4751395905255602 0.7369683197587312 1.4499952250737351 -0.7428426111380885 0.9025633961719101
P 3.9000991767883453 3.997943530422295 13.316319045560022 -2.660929278211108 7.184310407739749 -2.679987323283823
P 6.376662944240874 6.37247027882625 1.4230845351171708 0.8622487557132634 -0.24551592642277073 -1.3010147092755528
Ni 8.790578436240748 2.665531195131132 13.478600297320181 0.17766811354086176 -0.31838998887467745 -0.1535172273262711
Ni 8.187448177327362 7.854795967723216 4.139423212045512 0.33191887659904773 0.2248368008068644 -1.7196278420390516
Ni 6.477937660486789 -0.0490244369490389 5.187372030511337 -0.3017410674640868 0.7295389520506468 -0.7230253193018451
Ni 5.855638274999226 5.169240379458828 3.1764181667349827 0.9766782730094533 0.11591921446783908 0.5127785004940136
Ni 6.707669695356353 2.19573885205354 12.289705409193001 -2.676085931346888 -0.9071353318133086 1.141847482752356
Ni 7.27379108283822 6.850071577443274 6.224707176906485 0.6339245105784308 0.757269842307012 -0.7278674778854949
Ni 3.8954138034646864 5.170244388028183 10.916514522147413 -0.3887618537300208 0.38322729706503683 0.7025441686293578
Ni 7.952640321357166 6.218271296049403 11.460490083574477 1.6511899609816274 0.16169616359263764 0.48693505706834844
Ni 8.45160469119992 0.6883343305866639 1.8195005852510318 2.861321829932679 0.5056714571355871 -2.4354666708947863
Ni 1.395125685373313 1.1246848215666398 13.323558133272586 -1.2086159465271573 0.908981640993428 -0.14691669129061793
Ni 2.6367217270160146 2.1567033707320244 1.7163926237284794 -0.5919108851508065 -0.9760928328196286 0.5250935704159407
Ni 2.6995745227327967 6.200784813466461 0.2857259646375463 -1.2605049220869646 -1.6580429793477187 -1.865858048785606
Ni 0.7421575566421963 7.323666138158518 1.144660873546557 0.8433038391796445 -0.013334255215060908 -0.43156429360752774
Ni 8.687026107962499 1.0302894232959388 8.907167072082027 -0.3191530922929471 0.3322145534625956 0.21882170496103606
Ni 1.8962096288624841 3.222635098240083 3.8924166519576473 0.13140728280110917 -0.1523805426186666 -0.09360975233736137
Ni 1.4281278189030537 3.548445175371583 12.09455217316209 0.09896536022231989 0.03871284318916559 -0.9703641578659676
Ni 5.507898047727821 2.3745639339065243 6.2555795107766015 0.16119814091029658 -0.34061768992462627 -1.3378498758260315
Ni 7.077014699620185 4.775743391276611 9.807419722532709 1.622210800140458 -3.3513180424248534 0.177462682398275
Ni 8.323547116728884 2.3170379614327112 10.854647142248702 0.5693844219135162 1.027369628716734 -0.495467777129708
Ni 1.6001200646590352 5.350752113872402 2.546941979251656 -0.7741028547039506 1.044735116578375 0.5441199909197725
Ni 6.016828132258993 6.594653656674365 10.031704081275954 -1.5388911168751946 1.4016829111215925 0.1517133413483129
Ni 7.686336344711264 2.9722279239423086 2.091651982175866 0.5226929313942481 -0.08301012244464413 -4.008256754510271
Ni 3.918998708468898 1.5117208286775408 4.029580956007764 -0.009939884821531268 0.5352422288141685 1.1630991930422807
Ni 4.273330066070608 6.798867140406144 1.496897757716084 1.2880980012138847 0.8684119471011819 0.9974126773433274
P 8.556133138920599 8.644132630749478 6.018505198424842 0.5482327275365655 1.5780652159714952 0.9237022350330544
P 4.015671718771933 3.8550024585481277 4.259824291537648 2.0635925940590396 -0.7353488738642046 -1.5098075692456772
P 0.35058305894278274 8.418156331639356 8.84659188839758 1.5564612645484743 -1.0909434968136373 0.5202717235472653
P 4.305300301904067 8.395166394676243 4.570018316865414 -0.5135472603392381 0.7227324706517747 0.6468985542405956
P 3.1934723678505628 0.3951694061602447 0.3312075528293502 0.6380087079501335 -0.4002875949814332 0.2833198846444217
P 1.6732453554604272 1.8949360253995053 10.565339284076222 -0.8729867109560578 0.15388103842359305 -0.06687027945998807
P 5.261413943951048 3.7450077419498475 10.054345404152485 -2.7912410139551933 -0.2668000326125276 0.25554734251684375
P 7.539583758823802 4.187970744924106 12.05897122502921 0.6101379496817944 0.28885932640541223 0.23363074494941058
