# total energy = -340858.8176896487 ev
CRYSTAL
PRIMVEC
9.36811851854052 0.00000000000000 0.00000000000000
0.00000000000000 9.36811851854052 0.00000000000000
0.00000000000000 0.00000000000000 13.71118839581549
PRIMCOORD
 96 1
Ni 1.42139648728047 5.398387545999447 2.9510865486358564 1.190342087918634 0.5704899962728691 0.8884202719023088
Ni 2.076630786448436 5.927948537998171 11.688814812259865 -0.9289693969692646 0.9541047585843115 -0.25591655293080445
Ni 7.3338501575888975 6.968596592682333 3.014555550206606 -2.4257733548664224 0.8853012666573529 -0.9380831863450747
Ni 3.289136971585056 1.2815866895768726 10.543450867884532 0.6399527190503818 0.6900524639202503 1.1356858340263345
Ni 1.7629487128550787 9.073940661760192 0.7649387118608233 -0.3710826912827029 1.3142525481220657 -1.0938015350877228
Ni 9.097548319909018 9.066352485926641 8.576540419930087 -0.6564635722212113 1.4619804224600692 0.6932475738187802
Ni 7.449199798377184 7.627278359389492 7.113144784628659 -0.540179775325102 2.072979177480262 2.82465069976389
Ni 5.7027577099896565 6.084199383341129 7.586084869543455 -1.6369257377531294 -0.25595871902264955 -0.8000347440783641
Ni 0.1330272800449668 7.4337798756339435 1.6399265831684235 0.2540147079224013 -1.0244321433549648 0.42988227791941447
Ni 4.016327787515373 6.9873796698999495 10.469314389990739 0.6085310102059907 -0.19489476183179338 3.25759824687219
Ni 5.647157927801848 0.9665837113013791 10.014651503904657 1.2161089124700926 -0.7194615132099867 0.033863742626980387
Ni 6.375763329597432 4.185581581076811 13.521562564229805 -0.01843378122515535 1.5444148749069015 -0.5563178185375451
Ni 7.151958772423187 8.431934145650219 5.156859656464848 -0.9261774360464241 0.6993287470158537 -2.551607000234496
Ni 5.872123920970851 1.0642838171879254 4.597347853407548 -2.0145752836200725 -1.105894718806831 1.263328764689005
Ni 7.373852022785517 8.458942430746674 10.740987947444827 0.36438111089281117 0.060956999299346636 -1.1571689436007748
Ni 2.0459783033282153 8.92058456497596 5.190411572202948 -4.300749821013529 -0.27597090047851824 0.0627400593416984
Ni 8.98331348519998 6.984306927093277 4.462278323570342 1.7956059973375786 -0.613782488412917 0.4426470337842505
Ni 2.8344459811440346 7.716650208095758 2.2643613197586543 -0.15014573975087692 -2.0680560291470322 -0.5078113862967254
Ni 3.901690123718876 4.0313261449345275 7.4008884122369105 -0.0594665307967492 -0.9244666240029047 -1.0372845738376009
Ni 3.6783822874912793 0.07448497189503707 3.4620471417240677 1.4991696299158568 -0.10928833941488274 0.15986656658306658
Ni 4.573365470526202 2.3672766571100623 3.126438987219074 -3.2070375032055027 -1.3933468804520714 -0.13280673425179707
Ni 2.1904908964249517 6.548651953064324 9.243534518016393 -1.2905441487615321 0.43160851658190186 -0.5863043375973064
Ni 2.489062195179398 8.573505149596667 11.30324273554418 0.6296443951458383 -1.0763463157257527 0.3202928623243452
Ni 9.072348081646979 4.991520799546422 10.696756376829875 0.9465086914046086 0.2632927907902175 1.1760809500139293
P 0.5585965378981164 5.001535318023047 5.080790535763078 -0.4600775705558722 1.4430087664535727 -0.7729471438329527
P 8.560549041969752 4.938900078982156 0.5891010047489911 -0.15878901724817168 0.5508328841635739 -0.04250213502826874
P 1.296238426618445 4.30533423747222 8.682815164508545 0.7581944110038102 -0.11016714247541026 -0.10796859216219472
P 5.126234340887734 7.50630784761339 3.799740639365541 0.8916989426535805 0.8132558707543284 0.25229746812097836
P 9.27105523918457 8.63169053243887 5.9444991926217945 0.167353361878415 -0.5332735351235719 2.273149071668066
P 3.533532442135274 6.5948086719926025 7.37169641876169 -0.7249065954849581 -0.6993488016205117 0.4697480037661007
P 4.450437022022677 2.565590353678506 9.24579691858899 -0.11977046989312921 1.4927153896500809 -0.539324112193026
P 1.9799705416946354 0.18810806847823344 9.438302381803357 -1.7519417236804085 -0.7341823643599291 -1.0456216329483865
Ni 1.1387603577764809 4.115910885182838 12.985098205846214 2.8008132310246605 1.4845673066216496 -0.029764889967258415
Ni 8.289126550086454 5.838305013860828 6.600250611920639 0.9395482009263755 -3.8059926967976003 -0.9037023948723597
Ni 4.7426473684425785 3.5873616499619203 5.142682883021745 1.0122430574879406 0.7823424690049235 -0.11585545110943919
Ni 5.1250352217436665 2.7141968144780346 11.82522773026316 -0.5179068228595145 -0.2835132316021504 0.29981916785102564
Ni 7.901511286766697 1.2397205688359603 6.5513565288212945 2.6189285082992897 -0.4235769045266769 -2.553560524416441
Ni 6.018004259341288 4.249406571143456 8.884918264934608 -0.2301952369053003 -1.0363803168557766 1.2794061298668418
Ni 3.038764641551128 2.5024586043670247 12.898320389100823 -0.8415979122321311 -1.2594577117693728 2.988216569575415
Ni 0.45702084146547123 0.11718017110665228 11.646488716909783 -1.6076395871945024 -0.661705280236125 -0.252996551070532
Ni 4.809994770994921 8.176034625811607 6.686329567039877 1.2382805634711254 0.6979444650738174 0.12455760686912741
Ni 6.592307384403024 0.8770563518311164 2.523064717408357 0.10687793020117721 -0.19359738317660852 -2.0900173639094715
Ni 3.5778998504657644 7.671636399601669 13.343152371829216 -0.12371248526001274 -1.4099348667177396 -0.07383128415885348
Ni 3.565805609723648 0.7993440631772419 7.906063255454996 1.3556730200503815 1.4781122950249252 0.5952481770541554
Ni 2.749711351002716 2.0216586681876003 4.891369993909189 0.3794076662086304 0.39534516337449327 1.3622599292392796
Ni 9.25548542654832 0.7767341096287541 4.46567895051797 0.7742638057618472 -0.4748742692490725 -0.7790715115631357
Ni 6.404111255612649 7.030875843227329 12.749115305541093 -0.7618237802262815 -1.2485863162725077 0.3474527105685887
Ni 5.1882044435284 2.255421324452534 0.8323498176176947 -1.289473798515489 0.36541726546680936 -0.19918644722861178
Ni 6.1441647086628075 5.956671188745909 5.29945646936657 -0.15483671746864303 0.2343041168673513 -1.3400419983813439
Ni 8.01378818474831 4.079365855643724 4.956855014540902 -2.3794487607682697 0.09317832122689759 0.7511922686543643
Ni 3.817901673527173 4.84336400842592 12.839951391139683 0.4669524432988345 0.3309601122302042 1.2992396196530012
Ni 0.11623211753337408 6.805329026722919 8.306073476114717 -1.2048839902885509 -0.4218964315004605 1.885096585300244
Ni 8.63014479291722 7.986180340079825 13.123554310453578 0.8675675968230155 -1.6183451465374645 -1.0541952335500102
Ni 0.8007511545478585 3.696518964545297 1.4785729237803606 1.5235146344191246 -0.18716036930201316 0.04230081765074005
Ni 8.476039246667945 4.939087441348417 2.749902460616301 -0.3969348764591164 0.15886229368826835 -0.14480761536741513
Ni 5.679449831626849 1.9220193618102572 6.626823279515537 -2.065326803141327 0.6068124848529872 1.3239399506131586
P 5.398556172129083 5.164034698280794 11.466282656228588 0.8725174846291232 -0.18277046776443362 -0.9088528287250476
P 3.6966032776101145 0.3349139769379986 5.721033972006539 4.444481172597629 2.001124557431805 1.804596373761647
P 6.579941468229831 4.111479765220777 6.792179935858756 -0.060306510199541294 -0.1356963970947663 -0.7243916035217525
P 6.58841961530312 0.11284460595138394 7.626752807952131 -1.9796658733373973 -0.08051975192262262 1.9449089294721862
P 5.1752858083747375 8.44075891310109 11.617092498455339 -0.0821842841092391 0.7334575703787627 -0.7366845619564926
P 1.8000933019662262 6.520528861888621 0.27185998300851566 0.03611654321689909 0.30587874378154417 -0.09700617961342002
P 1.193282806358291 8.336426179448921 3.4788985129455385 -1.4422163524592646 -0.447310757808507 -3.0937349004249044
P 6.758179287253459 8.417469770974908 1.3340903086622258 1.06347974417573 -0.760937006745954 -0.8556813869083908
Ni 8.539067946677983 4.333457328647923 8.64461572527535 -0.5434306781622318 -0.28185075629806294 -1.47001563405972
Ni 0.3667000023740953 3.0405633202672284 3.9133927771155075 0.9308961816783322 0.35107925157758246 -0.4117562577426651
Ni 3.116744858388755 3.9593789962904893 1.397005654440676 0.456438174031072 -0.7310589882395991 0.3699128393443178
Ni 6.857443868898282 9.400063596473247 12.775509042076212 -0.9633327049404831 2.026488233007574 1.5558871372125591
Ni 5.31969535217003 7.98000675011154 9.08397766372077 1.503444603142127 1.6900442148446635 -0.929689820075057
Ni 7.058511792250755 3.4329282195716893 10.949110063887009 0.8241434642011096 0.3031518317686844 -1.4160330091956772
Ni 2.93155589557686 3.5486244807375584 11.035025076935769 0.49023969596154926 2.837162716187972 -2.7143205493480544
Ni 1.8089274375354096 1.4930625923751177 2.9708307947923895 -1.3178724042628398 -1.0248206370426352 -1.8924419699217214
Ni 7.199033566946142 2.31757878945946 8.366073463474155 0.806542463289895 -0.3052768485314872 1.957176176875313
Ni 4.265838250664503 0.47353027636851663 12.985839224004774 -0.003934044947083547 0.5600320341643387 -0.09854935573082382
Ni 8.586573674643336 0.2691928797247972 1.0355115154131294 0.15667685600117534 0.9013997148811121 -0.03787286378637349
Ni 1.4599369260202584 6.503179106772897 6.474546389960965 -0.14623766294572235 -0.5187270047679646 -0.4383028978829419
Ni 7.110551689479614 6.383332769194357 9.268680421192217 1.812300427274124 -0.0419082101980117 1.5001726172590746
Ni 3.350395097233932 7.040918466058892 5.084643642825225 0.8098309042331796 -0.3297702056871611 0.314570100907955
Ni 4.029949031542512 5.749701350856229 3.3207262665365787 -0.05344629274459828 -2.7243571076484496 -0.9062583285249941
Ni 5.081529680297975 6.941541466994315 1.5071475582587521 0.7533481386551026 1.9868222818765204 -0.3421115008613334
Ni 0.834732130104697 2.09732495980191 8.06387857655623 -0.32640128921492817 -0.054178028704300246 1.0401775791146795
Ni 8.537072537477309 3.4384273050214356 12.699110163609824 -1.24145279055152 -1.5440047839526765 -0.2548114927920837
Ni 8.454867299280506 2.5401746486952668 1.8291138588763176 -2.239341893310634 -1.3501490049083587 0.3183365099289227
Ni 3.9374388632013826 5.156765038469886 9.302122729946056 0.2730904936069297 -1.111087061641048 0.7821761186303884
Ni 1.0979809387598793 2.2701386383222975 11.227996135630292 -1.5283117986974517 0.4468240479800756 -1.1640816115602082
Ni 1.833378226332407 8.741185099281514 7.4869533151786785 -0.8370069504273392 -1.491108193063961 -0.040703134146316995
Ni 6.303610082350508 3.435710550710658 2.7310219549682286 2.314130399176434 2.2565094062288558 -0.34863156136803825
Ni 1.5688975101190619 3.6110910936488145 6.2606104192937195 0.31758677624709175 0.29547631750129755 1.644564999465942
P 2.7783122162123832 4.104050847398547 4.440518995164677 0.17541865538505275 0.8665471259783013 -0.8941790287629569
P 9.089491738159815 7.125231530876125 10.86097480679806 0.47612253983387676 0.23642347720319926 -0.10998536548190736
P 0.9810949265682561 1.6384089480017134 13.274582429837023 -0.3511345302955501 -0.06532993155606168 0.7000573976517621
P 7.076442370701886 2.1433598931921187 13.712970083977886 1.345611007828689 -1.8442582111276433 -0.4395419124963656
P 7.608064348729477 2.023307457010693 4.079037034690937 1.1022144417417663 1.7005309733086005 -0.17577475317289085
P 8.388850169528615 1.4229047543288673 10.04393905218667 0.13167956262588934 -0.040583320739001075 0.3886520676250339
P 3.2222486068300515 1.4107262005219336 1.407535419424517 0.6744330122154385 0.11407753327340997 -0.6308669546990296
P 5.085923327786784 4.906158505478131 1.367515754803102 -0.3842521387851253 -1.559857434714217 0.4913936070603344
