# total energy = -340853.3757440382 ev
CRYSTAL
PRIMVEC
9.47205002770445 0.00000000000000 0.00000000000000
0.00000000000000 9.47205002770445 0.00000000000000
0.00000000000000 0.00000000000000 13.86330266503124
PRIMCOORD
 96 1
Ni 3.729837456090799 1.0508670902487922 4.332129107500319 1.852347673003997 0.7829973289801031 1.6798053107254747
Ni 7.660444479214637 4.195331870238357 8.86639933484111 2.2924390302459297 1.319013716956135 1.1541787506241994
Ni 6.393358908749617 0.31881025133034546 13.21124182754957 0.11672962618427639 1.860445105300151 -0.0442114044098916
Ni 8.07374789910139 6.0239016072718075 3.827976416605642 -0.558353103800019 -0.6658928359549112 0.42290044728494264
Ni 8.826198061185627 8.468561877827144 13.132733690193625 -0.4781832790176474 2.701712630776057 1.2208651962081556
Ni 4.784048179910203 8.241677869564153 9.203638406213893 -0.09582835725523496 1.1260668228793318 0.7099031800975903
Ni 2.178846137716681 8.029882836592897 10.049438460446684 1.3424549786982105 -2.1950129894862713 0.13733778935293123
Ni 1.8936332469386181 2.3842380650399684 8.106178303121379 -1.3667616737643753 0.5262030014300357 -0.16434619962097502
Ni 1.0838014073168178 1.2948197322065154 4.999439750181065 -0.7591863426034344 0.1353053323039347 1.1160994272539746
Ni 7.58095503750199 0.6150817602208384 5.553319755190043 0.051155954048524806 1.9687659385954417 -0.9081565739889714
Ni 4.7305879309795325 6.721290744013385 0.3313161986484111 -3.2972765392984176 0.4432646127635914 -4.608042928644097
Ni 6.478758909521927 7.441611713260481 12.615937707259143 0.9289118042584519 -0.6020135208024471 -0.14843312793514438
Ni 7.440891837477574 1.037331531120173 1.9871792105175143 -3.6604644012140763 -1.733781250721298 2.4306214269873427
Ni 9.32062958739612 2.4297417921595525 9.726367681127499 -0.4061052301044748 -0.9357812776847755 -0.34682356162502204
Ni 5.098520232443552 0.4712297402863813 10.978806621025278 -0.7321031132333972 -0.597842677254209 1.9745861448216444
Ni 6.459151766487468 8.509717934099957 1.288306750781156 0.8496562637602334 0.49190037149342386 -1.1499410583937681
Ni 4.5155534569851925 5.918326140478533 9.358948764761289 0.5439695813848373 -1.2912085218184084 -0.2094747165284973
Ni 0.08176273365867082 1.3597222172655068 2.5451501938243597 1.7334020130050085 1.9565997355465532 0.8729116347437482
Ni 5.606231572438734 3.70267161733581 9.91202553994934 -0.9275627464297252 -0.5333704657127524 0.17774190420159067
Ni 8.742455669123961 8.575141381896579 6.503219530861147 1.815283164051532 -2.3430838489859904 -1.1136417097421014
Ni 6.300305491759026 6.739183446038551 7.652792010201333 1.0513389950481378 -0.995292545676531 2.4430285424024443
Ni 5.635983280782326 8.971224615292197 6.267100274067433 -0.9760964323640545 -0.6411655084115603 0.7283027656507005
Ni 9.482374309355741 6.231926764432572 6.396915663440167 -0.9715805467715718 -0.35966236526090317 -0.5500587250017107
Ni 0.8407069330687189 2.8945542187233033 12.329799397218054 0.20267723399068965 -0.4323816473025005 0.2974954048138554
P 6.645107047672248 8.222620105416649 10.276076195415522 -1.0063472608287958 -2.5733875864446967 1.10924795154978
P 7.740814821556368 6.735233601282333 1.0075457233973908 0.6038598299825664 0.26607960950673526 -0.1967130459874548
P 5.39000362017273 4.9587696100617125 12.87483534935202 -1.2773641597361485 0.6559575791190703 -1.0452089708909997
P 4.655379855765232 8.5865078416267 12.631035207395676 -1.1469426378870764 -0.35318267107383045 0.885341890087301
P 5.769368685715296 4.539574575214848 7.827373254016172 -2.2740798110124514 0.9387992385754929 1.0687448492294112
P 7.716130659842455 2.4776135317229127 11.687609577745853 0.0995140336369383 1.037093540872717 0.3842940477666543
P 4.537377059667025 1.3313439561393046 6.955468230603204 -0.5414177614972612 0.3683094994129399 -0.7088292303071212
P 8.928344645960316 5.774530952842727 9.806012464456456 0.09760833197379318 0.6461853302236549 -0.8251045425627984
Ni 7.5301564345581244 4.679486222442864 13.067340552956281 0.41454204801791833 0.3184488671370709 -1.302860247124724
Ni 8.73103237709519 6.823541521335598 11.719065307843987 -0.44589716529043205 -1.011862019999438 -1.888492241245354
Ni 2.378981077414787 5.040892281611838 9.758905119309947 -0.6753447253964304 -0.12482551581853342 0.3138411931617305
Ni 6.110409837867803 4.276734666005574 0.974325350426157 -2.166428750090675 0.31721293784744076 -0.8001465870658799
Ni 5.274491973165376 2.813284031652938 12.178481507650861 1.0673145445407877 0.09740007261772902 0.5670868841285911
Ni 2.693491018147237 0.492422504453192 9.191036791193099 1.422614776178253 1.4750547391455242 0.484390950490256
Ni 7.3534742901031676 3.2837417998826486 2.4424362332681433 1.5866138768724547 -2.3464023718362625 2.1838451457949097
Ni 0.5213084674473397 6.003678781001967 2.263239259597897 1.3621838245857056 0.9625557175651422 1.3935800795088
Ni 0.289376803859197 9.459224619705395 9.108910330823065 -0.383727633740223 1.35403471311601 -0.006421073034995393
Ni 0.11574276502186771 7.377362799635972 8.441849750256383 0.6491912069295142 -1.72420774810025 0.2966040033478376
Ni 3.4768958388965054 3.9843040732988846 0.6537021487688572 1.1866803227963305 0.4688620016167216 -0.15337658798334874
Ni 4.07729118594105 6.453856890663187 11.51266839603956 0.4003876108944073 0.6523670335543346 1.0434421087985641
Ni 2.144604677779691 5.495844304359708 7.18521090348832 0.119066244737253 0.4766694134762823 -0.03899952119164896
Ni 0.9343457227354113 4.284624883468234 5.2138632769649105 0.4426663170579602 -0.5025434530295667 -0.14140013234776294
Ni 1.1872361908609197 3.6763203748614792 0.7584033453678898 0.945379977116804 -1.1177513610351009 0.14344698757446264
Ni 4.526465258326109 3.3589688191964995 2.672512322305343 0.4671835854730342 -0.4165187121283149 1.00745077830562
Ni 4.229260752532769 7.020219162865794 7.40823031544307 -2.9099398480506986 0.07627280372081058 -3.1553202773368687
Ni 7.354942457818308 8.558555822740377 8.28480695380512 0.2739703251087217 1.6636053039268444 0.6654560055278088
Ni 3.9330602840155886 -0.004438602524612273 0.8722460172048723 0.3905798807753661 0.7995454631467713 -1.6204822474851255
Ni 3.7074076422233606 8.19077507407276 4.874891767688262 -1.224617464161736 0.8180116402717589 2.8716098421222482
Ni 0.21555354232201573 6.382248194363424 13.792987655791919 -0.8120675068731821 -0.029946666960761332 0.5900892585610353
Ni 8.973962037677202 4.258804075781308 11.229191731985274 -1.047476169658622 0.5553073749951597 -0.26062835658417693
Ni 5.72707598346947 6.557935773591995 2.0281732947391733 1.9920094825044148 -1.5577301039585687 4.715537666493666
Ni 2.493412910747781 4.867961068867821 3.3026963186876026 0.9802971007089633 -0.16655426301588735 -0.5588914928019924
P -0.17822987738820822 3.796776431851437 3.340321194804259 1.0710948375188263 0.1285315039152109 0.003982895907147979
P 0.5869658748734065 8.708943557019655 4.545181081476731 -1.053172705822767 -0.9406959413775735 0.4451942256861364
P 3.057227201560886 2.495373625051227 10.212041350115928 0.15714582521779388 0.5392464648775552 0.10735229873443446
P 8.626423059378975 1.3006829310173027 0.5051813555002529 2.9318052806652215 -0.6377513405236888 -3.3771095495666614
P 3.4442835715208333 6.984860001055342 3.2381765044395254 -1.2887340921359869 -0.9229599575503912 -1.6639644870384762
P 2.383177195465157 1.558066939556119 1.132126858064405 0.0038484272118127264 1.240891004510779 1.038090614678664
P 6.204969310772636 4.730209048988529 3.237150681448882 -1.277053313363949 1.346414991787223 1.2463785099879114
P 2.3517773504606976 7.811125847036942 7.978621997620006 -0.48300384033474236 -0.24587305265187331 -1.2745575435252887
Ni 7.139472269534314 5.079386691897848 6.329719995130624 1.2384638831265253 -0.619776758323139 -2.1178477558581785
Ni 1.2953122787948208 0.7804542772443246 11.25629410800677 0.2652476005237432 0.051841667261639746 -0.5489973736167318
Ni 8.471071971017546 2.7999000253207202 5.290970498159119 0.02141394689940183 0.7340406965757423 -0.47980564511241885
Ni 1.3981313791035406 5.682661542074023 11.855299905349307 0.11290125357712168 1.133787588562357 -0.1677616530604272
Ni 2.294859803362116 2.4920489355801667 3.38361603991629 -0.736401483498435 0.8927826626360624 -1.1951076276280774
Ni 9.264081450238766 8.649894798721675 1.7799923297618452 -0.20687353146022439 -1.1016426283986964 -0.2036714795831589
Ni 5.3311064146711535 1.3050969062124997 9.01354478648237 -1.5612987951464337 1.1599704176053118 -1.7561328789436206
Ni 8.727698215574353 4.554587774108383 1.1792900883045876 -1.9629943262189873 0.013238353067144944 0.13092391540678744
Ni 2.0269049872742877 9.481521824875982 3.237802358473409 0.4640360409829879 -1.0865664507918642 -1.970139936124833
Ni 6.917665279950776 2.883396144088234 7.254763217781909 0.39307822171718754 -2.82618153458612 0.0995744545612285
Ni 3.585038231178832 3.8767110599035135 8.123770741168673 1.9473797596101818 -0.2287777877324834 0.004588390701630807
Ni 6.648005494903429 5.880580022124756 10.741952333169017 0.07474299733984546 -0.027986200800280834 -0.42123591509832614
Ni 1.7591301401321855 6.505280648892209 4.735912170158117 -0.6801997394958866 1.6800714199026676 0.20627446442364475
Ni 7.403202551422447 8.389091380214047 3.556478106696948 -0.25761553789978214 0.3785165218529287 0.774899382463317
Ni 7.577933453623734 0.515519150624798 10.813832877297324 1.2246220921474265 0.8594279984350167 0.04008786915982128
Ni 5.272275513518003 6.536083754760837 4.376589014734687 1.1714295672848472 -1.42777523733327 0.22687619983439636
Ni 2.098864149415729 7.88419323900207 1.113900739887156 0.6571014629155263 -2.0759395456601664 1.225089004481516
Ni 1.5123927155405827 0.15224141442026393 13.646410527137165 -1.048994406075361 0.4440050904740418 -0.6142265179288712
Ni -0.3700852983778991 1.3175715957663077 7.154808465325179 0.4497561340252061 0.9922864118603555 1.4923636627376167
Ni 5.820565114749717 2.875591175073551 5.310837175357416 -1.5805021075477617 -0.5605297997363636 -1.870966573656765
Ni 3.135447388603669 4.259770224858369 12.062860932071093 1.0118630484407027 -0.7486800437554718 -0.334188903580147
Ni 3.0489296859578974 2.094753279813335 12.907441933497827 -0.20556638261302662 -1.3358703835021575 0.13247069106861703
Ni 4.684515880873442 8.774622750160203 2.8785066719943275 0.9434542208490011 -0.08990993488827097 0.11210241182491015
Ni 2.55482020943976 0.30325335677971976 6.886858385262238 0.008928155727565269 -0.06069346122531482 -1.0866626100500962
P 3.6394362130372366 4.034960595496123 5.112799347479516 -0.6662232227111364 -0.27820493201535956 -0.7827206782799487
P 7.336585625354163 1.2413878994251715 8.679799954271624 2.937161916991445 0.35459112138558285 -0.14298341767448278
P 5.6476907343043505 1.9244931851058966 1.1249555691796762 -0.7352162049410822 0.24825929349586273 -0.5318956809394388
P 2.1642781251625753 5.667828312126215 0.23827509532252775 0.8413965948546026 -0.018487774391542353 -0.12397602333404453
P 1.1782945758732244 8.099180352747535 11.766727715107315 -1.9470977095933883 0.07961472360984999 2.8911347995290533
P 0.05175717438110623 3.546136522752493 7.230807456695702 0.015394737288515422 0.2357660461248585 -0.050047808586010586
P 6.844039037048917 7.196086711040092 5.737701728907179 2.189256032397836 0.3220903205444001 -1.4268596674975362
P 5.957379401701274 0.5867375984738266 4.333154930490963 -1.5814518730555407 0.39028086147770846 -1.1803070722801348
