# total energy = -340865.72891270666 ev
CRYSTAL
PRIMVEC
9.29975400769968 0.00000000000000 0.00000000000000
0.00000000000000 9.29975400769968 0.00000000000000
0.00000000000000 0.00000000000000 13.61113002380866
PRIMCOORD
 96 1
Ni 3.9946813925548197 8.0621240596974 10.543807099285148 2.192042336893721 1.589306078992637 -0.023587814622269054
Ni 0.6976489387812683 0.6142571154995824 7.504319240354525 2.4262693206662345 0.7349164143124762 -0.9568319277074875
Ni 8.35731684829207 7.853511979999975 3.5006059268028205 -1.364801978934843 0.6876867919015511 1.913103354925815
Ni 8.465900774939144 6.0464674980952715 11.992058705583647 -1.9033390764501992 0.24031381339654095 0.9211113343774266
Ni 4.913227385947933 0.8542372651336786 1.8190597639557495 -0.9421748399159451 1.3018361767355837 -0.012571151796791252
Ni 7.005318624932066 7.853530579507794 13.171340969361422 -0.770790502501266 1.591721373302349 -0.7154593340291292
Ni 2.3751199494652058 4.072808625148349 1.3139622298702365 0.23133552115733064 -2.7081470735474906 -1.1797838527868134
Ni 2.9474826035779778 4.9533558240673345 3.892946734662078 0.3307670223827916 -0.24443246355060486 -0.48643549172411066
Ni 5.752325581692372 5.929318498097569 12.434434049426683 -0.0989519904858812 0.6850066739662267 0.029131113038001442
Ni 7.436250621589488 4.273153223620247 13.557311445792687 0.6867100298105786 0.8330047712464815 -0.8794406941115177
Ni 4.172232294194585 7.389277564592711 5.8197655370931285 0.45097020893796524 2.584120656591485 -0.2858223393513013
Ni 4.321391047148714 0.9992213585578414 7.473790008220489 0.4504313057153598 0.5076650905268483 -0.31213758020706245
Ni 8.378687682776052 6.478794457839115 0.6885602892855348 2.1575659003834065 -0.7442690591719698 1.2118735342325064
Ni 0.30805155832530695 8.14634263110164 8.96320139534695 1.84468012915641 -0.9197082833823128 0.9903380298847331
Ni 1.8694923294068522 8.871965229642617 10.816125283188674 -0.8315037612209227 0.734629993420309 0.5951345342944266
Ni 0.5528545603368588 8.11705770604069 13.364782360506316 0.31430013507602 -0.10957424608641775 -0.6612823337660934
Ni 5.84297958280197 3.5116614742504084 12.142366908120987 0.5921564255027093 -1.0423095378560179 -1.1511021685814047
Ni 0.7390914321280779 3.4797168195713493 2.7875733351044922 1.3354541219003453 0.185484524261487 2.042797511690559
Ni 5.939511028382357 7.80062427951677 3.8275992238909535 -2.1307163842907304 -1.4443531962966094 -0.07673817339300333
Ni 6.266378778792713 1.8904167757031791 6.023782608383881 -0.13699480419121565 0.7841417269971914 -0.4463190833191991
Ni 7.040759987081089 7.096911901186521 5.8390383470951335 -0.4385834052378382 -0.13805307025240093 1.0641790842355996
Ni 0.002394686631690749 5.73185682333761 3.464114622437417 0.07597558419536592 -0.3479404488382846 -0.7862744570694782
Ni 6.321033432518719 5.71740500576228 8.092211553520736 -0.48699059289663227 -0.23023817432809382 -0.23884597060176288
Ni 2.5256643657518456 8.881720671493662 8.243036822375442 1.974182224515007 0.7028678705173638 0.6381326351225074
P 6.478896755132119 8.763530099058096 1.894179456134954 1.0255053218144854 0.0011138018894690496 -1.119765306141336
P 0.6914032240556625 9.082613955446218 5.561290036883862 0.34541562553390187 -1.2115166651137201 -1.47322668479785
P 3.3903554842551693 7.352450539111175 12.371305459938357 -0.13414910721230444 -0.25372160216201467 2.3673578910420066
P 1.3638926086102272 5.482270027915022 8.150875331157117 -0.8055772711631481 -1.9159595934276874 -0.3471248949155248
P 0.42546467133403854 7.296503219591752 11.090008615675167 0.8623950514831407 2.382743115248825 -0.42903098566271275
P 3.0552574516349256 1.6963495111201787 9.15291358517414 -0.301629481586887 -0.5052814207860201 -0.8475654426694759
P 4.493724786845262 6.924764156568163 8.734316782102253 -0.014220514474756155 0.37556823785788224 -0.701294612492973
P 7.031320736862969 5.864043525406939 4.016018747924727 0.7765034937256433 -0.5967682132431077 -0.2663868563345089
Ni 1.0343093300583044 5.361122133736243 10.613251151653397 1.5884727844580642 -0.21372809248821253 0.3152429586052635
Ni 1.723607089828861 3.4001016263523027 9.686333519790972 0.38956609479887105 0.30413862116198587 -0.8333166460599455
Ni 6.817528694237965 0.6200499322097967 3.8305258564462665 -0.44508341113988503 1.3946072352217338 -0.4980748757352519
Ni 0.3057600989620114 1.6644606549645766 10.39869931913399 -0.5340752050892609 -0.4029936810586866 -0.007515077430122541
Ni 3.758049154328136 3.0532859038061164 5.4016858003386075 -0.16469972630565183 -0.34702256500970563 -1.6061262358737696
Ni 4.695120257508932 8.079198407875202 0.5739743014652847 -0.301335604495552 -0.7872224228050442 -0.8696231938004636
Ni 2.413620930650447 6.866631394880011 9.370174436007382 -0.6427359382224737 -0.10720548874392503 -0.19342769036796367
Ni 4.4083437462023385 3.5201893485854003 7.416064575753573 0.3850039293494853 0.8003751581369184 1.7838396008302697
Ni 6.927349488154998 2.009807016393066 10.408308754848653 0.8414662717502734 0.163486422723841 1.1086504271750972
Ni 1.3768192665444023 7.3259834394848 6.788864062762778 -0.46221492861384916 0.6865285099273919 0.03763786495743196
Ni 3.2159014006672595 0.009993515551125742 3.2685631171304643 0.44490934745586597 -0.8894641397857906 0.6495442193935588
Ni 5.005304249405682 5.336626581938677 5.706874894410577 1.255984922729424 -1.2455153906566678 -0.374645983153929
Ni 6.5934325242812575 1.9092859763855112 0.3496902764796066 0.3236401815300232 -0.5429740502407875 0.041865529885534346
Ni 0.8592265831061139 0.48772373383182516 3.0255363681156227 -0.19318009313353182 0.6188830428642761 0.3830185234883403
Ni 3.065598777982266 2.499122868094194 3.0641098873813584 0.16778093633413685 0.1256528968158352 -0.6451342632513212
Ni 4.712650293628299 2.953806436236423 10.089563409502835 -0.15862935174185583 -1.461960624965727 -0.4545499558694236
Ni 3.880638510362883 5.531093735939785 0.44103710925546047 2.4490716632727305 0.31408467663110423 -1.0934274395777555
Ni 1.441471155723098 3.5615546539747616 12.500420453291387 0.07620749770051391 0.06326996370323941 0.12152421935944234
Ni 1.8109596783005935 7.0203935260193315 4.362571287435276 -0.1694200145994566 1.6852640198472006 0.4774389446524552
Ni 1.9965455673181491 2.838080298586871 7.245109059586409 -0.10646603947473922 0.3881190779396993 -0.07007567377116318
Ni 9.083516031575439 5.701297831991063 5.781599347048629 0.25431295588911035 -0.8235217714567107 0.7141925515015636
Ni 8.387150458833679 0.3546172861008484 0.9654390725062694 -0.5008251847868794 -0.9151247777766885 0.48086108296012664
Ni 8.950036663712691 2.5869218447535816 0.7937470158294747 0.9442258089077029 -0.0552424654130726 0.5485482018944553
Ni 7.850108270069105 -0.1365947854224222 6.960949499029944 -0.6303398785509661 0.16200161064819843 -0.3732789276030733
P 3.6729843053181344 6.978907323829147 3.179982031167289 0.2624589820350125 0.5752349671570222 0.12492656017277196
P 8.136949879653065 2.2518889104107043 12.481038836168642 0.10028202215121439 -1.829531960661062 -0.7191205849308002
P 4.728413376504865 1.5611589885380879 4.054782912145607 0.17850269362701515 0.21199285496466067 0.18703592790900692
P 8.507200982051137 1.7073697195029112 8.204666967720325 -2.752175929632931 1.7220737324763828 1.881401910057476
P 8.05017387592372 7.178377745433555 8.065860700818227 -2.1498595328780845 -0.6909358949664681 -0.9755863254968553
P 5.916047749268744 4.28150440263096 1.4277391391003618 -2.9275575611324616 -0.14134022564410498 -0.8412657257036931
P 1.3334359145566848 4.110686522821656 5.136853918332212 -0.27936321398951885 0.1719471518966845 0.3017984030645835
P 6.61588213021874 4.180323080095832 6.487690602428922 1.0083702047960956 -0.8085810909864785 -0.5206242217906776
Ni 4.346500382704305 0.6597729010587436 12.732177760518724 0.29420053611266755 -0.3201684209313389 -0.41545478964017474
Ni 6.550337464664733 3.003504321128677 8.261534032901395 0.46765384024123335 -0.5946347118398727 0.7015301255425466
Ni 5.391364933449869 4.277180017063052 3.5832798090826947 0.5226014001217064 -0.20248208726074807 -0.3384746754396945
Ni 3.9179863220633493 4.984537898925815 9.535195779204907 -0.19009554067093712 0.5679770000430283 -0.06674378118445279
Ni 5.960286678616134 8.499751879169645 8.329398987055816 -0.8833528846817302 0.4310192197373351 -1.8305727432207506
Ni 8.654899673641477 1.3844357649962655 5.121677649927333 -0.49218267862053305 -1.6065489252334848 1.2778477842407865
Ni 2.888503564284064 5.640988927888094 6.379604212616007 -1.7629272761576347 -2.47949064188422 0.5714593021646739
Ni 7.869916745896295 9.301799855338722 9.605714883125092 -1.24666750198324 0.6441826979713293 -1.529997671040307
Ni 8.698422521937838 3.8830006478558907 11.338126049980056 -0.7745378853588403 -1.415366579256272 -0.45893857185542253
Ni 2.152753533735662 6.176366460702869 1.7393115842557973 -0.9952449802680472 2.6360811088191762 2.9801762157694416
Ni 8.279487207823644 5.2610381821624355 9.551324342410114 -1.2737885265697482 0.9449068941351275 -0.5233938141160147
Ni 8.399295937439458 -0.1623681234071513 11.771749395418881 0.42361572818441234 0.7354807714563785 0.7824949354223878
Ni 8.048620817020836 3.421342264281552 4.532995787654208 -0.895387190138445 2.954867304691008 1.306077211400125
Ni 8.818073155737189 3.8117087343858276 7.733135965395683 0.902835161776058 0.38174839852666514 -0.4534011869769611
Ni 2.4674200070167807 8.571657576397733 1.1347476022560645 -0.5685269590092273 0.5030941833267143 -0.16389060014079518
Ni 1.6126052271653237 5.947397219697597 13.191009018904579 -0.29401233136126137 0.06685253884817519 -1.850934337596238
Ni 1.1519233177514807 1.1438325318502343 13.03712134108748 0.11487380392246022 -0.09777133991421871 0.18057500277501157
Ni 1.5500178833545324 1.9287224620563215 4.921648313112966 0.2907629711860283 1.22924416430047 -0.16979899520543015
Ni 4.560590017454413 2.8814264515589505 0.13948049906053342 -2.8642744848030994 0.7939157756648197 1.908034682153656
Ni 6.255628263273356 7.202622203875565 10.140726935611225 0.9389002829297314 -1.0263535287473937 1.7325455785419839
Ni 6.302387425930214 6.626279255089536 1.3867969725138822 -1.518278582831166 -1.797240704727524 1.555180855174154
Ni 7.843514744547286 4.24886226640869 2.257283697653593 -0.8950879137304714 0.5151158903779387 1.5081252964472478
Ni 2.8303057043185467 0.18389984363376716 5.582114975813358 0.750291868327282 -0.608477531260236 1.2624121664120065
Ni 2.7030106728056036 1.8002742610586027 11.29168400893151 0.6399542617122785 0.273584916744845 -0.03564423156617087
P 3.4117170189852417 4.025909966182849 11.627239589444102 -0.2916474306735106 -0.3073483863485352 0.3268730866450241
P 2.7644634466394384 1.7194779990930524 1.014661739973749 0.12328131125986509 -0.6433925979698661 -0.8879165927930128
P 6.209789776253536 9.361969263133048 11.109472070632313 -0.9180432369750641 -1.0032236275981496 0.520532947628452
P 5.676011801111191 9.146819456437258 5.873283760891397 0.3694238155230412 -1.5155830382768738 0.718598393878743
P 0.22141505090460398 4.658721020707232 0.9169985143425771 1.7152214854412398 0.7090459743036176 -0.35992693177619944
P 8.544697589814156 2.0238496447963787 3.048239857334833 -1.0676174204931872 -1.2960830763018905 -1.370536053205143
P 0.3029971420755053 8.06053380177888 1.963174330389376 2.2466114303888536 -1.5711072965964232 -2.4538374600924904
P 6.09465882285419 4.7629619622785775 10.517333489831037 1.1669134245820485 1.4630057784007902 -1.8808676348205606
