# total energy = -340858.73188208725 ev
CRYSTAL
PRIMVEC
9.36572778992094 0.00000000000000 0.00000000000000
0.00000000000000 9.36572778992094 0.00000000000000
0.00000000000000 0.00000000000000 13.70768932282174
PRIMCOORD
 96 1
Ni 5.477526991304575 1.1637759322294257 12.554200440093494 -2.2544458388316078 -0.9132152194588015 0.5333645521754814
Ni 7.150245921089745 8.680596427293366 8.899223413819987 1.4504698507173086 -1.031384663413398 0.3531374196581918
Ni 8.115599550707588 1.6427766989983659 9.524541194880426 -0.004067742311470413 0.04036940495598208 -2.369028079655578
Ni 0.39367524304041385 7.8494255754304625 3.2725734362677885 0.7357430239788296 0.2618673711976006 0.3072362862507031
Ni 3.18091012474651 0.9300869827527479 6.687570553909318 -0.44280155708424385 -0.6046080210025007 0.08311296657109557
Ni 0.048920940973347454 6.98961432890192 12.72979565509273 1.528358078554355 0.519311416516525 1.0819883445028784
Ni 3.929896717881167 4.897657339464043 4.748165343553298 -1.5945061351363379 0.7160625148307668 -0.5933080226086491
Ni 3.537266690028682 7.288596447577912 4.890162884326226 2.4056447024373475 1.611783434159547 -1.0364741621211633
Ni 9.120261138602633 4.557409825465356 9.564526295255185 -0.10536689287328951 -0.34031327131033007 -0.7029079797266796
Ni 1.1338524328976025 8.549701019887557 6.093301096052299 0.05251143963515472 0.1845805243899789 1.1361177793574304
Ni 5.2480853992447924 4.0653532345748005 12.418877853302973 -0.3669226463677423 -1.439895674745888 0.07601775028721103
Ni 0.8963862855240469 0.41204237122183435 8.613225939736683 0.25186603701051463 -1.1858290305396288 0.775945050119012
Ni 7.517551021808193 1.7338583988424912 11.612729415576167 -0.7617155367831914 -0.4461501618415026 0.5206792433983292
Ni 2.5552139682954578 3.1395229749664386 5.7808613635453545 0.11629613819128358 -0.9308051646264228 4.078109513637351
Ni 8.34036764474966 6.564129329013117 4.435643192644439 0.04087256984464573 0.6563823253613147 -0.9481343999334897
Ni 3.6918011936202566 7.9642119315527875 7.13636029351248 1.2837199267508472 1.8742251898033788 0.5677980512630028
Ni 2.4489129612794347 7.173051467528865 12.851931297576767 0.8696226795798314 -0.6713626008202309 0.06218392972791226
Ni 2.493325241038905 6.935883150289504 2.739604537980925 0.9053360738210409 -0.5697698302773929 -0.12620079889950522
Ni 2.3725354535952357 1.1494370034416257 10.656083102806146 0.37086260485209677 0.8737603558972887 -0.5399764010650443
Ni 8.694420241069196 6.378940799345467 1.7929926656441182 -0.44074236056236993 -0.7489430676088714 -0.8311918864074588
Ni 7.336183708956626 1.1373552149790116 -0.04203338497690841 0.8708274985212099 0.8276540484575295 3.4160985292353487
Ni 6.425338613332902 1.8556128562176715 4.929038145993372 0.9326558446819163 -1.2230421492548162 -0.42695481985997435
Ni 6.125260704540534 -0.06238511081354433 6.943547125094898 -2.457010458503833 0.6535427990299906 -0.16238419079859776
Ni 7.046145860033966 8.409383690626408 12.152798471873501 -2.0061873166666935 -1.3893557570148072 3.2809279227370656
P 0.8143500052901484 6.047103708633158 10.745539848930687 0.7653076250098239 0.12406961148911536 0.4170936107951785
P 3.5385310632398856 2.3068723381600513 12.126465792461497 0.48735671798679936 0.5662304496655668 0.11713791736628858
P 8.255870051331286 4.515788532498025 3.5686868326134706 0.023063566687682863 -0.0240909795109327 -0.6109961839170316
P 5.093007683458775 6.116494383609521 3.09097385337446 -1.31726870924057 -0.46368045741578207 0.011673579683186348
P 8.168384790843474 -0.2652486414010737 10.784688589840554 3.1677926987722667 1.4114970689985369 -2.9475368324678652
P 8.711109967457086 0.9127847377869855 5.146400759308786 0.38142855329340114 0.8539944861242711 -1.030489148182322
P 7.373927590742932 8.250250614837046 2.4867392614676564 1.385420169405827 0.22343966334902166 0.4081374300431551
P 9.358759389145632 3.8141737890098035 7.064847344686793 -0.1347312049680196 -1.3885522872769054 0.272263369719944
Ni 9.141699288828155 3.7492880289563226 1.3770878684052434 0.09193210752462232 -0.4523861154488854 0.2984428563287892
Ni 0.3978813912563518 2.7779496994721145 3.9219339763688303 -2.147373790341753 0.08601188538544541 -0.7984653427087153
Ni 5.307436014351448 2.1054436370240515 10.506490893611254 0.482171317131118 3.204918914200603 -0.12108250383633341
Ni 1.8925044568023512 4.583100015971519 2.2658532614703533 -0.16246620898944278 0.5172635328485607 -0.6300444587977343
Ni 4.050976842877039 4.16452692297063 10.068270377481007 0.42419731171949526 0.6255136608069163 -0.3281190432369833
Ni 8.76530006671653 8.796338087619711 0.5771526542955674 -3.0327581036312155 -0.6816992068595485 0.877951768270817
Ni 5.7088136316799645 8.703533093917352 4.1737175113569585 0.0006862274337472052 0.044524050554303966 -0.9334359173810504
Ni 5.703625018650285 8.178265633345845 1.0516691107421048 0.26843011201678285 -0.2697429172909354 -0.01303600724835174
Ni 7.568772185453183 6.128969532626732 8.53987637175013 -0.8863618467113832 0.7191362686600841 0.2804183947269106
Ni 7.480865467228302 5.020910313237686 5.689458419248308 -0.36159506350724174 -1.4342819281035362 2.3444401059035687
Ni 7.9237332573392845 8.440627757534378 5.947190127765587 2.188281584299709 -0.21851420102294628 -0.11344041391004335
Ni 2.329443741411912 9.462288140824496 2.7469247905874203 1.5175455613198832 0.37008947413149806 -0.7442672593997569
Ni 0.8964246850067575 1.7583123133199217 6.790048470963761 -0.4183591077711634 0.9668337761152059 -0.3769057257223831
Ni 9.102316404731031 0.5716053339030043 2.9437127737519284 -1.3599647054471997 1.0577564685387073 -1.329145406073498
Ni 5.9900851596716125 4.21858590204521 4.097146133113707 1.3591021003365884 -0.17193378216024582 -2.1945532762410336
Ni 5.139124525621496 0.23764222305037505 9.574999051734947 -0.6594044000170901 -2.198419444064659 -1.499776153151604
Ni 2.6108838524983864 6.092827190241285 6.624117750161868 -1.0482459579451109 -1.169124316190438 -0.20701931300946924
Ni 6.048236961659497 4.03761194974824 8.466814331597531 -0.24442089358637903 0.2438503657948897 -0.33490829824467483
Ni 5.243009174944996 6.298451737292983 7.813958501997073 -0.06712044779758118 -0.17361759762057197 -0.7961706331372675
Ni 2.850131361240616 6.406579061169634 10.485313110609965 0.3583210207416603 0.73142485621945 -0.41829380175086667
Ni 2.1243624065546562 4.9545166710582516 8.650127842621602 -0.6492364583451529 -0.5385458392661048 -0.05569343690756215
Ni 1.7352819894210318 7.56027747061939 8.37134010556041 0.29609646758379976 -1.177517939570772 1.1076091303947764
Ni 0.13949970125123837 5.873247709228892 7.285979663317094 0.3279776325631125 1.1987835338177677 -0.25831822039376157
Ni 1.4594051204638538 8.420622563614886 11.072714680498276 -0.007973505123779815 -2.5492207593905065 -3.1677338205098735
P 3.0838905536734718 9.194325311596705 9.008789313439163 -0.4848804885321649 0.12981731260616997 -0.45767487465165047
P 7.163414133941245 3.7353986550880616 10.27089695516303 -0.9566118412768816 0.14307572027797297 0.8487887735536156
P 7.445528577407028 6.390114112241513 13.214719307926595 -1.0771711256198933 -0.6181919303345224 0.9287110011015554
P 9.119277737216143 2.949726507373513 11.276164505626705 2.00378204965931 0.5376094434947645 -1.2139124190394062
P 2.3751391258375665 3.322810261953537 3.887555200469824 1.435795022313953 0.5317195603728908 -4.07650103149965
P 3.5521300995559444 8.503602909179817 1.3034573285939777 0.8560022605829193 -0.03520765824938452 -1.6655308030843317
P 3.64369881722957 4.3525719995228505 7.280454820670507 1.5808535773499097 0.2779133689168698 0.9866382124356428
P 9.119174714213747 8.156368562473293 7.814342496824179 -1.6797220069830492 -1.1115431753418599 0.031264357330920346
Ni 1.8736887102741409 3.9369772078639085 10.826044832719907 -0.17650494647069603 -0.018753369348103188 0.738439082753754
Ni 1.3951281326972493 8.20611930690229 1.0729489801730392 1.1337420800364022 -1.2200959221422987 -0.6925808867690588
Ni 0.8013728532794524 0.31859769833188156 12.585344293717315 -0.7369038770561502 0.73484776585807 -0.27337382917530334
Ni 0.5761645700453303 4.225966095307644 12.7983480974587 -1.5191928671153192 -0.11465037505774447 -0.016010773605959525
Ni 3.528275591637899 2.1816431958859335 8.557545753233516 0.4681526342545228 0.7611707200233149 0.4020248893875141
Ni 2.851592414729118 4.4038774547152535 13.02814371401762 1.3467620907139966 -0.1964281677571843 -0.18598768915015063
Ni 7.508484997597487 2.5048919144895465 2.756808442808038 0.3908575599167849 1.2301119116174042 0.3820443325005291
Ni 3.1807696388341533 9.451049267836018 12.656857242543003 0.42118963524142305 0.4656627779531335 1.1185496885666801
Ni 6.126899706851353 5.0098587547990165 1.3713991255275757 2.258967380851045 2.716409570666599 -0.06796171275195392
Ni 0.8078174103655955 4.7697589648551615 5.10685397498058 -0.21811773691547598 0.6152768135702565 0.15065173285301797
Ni 3.9934993732684636 5.867094426267699 0.8145616707314315 -0.5140087733566889 2.2569423800012163 -0.24012817974829614
Ni 2.132819658478486 2.1932566979740273 0.1723743413152861 -0.9643143521274617 1.1938758121035051 -0.6333095027022512
Ni 4.131400344837091 2.01328487851853 3.7074775482936855 0.1792164318645881 0.6877860364835767 -0.37403637459438804
Ni 1.027888592071234 2.5080294331988306 9.168387865884794 -0.3239530847847517 1.7343803177578776 -0.6132988639082793
Ni 4.1086884556728736 1.6846040379704856 0.9255446049199045 2.1039355166524607 -0.611768543306682 0.8851991938618496
Ni 1.4636009663795524 0.8401956668726521 4.5314470922892225 1.0581889280904357 1.207512171940017 2.0439830473582283
Ni 4.287302244642263 4.122971190095732 2.1391536999802425 -1.5390273853427427 -2.485230629691791 1.624382868091112
Ni 7.353847471003517 4.023235558050478 13.36203564534132 2.4397002493601594 0.40552930299634676 -1.906587151073852
Ni 5.724819659961057 6.804781696878907 10.239397203894573 1.2508776834098456 1.4138452575157392 -1.5923991160956639
Ni 6.070536758814136 0.8208573127504774 2.4770344946421057 -0.20938781324164585 0.0716594733185153 -1.1282203788872247
Ni 7.911567177329258 1.5872098377978319 7.040241705424018 -0.46706814294109245 0.5496805157266856 0.5519942514615268
Ni 4.8052925349537325 7.727867798332581 12.655336248398562 -0.1680079647432784 -0.655779144559677 -0.8542449115721804
Ni 5.070127211199731 3.3297596317514127 5.985695443196863 0.0900678006223739 -0.6849765920592397 2.043729022365893
Ni 8.156696362935456 6.363665297808628 10.97353911895695 -2.603991427373483 -0.043551145118073384 -0.8898991704406803
P 6.1047403956090704 7.419089128701633 5.676888676383444 -0.7356124119382363 -3.0149406158338206 2.534797384876325
P 0.2504376799477575 1.4012439527484792 0.4692323129964546 -2.238060712605365 1.5486651655428234 2.983017798983295
P 3.882637256964616 0.271837430690569 4.859979017770169 -0.6236958908718871 -1.0111292555984714 -0.6382784166717523
P 4.573069321829302 5.795680754153411 11.510263673967462 -0.8766667309108064 -0.23769128817202934 2.0391807408735785
P 6.20248112769887 2.9714268979687666 0.9821997636548231 -1.6603402600223276 -2.6363019665807306 1.1268296691872852
P 5.91504695101854 1.9466196302418737 7.956257619195191 -0.6819074662156127 -0.8050440243674974 -0.1341784177883431
P 1.4780148209872759 6.88924182738732 4.896359249633874 -1.0329350386196532 -1.3302887756493218 -1.2522894761557077
P 1.360409380890342 5.696994083587082 0.3834516149118949 0.06114134739601082 0.8592058551218815 1.7242846240847722
