# total energy = -340869.87702762795 ev
CRYSTAL
PRIMVEC
9.31050988419663 0.00000000000000 0.00000000000000
0.00000000000000 9.31050988419663 0.00000000000000
0.00000000000000 0.00000000000000 13.62687233628379
PRIMCOORD
 96 1
Ni 6.665580294440358 7.887202996492578 0.21822438782439424 -0.6094041568395634 1.2330702229147796 -0.5180207227295595
Ni 5.286358590203547 3.079330134431669 7.770151265207372 0.25134513151003807 1.4604045933325172 -0.04774487148444681
Ni 1.9244172362816527 0.17473871997992402 6.185265051089513 -0.2843724942786522 0.9271729671904743 0.09797317151237965
Ni 8.76102228827673 5.20093466127086 9.929520151517284 2.0029829507967825 -0.3394470666552928 -0.17237318369050958
Ni 1.7259078533090262 8.065359604680806 8.604606651908744 0.23019009469897772 0.41549644151138765 -0.3132200146379638
Ni 2.74524110534266 5.592851267755065 0.4673950486718369 -0.3773021898298534 -0.9378569292668816 -0.4100439030372487
Ni 9.093705430360961 8.593740355728109 4.719844783490893 -1.3053824993259453 1.897195939666939 0.7674894631524911
Ni 4.269613659940299 6.072044594655076 10.038930747273874 0.21478944387319138 -1.142520854670297 -0.12364666501908382
Ni 7.076648619923423 4.070024257811685 13.474550821807084 1.1502606465167158 1.9003504261355206 1.7293057314484477
Ni 8.252370507846143 6.013369760853028 3.6415229334693753 -0.8425250520320909 -0.05880138640892454 -1.1244714533677538
Ni 8.459361765397263 8.707654445154969 2.127822085394095 -0.6254606960817938 -0.655345142346052 -0.2918394920796587
Ni 0.6109686986445252 7.109188852252551 0.7289626535382306 0.042785213486326315 0.30102115857892675 -0.40944046512529486
Ni 6.5176735331297655 7.238902877090721 9.01935449093014 -0.14618469822059985 0.6185056049201993 -0.787819690069411
Ni 7.285716121196832 1.7538859357551 7.024816079894958 1.16214557087976 -0.3614063445352034 0.2771029572004325
Ni 1.1724073463750324 0.8068087584100672 0.6049150050650121 0.7856270532934664 0.5126124072297946 -0.09397587742752847
Ni 1.7498451744301098 3.0625805270038864 1.4160913236998558 -2.629790390714458 -1.2419718962797834 -0.7334238889273498
Ni 3.0500951331402644 6.861817912981423 2.49126435925107 -0.5437626075803539 0.9930400021969286 -1.1613061056976
Ni 8.484034616805616 0.4416319365465354 13.490698970291103 -1.638218488422624 -1.295652159412059 -0.3209394947694086
Ni 7.844737760540316 1.0060471543129859 11.080800088678796 1.12832296590336 -1.6845315125565505 0.6949853824454935
Ni 3.4064642125765126 2.052874342274492 6.1874995734812135 -0.5093635612751938 0.8024582659181922 0.4661857403361391
Ni 6.861566529212356 8.822602001187988 5.808181949082208 -0.6986371202654678 -0.5181546772042624 -0.17845744221137652
Ni 3.3912322182730925 6.770854230619312 12.074321813935308 -0.967209928507702 0.1973481084682924 0.27447708954181116
Ni 1.2122004659672188 7.821079754718195 11.84855218883494 -0.9290285323419742 -0.006022552044996079 -0.3627083511760786
Ni 5.02442601334651 0.8346118032687914 7.662990088658428 -0.2935690731762557 -1.597561891243526 0.4244737053093335
P 7.184417772773109 7.919892196981151 3.716524677546777 0.10546305213152159 1.163435493335777 1.1014798775685868
P -0.07792896841052883 2.8257118429737473 10.000925245595047 0.8572649293454268 0.2301947226846681 -0.717770498660809
P 3.339465782865382 3.954518071180738 7.472581780406709 -0.8368423998250168 0.056035136517697044 -0.20694783634158553
P 6.613050397215482 3.623464268340455 6.087437660780899 0.2929352962469987 1.3457202797130439 0.47396127051649994
P 3.7180590495890775 3.219518482980932 0.774905364962574 0.17522942219238208 -0.13248431791537182 0.020827735378628646
P 8.223647584602835 5.829859609434686 7.891484900025672 0.5090311176364395 1.275591898327074 0.8416804446436086
P 0.6032484237812025 4.759681662479917 4.328970954122814 1.273926080588877 -0.6360968356394012 0.6354013522342735
P 4.105273848540748 5.68648706647725 3.851090409127926 1.4558421707728153 0.013543028791757323 1.820186257780104
Ni 2.680588924142814 4.791886716450289 5.395300867308877 1.4757792760163744 -0.016140100094972205 -1.9925041627526459
Ni 0.629893241200229 0.4955276855833368 9.62013562957051 -0.28626174088156503 0.9542798507095953 1.0368955659292982
Ni 4.46797407475348 9.15683068792648 5.3895506963542354 1.0386459729615016 0.4266683989678071 1.4245019658986369
Ni 0.8248096983772019 4.483746078634893 11.619974513929005 0.5283210762143031 -1.0541975475428553 0.036934925353136396
Ni 8.68730167037057 3.7008997797228167 7.939288782392102 -1.4046944442544067 -0.09237562281994413 0.8713921127754283
Ni 3.0446019322606688 4.283793566617628 2.666915509207605 0.6022228085997758 -0.023121159398495662 1.7603366326123233
Ni 0.5376065353720327 1.1410961013613397 2.9034229454510854 0.04452970698125879 0.5588431560625602 0.6312382219955194
Ni 6.3144902741545 2.1946547880278415 9.93975426407127 -2.1565881098511697 -0.3256641539385875 -1.4389698204975088
Ni 8.857842281407088 6.122274795918494 5.758430308031013 1.5833051242141958 0.5072220894521587 2.4524495786060276
Ni 3.33942854082552 2.100600016357213 10.624409131735083 0.7770650226560682 -0.8081877122028017 -0.6123704385567389
Ni 2.7858814813416997 8.577661105017835 0.02517561894648386 0.009242601644190534 -1.6928678003363877 0.34214981029843655
Ni 6.2506015547718174 4.974223743612989 4.376311173092966 -1.094743844396334 -0.2622422380385161 -1.175976049004949
Ni 6.761310957904762 4.678047111103153 9.197457098160571 -1.5765086701176527 0.06690396091140091 -1.5439765018179021
Ni 8.45770449462342 2.5517407767314273 1.3402097364307215 -0.6864050969756501 -0.00020723091479964313 0.8096452705849347
Ni 4.51088621518408 0.6725391010458188 0.5051044761337633 1.154066136305735 0.48936552088671204 -1.1435564950236627
Ni 3.184548207550831 8.912187728075219 10.83298224492933 -0.544004805498147 0.959104268681432 0.5124054334253111
Ni 5.037460727298091 4.97927935052421 1.3985940823218501 0.6231767851436235 -0.7687253924421212 0.4110381486297179
Ni 1.1679569226115636 7.068976759711921 4.094357275606298 1.7107040571868604 -2.258235902001659 -0.3187663983774897
Ni 5.5203782581842695 7.066919137009563 2.754849551626969 -0.2918778015167618 -0.5125177906334593 -0.62227381371338
Ni 3.186391688523983 4.414773820811095 11.513195068288644 0.12601413680999587 0.5455261272386799 -0.7810687444988226
Ni 7.241258436111972 6.515504184307823 11.288759639266319 -0.3696981522303504 -1.2548006726133356 -0.10911864660623788
Ni 2.357290776103722 2.5021343796356925 12.75105995497553 0.0017162113601583346 -0.29046523743995134 0.03872621292560427
Ni 0.6767763141310794 1.8568415549526662 7.591693927547261 1.1205834311672571 -0.8419655799841951 0.7048406779730184
Ni 5.515210925153464 5.890945865317777 12.803822614949539 0.34544185078614703 -0.8727869362404258 -1.0938786681825612
P 4.505839918782825 7.069814705608809 0.5601407626413282 -1.026595983775503 1.2835985706816346 0.5541424081527812
P 1.3056035019402683 0.7427924850408589 11.823260188513888 0.44217677901605135 0.350320519034687 0.4344333876252066
P 9.21304754709766 1.3609824152145604 5.6754829747491256 -0.8493284481071695 -0.4817625117284735 -1.0011019532694565
P 6.980350015351129 4.133475383225992 2.210496620733996 0.77334977858801 0.1705394729158805 0.4324934902900165
P 5.539073762194824 4.296046197732115 10.768104749388318 -1.50324714241934 0.22861786511585142 0.713299607373649
P 5.1738783193113616 0.8087118266469981 11.445578420715808 -0.27667769673755577 0.7211383866917774 0.14145849638952412
P 3.7871988965922543 2.2982807639429175 3.970761186866403 -0.5794690598430279 -0.36548025749426094 -0.2472485928431613
P 1.6736386503631828 6.0672124399830265 10.345644083911571 0.7541474946279464 0.7109755872261627 -0.8664707642144108
Ni 9.103388360724994 2.5433054547027605 12.634004499486338 1.9486532270059664 -0.5457639542810988 1.3445943936387166
Ni 2.8099119075624372 8.8359253409485 4.026454795377526 -0.7905437738687933 -0.4093440487567466 -0.6306532960263268
Ni 4.940519697538184 3.461414842392396 12.637507113335328 -0.36524551577563547 -0.8841805227893482 0.28744933343176304
Ni 2.9699968159077934 1.0328241809735212 2.3130248875241497 0.16432948745042666 1.054750334722532 -0.38927196059721997
Ni 6.594950765842715 1.8737215095199649 13.043396933175629 -0.4965442980233384 -1.2905955708247578 -0.4886970340647777
Ni 2.164758740528892 5.848285108656243 7.940937673706977 -0.27992320025804696 0.22010725654167898 0.09209974345073815
Ni 2.0850887067548305 3.809972403967661 9.335811276246647 -0.9359946792471623 0.05056588587300969 0.10401192150729184
Ni 4.578266375803793 5.810773064005583 7.543646109819737 -0.2996013954132647 -1.075893030238418 0.9759120842673902
Ni 8.746060298762307 8.86449929603236 7.311757617570098 0.843234933614922 0.05185349433618167 0.31562965252072095
Ni 4.040491320201387 7.997541850092717 8.837735304085776 0.08109799302359581 0.7455911204175031 0.5883789607381479
Ni 8.924151733380777 7.491804259281306 9.650864036660368 -0.15643800051749185 0.9077176866793398 -0.04007449942338259
Ni 0.7550218398804324 5.157529063812092 2.2194905733605874 -0.001538033911081222 0.037755364371902723 -0.8422715412603882
Ni 5.5677687539082354 2.033741244295563 5.202930834607445 0.11734077740571404 -0.6157547816479395 -0.6665386970690262
Ni 5.294570459993045 7.960588436039982 11.285040090535135 0.8721536735318013 0.44163967556565875 -0.14405042548641642
Ni 5.34466100360698 2.318046976599495 2.0375445876164355 0.14744633854184286 2.7463004446887607 0.4112425513310401
Ni 1.4095553457041339 2.539869876525522 4.564852724096619 0.5061054593492122 0.7266284632720711 -0.0007762160443922115
Ni 1.1957208633284333 3.949890747727927 6.6654071189550015 -0.8847461654848312 -0.410876426240873 0.5707759029444042
Ni 5.23789738583356 0.22386283265944992 2.934588015458321 0.08585119143786504 -0.9938056767183596 1.06871039644705
Ni 7.621248279330479 3.418344423292383 11.336753456036044 -0.8062889525181921 2.3974457115663226 -1.4379241528418139
Ni 3.545041842901759 6.926656304380577 5.699208016242998 -0.12192993943829325 0.9695617165693302 -0.5388397163574398
Ni 7.433464603838011 1.2131780695135874 3.8303912833728138 0.41143795517129783 -1.120931301424979 -0.3291850226076524
Ni 7.642736936330659 6.245527326840666 1.4575026099240314 0.09913402458970025 -1.424470084219437 -0.8088816529460328
Ni 8.126222408324727 3.406743527875475 4.422042535941094 0.5320669164099805 0.09366143151090321 -0.12573080124162217
Ni 6.623366442257163 5.911801407640308 6.503547627410237 -0.4793567305004583 0.3949931793517133 0.15321100893976194
P 1.502409061589224 7.494886038079859 6.438002568304706 -1.006875365418124 -1.722826294371691 -0.018761082657587042
P 1.4631745725949623 8.582660848869264 2.2609158253497115 -0.01847029089004561 -0.45921959343095103 -0.4091550726743921
P 9.09344473608193 5.140686351284655 13.303670377156829 -0.46715530333826 0.18470085201792708 1.5188159433918746
P 7.531290132044634 0.2524656503242033 9.043896064147981 -0.17907604963198193 -0.7288925767158995 -0.669489295056918
P 2.8654863415460032 0.9971463067860485 8.412645350594795 -0.2728596085430462 -0.7828536043133871 0.3487164077723607
P 6.655776327446775 0.7466395877585688 1.2795592124140112 0.8976579884504927 -0.9053967518556473 0.20025371215086157
P 8.234252255453445 8.097881215990002 12.10156250399212 0.5579072745118521 0.7902067022443487 0.016137786102127048
P 5.206567519799936 7.844989144309382 7.187493965265682 1.432695814563339 0.7706213239132534 -2.468119166822485
