# total energy = -340873.6210524104 ev
CRYSTAL
PRIMVEC
9.26358008350100 0.00000000000000 0.00000000000000
0.00000000000000 9.26358008350100 0.00000000000000
0.00000000000000 0.00000000000000 13.55818582922874
PRIMCOORD
 96 1
Ni 8.347763850132296 3.267199780271956 12.904491004673028 2.85983676074672 -0.6054076340856606 -0.2793853254767059
Ni 8.358713401556003 7.763157850769104 2.0998238230787165 -1.5167778299159231 -0.4474657953291326 0.6081887963752235
Ni 2.2951908701309107 5.395405359401394 1.5866335401205856 1.5207571262786455 -0.8885560261492245 0.5178677420914629
Ni 7.332095687994694 0.1092704092458708 13.48140545365796 1.1432132527516312 -0.07448434436182011 0.6229183892759144
Ni 3.9106850933822566 8.67306372136317 10.519972360072014 -0.003050613900865714 0.7812716045382481 -0.44020859954608704
Ni 2.4896797298100357 5.57434066845412 12.860643702004811 0.27528570148603554 0.6140007750713102 -0.5463306254178463
Ni 7.694347979385605 8.600177874830406 4.485725520156516 0.5636423772234164 -0.9973591983975727 -0.12866391572801714
Ni 8.70526392504236 6.07778844444752 4.325074665080196 0.034358679985527926 0.7313047857018179 1.5966224101483921
Ni 0.5499991176299576 5.309587555349601 8.544721453850693 0.7744144724070985 -1.1972349583837252 1.15432813171787
Ni 0.6195158001586578 3.492628996765955 6.719030118509747 -0.3203892786928934 -0.11561890961860088 -0.0592425877114012
Ni 7.018995951471962 2.5089016580707733 11.031522989390552 1.0673816503332973 0.33492783862870057 -0.6930094896660451
Ni 4.142626606535194 4.623239658112826 9.239483460696732 0.2566665437229515 1.8984948609840206 -0.2958653254096001
Ni 2.6506251667266882 8.584188935949426 4.25256584624874 0.1888804373169134 0.4384764473463287 0.9433380069861109
Ni 7.370474699456976 4.918312468179946 8.242482338384773 -0.30554578592215764 0.4642694971500327 -0.3070514239334067
Ni 5.4645857739802794 5.154515228079843 4.986849990314834 0.10142847705083177 0.6850663235595685 -1.6764713612562354
Ni 7.380414520673251 0.2021405766638815 11.010209344791852 0.6768843019694084 -0.39367497476092206 0.32924467220099424
Ni 0.7240747526751737 1.1418659109067728 0.10059599304184448 0.4864989979721943 -0.5230765399859121 -0.33866930794900385
Ni 1.2981425035615404 6.962349160477065 3.0250748137517753 0.954653174888614 1.4477845905756617 1.0375506830147938
Ni 2.361610737904158 0.7175189171907767 9.002499781012556 0.6435725751911562 -0.6613368411531126 -0.8626128239209014
Ni 6.723024574156026 0.6748610581797548 8.678621869293984 -0.3016263962630934 1.0022412090802224 0.3866813170519083
Ni 5.976722787905521 7.498923498138126 3.3507026157105653 -0.5471631486214705 -1.7654325590779918 -0.36308553200983923
Ni 6.656410171205201 3.8069329986736973 3.102899074721068 -0.40648395360013223 -0.06733924867660662 0.30021768884102495
Ni 3.286903414686698 3.8391517295126585 5.874016551365943 -0.9196820581300676 -0.6536505282524485 -0.8597082486795968
Ni 4.746361898360279 7.5804707918630765 5.508243173260861 -0.38609022043512864 1.203854520582772 -0.5843315301416517
P 0.9080466701112072 8.398139197545257 1.4175352265474148 2.8199869757396336 1.964453941483649 -0.49813838198333565
P 4.398310674932601 1.319828544071606 9.49283125424722 1.0651969839771525 0.4739910953131708 0.37431379662549086
P 4.228027549492177 6.573556712716509 0.45721046971493223 0.02377550515304292 -0.3610181079578492 -0.24665646778511713
P 3.7520370242770076 1.0340656317886028 13.319195538087047 -1.6134147991153827 0.258416950755155 -1.3566346126327022
P 9.051119680037365 2.5486887336755286 4.059632341632255 1.2972483002545854 -0.15313618983776853 -0.9212545448235101
P 6.752751402006006 -0.03124698130905727 2.266928614260701 1.4459436807121806 1.3893989515479168 0.23158697504650438
P 2.4264280063573533 4.9872798204214845 7.317000684572586 -0.5324710938269345 1.5586150776666834 1.335112165179894
P 4.364952523767822 0.6047654019082614 5.514114430191778 -1.6334424071902192 0.012199370279669313 1.036609402147447
Ni 5.238758223551239 8.85745527896798 0.8676204074944079 -1.0071520161182785 -0.06219344280960903 -1.4910534285666257
Ni 1.3129179134776252 4.3327337929288605 4.176287676762203 -0.8800526166639037 -1.1658073360020633 0.3551850462158399
Ni 6.980394614092447 6.672158257009179 5.834453654394397 -0.04610656455007544 0.501737926409136 1.2289104351101352
Ni 2.2316241849621488 1.2731678921924086 11.324827382057686 0.4272211861474836 -0.7379567438006969 1.2047670050947124
Ni 2.238368071118205 1.9925589788778817 4.018497415154276 0.5225571771473323 0.24309908945116196 -0.49203869684350104
Ni 3.6347971572563353 7.786733661575647 2.0513938274415424 -1.61253368206201 -1.1837958021596837 1.6946886555952103
Ni 5.930228880464248 5.2842609279448505 10.652137707002902 1.2852543611175027 -0.5468391896231486 -1.6750168881978957
Ni 2.602667613663634 3.118630486081253 13.38613231361786 0.1442201182950613 -0.49278200276742873 -0.11094978627770569
Ni 3.2578713553280703 7.142183036778607 8.449555771337256 -2.711754331282775 -1.505630297939536 0.27263000903074336
Ni 8.291978572066677 2.076709338550431 1.5256893744171802 0.43019312429161394 -0.3678533857121278 0.9793421929948618
Ni 8.510849174002313 2.7166930184643174 8.998785085478794 -0.5768753309739226 0.0244290795766418 -0.4305682482428456
Ni 1.0580119857905335 3.000751432048537 2.056926037348681 0.8940491880533119 -0.12013736631424471 -0.18709866282614226
Ni 3.083104657223456 0.9214130895268305 1.7164931820181746 -1.537049692791082 0.11988951196949674 0.5690545493779232
Ni 0.8555888699401689 3.1039569755438996 10.698710354873198 -0.886751368840318 1.8494510681824923 -0.8832549256512853
Ni 3.6022634647012945 4.18332151296865 3.530971880266687 -0.3598827088018253 0.9369372456660895 0.06923595147868722
Ni 2.4737185816687104 3.258723604677462 8.602194556171304 -2.1621113536622443 -1.1763848544075934 -0.17010932735699735
Ni 2.217580597856954 8.244428616518547 12.860061022830065 3.0925164546367707 0.9432253926676464 2.111502273256125
Ni 2.0797014748531866 6.133342133016022 5.430189175510427 -0.003937644491509348 1.080757557419571 0.4144464029803185
Ni 4.569872174397111 8.671701975120119 7.677377101036848 1.3984824019064237 2.4349827892798324 -0.4646513059694837
Ni 6.616085807967133 6.5781051304398925 0.7493828529201545 -1.503616609943617 2.936589846538059 -0.06658411567813693
Ni 7.1337439155036515 7.589289719913304 9.574627738271069 0.2605432530695384 -0.5405692974540368 0.1011705954037548
Ni 0.4535189331308821 0.43569487907474475 3.338513597298287 -0.03734218809388408 -0.10155831776047669 -0.3497163097917848
Ni 9.122004593315035 0.4965297345355108 5.970807992149145 -0.2588272988196962 2.144150141198133 1.089175349169621
Ni 2.1007020104517853 1.6140305776295645 6.303892049557124 0.9798407298978351 -0.6533509947341587 0.6033229836424899
P 9.16301446146457 1.5636459666367204 11.55461140745548 -1.3571231222333466 -2.52177551869536 1.3859816983362516
P 0.546385395116939 7.965780133586988 5.251966235750834 0.7758887429597798 -1.1673481981266216 -1.6533993099281203
P 5.282241467529986 4.065322032397433 6.776055789921927 -0.001658361539029402 -0.11923670887684626 1.6034450894971803
P 6.193314549189523 3.2875426016987417 12.78715850185351 -1.8399755245918892 -0.14025007790371974 0.8384753074427496
P 7.24989068009793 5.84651390904628 2.699095922115355 -0.22353659393820208 -0.9335279628742245 0.08689968730703744
P 7.610586690068213 7.634866532945994 12.16233003863098 0.31429576420064576 0.2510921349589676 -0.15219130942599593
P 4.341071014825084 2.4433803575463413 2.647913716894439 0.19593323039863675 0.23115117306066643 0.30887047942001644
P 5.085131014743494 6.898958483326112 9.592727847007769 -0.9662128547017554 0.35959191703428395 -0.2448656944332815
Ni 2.067417967926084 8.43328521962778 6.842504374792818 -0.5332874190806428 0.21891323623357783 -0.0513295035119116
Ni 4.846621623452308 0.30569350440491994 3.4132734660417228 -0.24619675453987921 1.2769183304479814 0.12195230803579644
Ni 6.070507270658151 2.0088443523151716 1.3228697773477507 -1.3212544333611955 0.0012117609199140422 -0.6210689947720014
Ni 4.349778779916695 3.0224652632982574 11.24876598034045 -0.3205119203136867 -0.12981731260616997 0.02025617914587479
Ni 5.357869333708619 7.508844792194632 11.8913555052759 0.7527593560311681 -0.5755416997641637 0.8247546154225472
Ni 4.234864071447081 2.199488826342149 7.441437426805677 1.234372743776287 -1.0952670638896558 -0.4479823299542349
Ni 5.426317925476614 1.0022452348846829 12.056467700424689 -0.3528566551929794 -0.19981816727533977 0.3074967390009414
Ni 7.3959680712996505 5.500482146033465 12.42614475109318 0.9981284724634293 0.4377984474426976 -1.4453271301741044
Ni 5.866032271863327 3.1230121593667124 9.241612231354235 -0.21180233622040942 -0.9368991933393025 -1.6463172062703584
Ni 7.137310393759258 1.535040031952789 3.871756751632812 0.36481639865801685 0.15624439644944704 -0.22754751486980815
Ni 0.060711649848299645 0.1206720233679507 9.607180884343865 -0.40202926026288827 0.42063170585542403 -0.5652940538942265
Ni 5.186261516344685 2.7690044540731775 4.9100965991802115 0.2461041948260729 -1.7393530883821209 -0.4586061282166682
Ni 6.4576137468796935 0.7475977610763741 6.130957687553703 -0.03691487074847836 -0.8968228941437071 0.15467859462422393
Ni 9.45014838357051 7.154401698646516 13.366663047774203 -1.3029777465391945 -0.8080617281478987 1.120305494915522
Ni 7.046601419528346 2.930737295280029 6.815740966147952 0.9966099789363739 -0.1058803421745983 -0.04268494046303616
Ni 7.076402356017403 4.458727742940567 0.8243891328885237 0.566482931996005 -2.062033991322668 2.458095978258528
Ni 0.7964020053408898 8.024159214020322 11.332934867172767 -1.359331442738575 -0.5077054568464805 -2.7473065173557716
Ni 0.4944824833809937 5.508106072278567 11.617860351834196 0.3560337673693804 -0.24159088033675163 -0.8336586027803965
Ni 9.085802523125656 6.82771229043294 7.076437557620965 -0.35437592005098323 1.138375979263988 -0.7849660226706997
Ni 9.389657206923463 5.16260233331918 2.355558841165488 -2.041635373061658 -0.9661295509593296 -2.0300006170362073
Ni 2.94337281824275 6.438234337760917 10.643215953215956 -0.5276060524251495 -0.4479147099410931 1.123950547867277
Ni 4.783425481478933 5.075496891663414 12.594916986654411 0.43288944017685443 -0.463720309514782 0.30511512614264225
Ni 4.939470484636584 6.145570058463817 7.350516316595405 1.3190723381082123 -0.7756594005577931 0.12894750840670693
Ni 4.709854130034704 4.3074071655241095 1.3276701644439983 -0.42525017846404184 -0.13155409279161862 -0.1808673372044498
P 3.812574518823475 6.3686000077676805 4.002023991045327 -0.6546452880655499 0.5095309400909934 -1.2335155379823144
P 0.6285070307947405 1.4009033952224375 7.959902392150151 -0.03701488666145238 0.8137477227890824 -1.5586924678718383
P 2.5593696412825797 4.197902387707157 10.65124284518604 1.4512391247831653 1.5736272348047997 1.3794348983566695
P 1.1486561149622525 7.412540615713366 9.014877776454483 0.038055155000508656 0.7546570872745133 0.4615122461198697
P 0.5251921770567388 4.95061457123787 0.1913837077017762 0.019333667331605412 -1.237032292886321 0.5226245400501579
P 8.290292600527662 4.886427226216833 10.208933770073626 -0.9646971893881773 -1.0153222106338964 -0.3110692868435482
P 8.192293188927497 4.7248426022881365 6.027006425877623 -0.04764871222621471 0.5167768230201293 0.5812338650529345
P 7.044748703551408 8.211755970265237 7.450819580512893 -0.09784538768526374 -0.3563718674350895 -0.886991252765266
