# total energy = -381172.5616379965 ev
CRYSTAL
PRIMVEC
9.19433618962445 0.00000000000000 0.00000000000000
0.00000000000000 9.19433618962445 0.00000000000000
0.00000000000000 0.00000000000000 13.45684039125753
PRIMCOORD
 96 1
Ni 7.28935232080605 2.9960663252534463 2.836472880030086 0.1908218773140004 0.9229026219498945 1.084184837933565
Ni 2.471483485422429 0.25269069427618623 7.911895293994278 0.9960111690101106 0.44781417980748683 -0.540733848056359
Ni 3.0669362670537703 6.073245082598545 1.9420506333574115 -0.8417226107354535 -0.08761599664777169 -0.20369153418781694
Ni 9.119963004813329 5.347094814888894 2.6297354770250494 0.14091496518122829 0.26388594428952616 1.6799338658835392
Ni 3.513514360357291 2.2736857352991326 9.384315794857487 -0.4737463262922163 0.45523566908253854 -1.663079770440678
Ni 8.677522362704691 1.7772375635933082 4.660749585974799 -0.5347534621032081 -0.12124371200454603 -0.2694585532812972
Ni 2.05907154465264 2.3847717027137034 0.556744627119229 0.10680979596740316 0.459879338502137 -0.4094836596584045
Ni 3.770339747527562 7.087509062847759 13.339778900348026 -0.9454334560625589 0.4927336660279965 -1.2508429735171682
Ni 4.542250225452601 6.746233699621964 4.436168735116638 -0.7562429437043943 -1.0913895832121205 -0.2007396506483446
Ni 7.01453361810604 6.17969710467485 7.761219435246285 0.11971879071958737 -0.1970226068080736 1.393429927084181
Ni 3.2144869709992294 5.739233244803765 6.78947374234287 -1.1978692495336143 1.892933307735843 -0.7476901690383768
Ni 0.7218785792093351 7.621736761130845 11.279926756569951 -0.12914342646759694 -2.7931798828491186 -0.6281310438251053
Ni 2.0526722868045573 5.952118900284396 4.1238215112118555 -0.1185139717782088 0.011677436337928275 -0.45292219045801346
Ni 5.1471915618242035 1.710505072987866 10.754814322985988 1.1334926830297576 0.47785777735742857 1.5680685097700995
Ni 2.738027285732677 8.317922687853565 3.084334709045046 0.29496903884757586 -1.7258771653828726 -0.6072997089020509
Ni 2.297940393637126 1.7221359080134768 2.940803768793814 1.205266313328634 -0.09356630069393562 -0.09397304921405107
Ni 7.90548316407581 6.88597841231308 1.323101726107138 -0.4368628230023057 1.3650842860619523 0.15837121298446274
Ni 7.132294673448353 8.50556069670943 8.00010483403555 -0.9434349375752914 0.9235050314205837 0.6429244000841959
Ni 0.18682522955447103 2.6618981837468594 1.9479984493084532 -0.5661582016667346 -1.1947636140250972 0.16270866401755205
Ni 5.375468535749793 0.3269515071891152 6.64679051986979 1.7295394447258086 -1.7135962911329907 -1.654732941137879
Ni 8.95910809669233 4.548594317284752 0.6096773388393437 -0.7117078374064969 0.002260771009718687 -1.4979689247395362
Ni 6.355980108584763 2.75633320868603 5.433737640077705 -0.5292664708467077 -0.6283408458430662 0.15350334336920016
Ni 0.14869907651043843 9.148594167081908 8.705405106023795 -0.09628755627984062 0.9980793643930488 1.2139425009463933
Ni 7.044608291124834 5.885781766126463 10.22686175901514 -0.48688003546069697 -0.8459880708800269 0.16597550769428188
P 0.7503773430396782 0.18162767142010114 6.478754835341673 -0.37622746870843593 0.9870552453684034 0.3315514659573
Ni 3.270305784786174 9.113848771380892 5.591680701991108 -0.3980669331810306 -0.7378667551900518 0.06456194304178557
P 4.220898988314157 7.669997830735139 7.255066641904467 0.0027407959699307636 0.6499856778063515 -0.004900779735727044
Ni 4.014771169785166 1.983834293257719 6.7322150955401066 -1.434403284172749 2.2499284105772284 1.7501023564788245
P 6.715487840076001 0.828999948945611 3.99582072387901 -0.3263966612292379 0.26697563895844345 -0.14528738321731108
P 6.640204617001137 5.377399346307405 0.16340541692424462 -0.6591807140420582 -0.2544736498366908 0.12608432792629898
P 0.2808612203117353 7.601959744419312 2.6789876960489174 0.6462542357883773 0.03829246782229534 0.9261776931567404
Ni 3.7615591566584246 0.3317049788952345 1.0455421918489178 0.47043705941332525 0.15590423950120894 -0.4137005259532294
Ni 7.370979635713066 4.891202859228898 4.425928083692507 -0.2776796556395089 -1.3111206873613033 0.1492679651316139
Ni 3.6092457866708574 3.9109855051455633 11.718875389870112 0.45839066977175247 0.2750093078961973 -0.6723730443626162
Ni 5.681796227882823 3.860857985335578 9.762842929774797 0.3012348172516296 1.011272208934239 0.4682423657548516
Ni 4.958349094953827 2.9900532295168856 13.622493698795068 -1.1818127102913838 -0.08061822517369988 -0.12256860146355666
Ni 1.4582492708039414 7.441242751338141 5.771369287951208 1.5350097795429176 0.1343185429106332 -0.3853507711659428
Ni 3.0428471067635723 1.522655594404262 11.989465617448952 0.9453565800780362 -0.8473538408793019 0.5206573890214581
Ni -0.04700604274184694 4.435182182865058 8.380260285856444 -0.7487330084805944 0.2966338281445085 -1.2033999495438565
Ni 6.350950806798984 7.650395506407389 13.033030107626717 -1.0168738713917327 -0.06795451366310232 -0.4335880089057758
Ni 2.0379521548867676 5.20339653772267 9.925697605973323 -2.5998252118109355 -1.7375880260618979 0.04987940132894635
Ni 9.061468639253695 7.343911510562553 7.294656533237888 -1.2010625596599316 -1.3080765012183406 -0.967135880736657
Ni 8.240294909101602 6.3409841465873145 12.497165817537656 0.6005431069045076 -1.71809315056208 -1.4457228229506263
Ni 2.412658123767204 8.947293374946945 10.284417382870336 1.6178777199827428 0.9750934450208368 -1.0924949004611573
Ni 5.012402596230957 7.111745332513775 9.273727241019902 0.5068693340984303 -0.46866248401140576 0.14749030440590083
Ni 5.8307996369144846 2.0393864713009933 8.342957945316993 0.932460955062291 2.449726780358226 -1.0876056906896558
Ni 1.8152377542342968 7.333282858159703 8.579341565283753 0.7131911068202428 -1.4305029206770783 0.7616556300795335
Ni 7.991762812993071 8.72554437957328 5.536817179713382 0.057652103295829746 1.8167281240281743 0.1925519726312297
Ni 3.920317756174018 5.111453177836417 8.868905224608723 0.4319029078938691 -0.6025048586165689 1.2708111891089793
Ni 3.028384416253464 6.794991263369644 10.879464694284579 1.643911939262975 0.8865006862820926 1.2983320202370672
Ni 8.525466434124803 3.500872148372931 6.204061175611108 0.38484554939475013 1.6635070877860834 -0.30218741097288604
Ni 9.091699615984295 4.632713297244686 10.531901324676163 -0.5683485244498341 1.1936611249895377 2.2917404615170076
Ni 4.5127456012651015 4.2904817230760735 2.6364105649527914 -0.5875927173914267 -0.8927659504655141 0.3370947643730324
Ni 1.8230713284966056 1.938101666050297 5.612322905719171 0.013127795631209648 0.9827131663496236 0.2671335046925464
Ni 7.385920431694583 1.32977681403488 11.785567425397202 0.2229390695635193 -0.5434407054645608 0.5988991435431815
Ni 1.0631870420446887 5.051726771254307 6.129106190331038 -0.1364952388469778 -0.3022504030003375 -0.5038300330514742
P 7.087021763040362 4.093428714167856 7.841340717918364 -0.6847554771873691 -2.624954145668079 0.2667766355737599
Ni 5.1914898726174 5.858005677104827 11.677159768056118 0.0036489096064969413 -0.1042860011042849 0.14950399240181994
P 8.81154819841088 6.523583659321414 9.245817834126429 0.7566563770927291 1.0241385233739457 0.7721992099233347
Ni 6.916034696659898 7.485439924435463 3.570933908039855 -0.9662226248937683 2.054593475884223 -1.1759824767628522
P 6.980303105220387 0.7958129931946679 9.749602166517576 -0.20940683940503935 -1.1420539423362073 -0.9309198358274161
P 5.3248904934763654 4.637117384183237 4.825044095189146 -0.6219837932767868 0.25187914963663716 -0.7018574269749784
P 5.594348898295007 0.6348652222801828 12.933799317035879 -0.7093431938290622 0.8461955589051426 0.09634283499780827
Ni 8.595444525334232 6.627534822008812 4.690623822469042 3.3848855939676543 0.6523163828220573 0.7133787973510165
Ni 6.3450480430942875 9.199760646858609 1.398205659630224 -0.21630742317961457 -1.1592026862013518 0.8420352568798659
Ni 7.865451025181335 1.7275881492547316 7.26615501110675 0.3128160943313258 -2.055179944515312 0.4436258527577521
Ni 8.410619983290886 0.4532081289849181 2.5327122465050804 -0.046431294879345844 -0.5617914400576066 -0.08611575795316136
Ni 1.0578267441633202 2.178873742584428 8.124849906994823 0.49045823973025854 0.5237555683308077 -0.32603850655887073
Ni 6.405041085420068 5.5899723943644215 2.406365520216589 -0.30656214300181395 -1.6992510781549124 -0.6184981487210316
Ni 1.3495354420744357 -0.07428012101850509 1.3184227285225265 0.24453016547073372 1.6515838539859364 -0.29757330923964237
Ni 7.538647546801637 8.108392965008782 10.756631123777343 0.1237839619278965 0.3789170997254571 -0.044640264417194084
Ni 8.379809763393002 2.355929070717386 9.815513602919236 0.5717400666298863 0.810737732318165 -0.3727773053763064
Ni 7.146812529974393 2.0419333023698427 0.6255421655877168 1.3411357456661548 0.7991430855020301 -0.4241122082048567
Ni 4.928780110414409 7.330496974355149 1.840262897928137 0.6304522357591142 0.4648163707924382 0.6432550439507374
Ni 8.729599081744263 8.46911434885052 13.247639701105216 -1.591363218631982 1.9752574598570563 -0.8574276801755362
Ni 4.7424201142609625 8.622724120212483 11.326245062979849 -0.1821282061947444 -0.9819189525831024 0.21271199251887235
Ni 4.732131652289691 8.960643550802429 3.7428321331167926 2.2517181554877994 0.6070536543295159 -0.9919765939294205
Ni 5.448085401387956 1.9756329455558654 2.209868768635683 -1.907073346681651 -0.611338911968431 1.3153082430800895
Ni 4.8730532399873505 0.20464753043482234 8.908616481177194 -1.831005716993111 -1.6557603539611292 0.8196849142091238
Ni 5.1774409272267805 4.740213473623692 7.053645403968053 1.5951566242361432 -1.6179324844800778 -1.3596847123129356
Ni 1.69636418423736 2.7062884378999423 10.592081012022511 -1.4785082449117635 1.2347877198265187 -0.12549837351584192
Ni 9.059786075767775 3.1516344901809865 12.179974098000466 0.5407279345190881 -1.3179968456558464 0.7295289247483178
Ni 1.633180707323527 5.037668631527699 12.489454527943995 -0.5001106752183581 0.19983462233557198 -0.2517469949341471
Ni 0.9489382230500305 6.980505380612137 0.5692011135166185 1.9873437015976292 -2.294410037929371 0.17549553136957516
Ni 1.9143802791996436 4.031422112260566 2.5528027900738253 1.2253438008047994 0.25717587925920227 0.22323294665485424
Ni 4.247176400569648 1.8139689358678663 4.542275969593369 0.11559422702825253 1.0901883638151677 -1.0727588554848104
Ni 3.3102092029768078 4.014909084824995 5.079634339280581 -0.44206159359442576 -0.1821019809424993 -0.2540280776588399
Ni 6.732552527670889 3.798593942020607 12.179166835300665 -0.19544754901146988 0.4175592375776873 -0.7328006535210542
P 9.191816740564436 1.3445613063045894 13.440826491730217 0.13942629645084373 1.2243045609070076 0.8713185792250154
Ni 6.493582540990529 7.052267173003358 5.793169978013838 -1.3768242002066997 -0.44848986571827276 0.5274427873744078
P 3.171163259820827 4.420866601730769 0.48472079615233254 0.25576151541017883 -0.22806944881154914 0.03901520492093281
Ni 0.633292071392529 0.6226146890089385 11.386303385091148 -1.6152294837266181 2.7463402967877606 0.2761472781553825
P 2.148302575422249 8.767893491136888 12.551100711880531 1.2976293377430879 -1.1481705967569065 1.0727385437698365
P 1.9811495471490406 4.179837083788956 7.976985676192152 2.064920054621212 -0.5493185044015766 -0.6761386820526356
P 0.3818260626700277 3.7257564123187175 4.162887325393926 0.09250366375737616 0.4673139404033113 0.24943480186120265
Ni 1.1860417595247004 0.1972672369367528 4.1989373973717266 -1.6670361839852643 -1.2469642072880525 0.08701461561834692
