# total energy = -340869.70507930144 ev
CRYSTAL
PRIMVEC
9.24622287137078 0.00000000000000 0.00000000000000

0.00000000000000 9.24622287137078 0.00000000000000

0.00000000000000 0.00000000000000 13.53278179478412

PRIMCOORD
 96 1
Ni 5.713000710974034 2.9877135042672416 12.684980072946848 -3.491401255733406 2.0393810298098423 -0.0944823847503018
Ni 6.733552560499599 8.123472521326159 7.707758642500254 -0.16251968793519753 1.1404966251514164 1.4082040000695617
Ni 6.390656385281881 2.2263055431824736 10.193365259912353 0.7540037699612305 -1.0304642084816575 0.13875523852574811
Ni 8.076390754460617 3.9665186575245577 6.155142144013428 0.5092159799537359 1.2511862157892 -1.1401621246301332
Ni 3.5117709242211257 1.979043051132529 1.9127504070052952 2.2948751504912477 -1.0556959864652526 0.5040146382584546
Ni 2.9750184402636304 6.711916398978514 0.2274783489701727 0.43445112823701953 -1.0244853651904036 -0.908181513689636
Ni 7.572064774116132 1.9858112862750223 12.782578578474974 2.271335672608411 -2.653878284901597 0.18981966130173117
Ni 7.709149274420241 6.67969331226869 0.770758666275483 0.3619380486689573 -0.42766495855312153 0.060965483939778874
Ni 2.942897062005403 3.379466721141975 3.677980101950563 1.6066887932454585 0.5585832175329541 -0.1071520097981703
Ni 4.611858782893861 3.2859781616805654 5.634955192953871 0.12255626016838246 0.5370373730413782 -0.7224846163070267
Ni 4.41831684573174 8.89950800699484 2.4903702714358875 0.24334848645780668 0.6002908816843855 0.7492672837175096
Ni 8.639883314964685 4.265828138122448 3.0767731229728383 -1.3297437017791294 0.31106388752690944 -1.3694392205965382
Ni 5.149397195795499 0.8522493269378486 5.935410280565634 -0.000981390076662826 0.38491034119441453 0.8148676953261386
Ni 4.580606549585626 7.443292628174184 7.596599626507671 -1.8205719232542965 0.15761325177251564 0.13728302485559582
Ni 3.8538441856032124 0.954062260851152 9.634568856005107 1.32329100417525 0.9989211435680538 -0.6509254160118015
Ni 5.599928651469181 5.724660198015952 9.09385344092456 -0.21293053628758166 1.015491389221909 -0.14531515113145296
Ni -0.01951600261647665 6.885098153375921 2.686473412333624 0.21723893385494847 -0.13088277775620688 1.060129339646258
Ni 8.953774089032127 2.6737117755253323 10.258349563503163 -0.5440184323449018 -1.1199812788068841 -0.5346256782760921
Ni 1.4943745406144673 5.443630500036518 4.094383749002738 1.505776336599097 0.24192666640961558 -0.13583369400357898
Ni 3.7174161671230337 1.76979178131044 12.657319072602197 -2.488418026280837 0.9898369218785987 0.0028356696765822133
Ni 2.4910341502381157 4.334601543846309 12.312111341666416 -0.19005594568225334 -0.08914066082241423 1.2785700071187918
Ni 8.357577638228879 8.231662575154457 12.298266972159782 -0.290652413750093 -0.6831266833346945 -0.7269835326186448
Ni 6.807642544375009 9.106632645556308 4.487524823930597 -1.6521698083963932 -0.2623168000301934 -0.6334038621882704
Ni 1.2932507006970937 8.200364110731863 5.046509850784439 -0.375695764574682 0.17861067995978916 -1.1038483778007635
P 1.8213764587147718 0.5595823328513898 13.364595946503613 2.1770281228730766 -1.4436119472552105 0.6139670936198975
P 8.633290758056765 2.7048160692676113 1.193028117117819 1.374624878562536 0.241945435462693 -0.3241927115993836
P 4.969206804460919 1.7542396344393008 3.9143302017666675 0.019289444357231296 0.16122205216969654 -0.3376616926200959
P 9.121694742615217 7.618693476060934 8.304418329069401 -0.11863609917836987 0.35045318795780933 -0.4344516424576517
P 2.763095012031459 4.179523893832784 0.9462760165704228 0.9099913132048649 1.1889436649092104 1.3150336492624641
P 5.591098508626173 1.2351659286135641 0.5771390608412348 -1.6354784637836415 3.3764904279254235 0.31022596500664634
P 6.103283778412077 4.389653554827738 7.069133124180785 0.4459796977019093 -0.2065374882770443 0.12328156837018123
P 5.919209973471149 7.433223491466294 5.710468170529322 2.5524102128620814 0.991747251527434 0.31035914815040094
Ni 0.8265956815787666 2.8920798210994687 4.101867641795543 -1.4644929044692776 -1.1118547930450078 1.439957381221759
Ni 7.627754774475747 2.812127731923047 8.075268263003924 -0.6724890011151903 -0.5966892803760562 0.3951500166445517
Ni 5.558144970309444 3.2077736086270012 2.164311468068553 -0.5424148353032078 -1.7158555194808127 0.25435769308411676
Ni 2.9430172629027425 8.958794788051764 11.20881042054557 1.2278272293482855 -1.2968250966742374 2.764479943811265
Ni 0.587901664264544 4.830300798250975 0.8859277691277642 0.15709028938951008 0.38398243006350646 -0.21962466047830564
Ni 3.6411440746497705 2.13635828708114 7.57971140043149 1.410651690279106 0.9042179010561976 -1.340673718428072
Ni 9.074918101104462 0.4722804211138094 0.46918386107388993 -0.3792883670219468 0.7747065497262207 1.4475290229214297
Ni 0.40552731508753703 7.131815118276402 10.34249573937444 1.0015477825576233 0.5155959153381507 0.5355906132925228
Ni 5.977840272704142 6.982044800191554 3.367673163868408 0.6562823094483408 2.1708135094219325 0.7603747064845807
Ni 5.730161700624946 8.54567355011924 9.901327008981209 -0.9413281756449337 -0.29188962859130374 -0.4307163437849356
Ni 7.789406488951448 5.93022222491201 7.868000307987935 0.09209203014125429 -0.5589403437620568 -0.6620456942946792
Ni 4.603944016115207 5.011008978066401 0.19259419931771468 0.2310151617034344 -1.5678720774885773 0.35047915609973834
Ni 2.1407317504997185 6.492226143533644 8.464335452134266 0.286075593012688 -0.34338805358091185 0.03299265287593672
Ni 5.69186384548805 5.4153555504931505 11.667031035159823 0.4613659503499925 -0.12914934000486789 -0.3132069020118412
Ni 7.59027058695161 4.544795928401368 9.740611936882466 0.07075521633669105 0.4575332068674636 -0.34584937063721083
Ni 0.39820153270584635 3.0378557709035006 12.465248209499054 0.03086480789965652 0.7902529821012519 0.15744535873608367
Ni 6.479623541758755 4.99647391571121 4.461595641129922 1.151546712317991 -1.2724219852395249 0.3929440101321684
Ni 4.048976473099362 9.015501872927326 0.149925654629102 -1.0965503014774534 -1.4742546118417321 -0.16483188100814194
Ni 2.077940650974209 2.4916166622790676 10.53804503152213 0.731254906300489 0.10585617380488221 -0.5807260721785805
Ni 7.716971578970172 0.8336376049182789 6.559352796963956 -1.7242285740358563 0.9192971639868232 -2.152929172942344
Ni 6.542183485712458 8.731402428954302 0.473023817432739 1.3978285703725086 -0.15350360047951628 0.07819907420924598
Ni 2.7384075969625274 0.2129811961287581 6.762926885942477 -0.2585966708661288 -1.5161813339825048 0.5789070166919708
Ni 2.4231576281328637 1.210293589087188 4.763403451147896 0.7014185396653468 0.1925000363473717 -0.8144133813975393
Ni 4.112266868659973 5.025442331969997 7.348733356104168 -0.4191427800147233 0.7285596188565131 -1.487849062696715
P 1.8440759358661674 1.4968062972298712 8.334921618324984 -0.110944386961067 -0.2913170439172854 2.3921530957088155
P 6.051671362339129 1.1209565836954234 7.988549787929583 -0.8240920421378839 -0.05045198600296472 1.266490193136122
P 2.8143468254123887 7.628170854504998 3.2907935945524383 -1.3908639661292175 -0.8027500861269982 -1.4960315985075074
P 1.213548259538223 6.53875313702685 12.232403352773822 1.7438396633985644 -0.11246493737065147 1.1269847067079106
P 7.577288890038959 8.333324795634944 2.3545145941515013 -0.18931855329559652 -0.2229300707024548 0.4594324807727055
P 4.184193236383274 3.121700519909144 11.010162719113389 0.3687044208585134 0.2582562568075745 -0.2290996898482764
P 6.03382615219567 7.401906534597955 12.391250687852366 0.3904551822720437 0.24686884090623934 -0.5490284839649835
P 2.7671541038723797 7.277859208543729 6.274285273456207 -0.37586082939763654 -1.5032607692660949 1.5903507182070675
Ni 4.101143662544646 5.460504856778391 2.948901559138648 -2.1959185320196766 -0.06476120353678523 -0.8352693989109421
Ni 5.599993375029286 0.7201827517865146 11.797162375863993 0.39577710870558935 -1.8668399530829007 0.5458853103503115
Ni 4.944463912054754 3.4605098646173227 8.93558769326468 0.4178729121633642 0.27518645690400995 0.19501586079068997
Ni 4.507774052020844 6.054380505640701 5.1610372657693855 -1.580894457890174 -2.3111610321354648 1.0602419539647223
Ni 7.238923364028648 4.228704553290329 0.5908142244693055 0.22626736260580385 0.5842379419865809 -0.22437348801720067
Ni 0.8204691343036079 2.6109669071141846 6.945591566517673 -0.21667483382136235 1.0695334065689772 -0.7854936130393956
Ni 4.076493232367204 8.232060162737966 4.86713220244033 -0.13722028993846044 2.5406587287531086 -0.04023442204001458
Ni 1.7022111383371006 0.41493442223777316 2.4967307481497145 0.48604494115391134 -1.0519437185116722 -0.5083921985008599
Ni 8.63568552978068 5.557007684896155 12.105871566633821 -1.4939263792390465 -0.10022854320545964 0.5060833478620252
Ni 0.9988971955587349 4.776210394448261 10.463533419883746 -0.22901304367174108 -0.1463225093500448 -0.8793597043619372
Ni 5.146549359150843 6.93303057274571 1.236525123375786 -0.055122137785124425 1.1163567946804192 -1.0165339715538109
Ni 0.9233342883797743 0.6663697346699684 11.458856025680063 -1.5515293744644956 0.41434998661177025 -0.18943708115133182
Ni 7.273587453576746 1.4741160663013482 2.2860796001847654 -0.5114366417541386 -1.1582413507293472 -0.6371011085341995
Ni 3.426021453303797 5.130257514449923 10.419105318982542 1.2366247730352573 1.1122818532800973 -0.8797523118146655
Ni 0.7557649912658281 6.256401229176683 6.648492857808541 -0.0038211735183030964 -1.3854134845376076 -1.044859557971381
Ni 1.0435749444774893 7.569688494837963 0.7109476243817024 -1.403885060979234 0.9367050750506254 -0.21197511435284783
Ni 1.7281930246081476 8.861977588356341 9.253567147086233 -0.8357802771090896 -0.20495497428127282 -0.7198883163347601
Ni 2.520446385194771 4.094819246100021 8.536505920141394 -2.750859781924669 -1.3395012953865255 0.1651237012169479
Ni 8.87973958249395 0.23768710364343362 3.681836701510582 1.3454886233182117 0.543684960264883 -0.4308520980318516
Ni 8.764171042813587 0.5401569432190613 8.4195282560953 1.180211427242535 0.00434722122510219 2.409015161571477
Ni 7.3983744774607505 6.902656730610341 10.173715187064229 -0.5934710305490747 0.4099132909966553 0.5130916608590582
Ni 8.261731291935044 7.747974164260856 6.157821699401809 0.6133723974586921 -0.13758898613178885 -2.0476921207786996
Ni 1.655073894134325 2.4334579204125597 0.8903280465926721 -2.714038499331261 -0.3778238666612784 -0.07732027114871846
Ni 7.239209996937688 2.4615571917213543 4.468903855688155 -0.6639591092673082 -0.3822032266758966 0.1455509212913429
P 2.2427915585637113 4.0289953854724105 5.700156782782179 0.9730494180076145 -0.2179812113376117 -0.0410880282895615
P 7.3618611433382 3.8429891199511803 11.656015085229814 0.8608955841194788 -0.3508357681082087 0.7596529978272079
P 8.763412852538062 5.651929408902764 4.721682644303689 -1.1675932242578924 0.8845173373034767 0.805211403183297
P 6.041814888757301 5.168943710947453 2.2456162796511863 1.9913659353831448 0.9634162657932247 -1.0007517690188894
P 3.442544453576524 7.556050316101381 9.66070145570897 2.281361175165213 0.09944229985873843 0.7397251485550292
P 8.146708279404145 0.5273906832993336 10.707678085581163 -1.3309708893180108 0.17277658977651533 -0.26339357803413993
P 0.29495173575819406 1.009197487838431 5.608498975449478 1.1883582247193856 -0.6019708404899697 -1.5865331442331903
P 0.20749818596550862 4.32061200864058 8.258731817235283 -0.29234959894685775 0.5455582660281959 0.6904779814934431
