# total energy = -340889.1849470921 ev
CRYSTAL
PRIMVEC
9.12317119315402 0.00000000000000 0.00000000000000
0.00000000000000 9.12317119315402 0.00000000000000
0.00000000000000 0.00000000000000 13.35268322546252
PRIMCOORD
 96 1
Ni 6.582404498543546 2.4521441959123322 11.557321744686933 -0.7728784953785464 -1.2339593103879523 -0.0751641440376641
Ni 5.00298285764224 0.3110526967237084 5.944922000073433 -0.20653645983577978 0.33113520435548777 -0.3079844772706373
Ni 3.094725634754551 1.8988056175459433 4.769912291207762 0.7644308788318254 0.25930475267674696 -0.24734192388791593
Ni 3.634598412460306 4.667067694820727 4.489305441343585 -0.4028286162357321 0.16722686360287975 0.6599227344144054
Ni 4.047257691242019 2.8841537207653234 2.481208794655319 -0.9789542135278237 0.15273072686923372 0.1248424850993979
Ni 5.229219256546311 5.089415781394848 2.265817109332072 -0.3815820481521299 -0.4982013740107871 1.2159068237616155
Ni 5.459241771489788 3.0181639822179367 0.524493848048823 -0.7860235174009367 0.446926634996211 -0.8862417761937511
Ni 5.957832199609248 8.137886938270391 12.681937792909551 -0.96258708502371 -0.15683549306622668 -0.5272283573707566
Ni 1.8090974753399698 6.8338664657583585 0.15903968158299936 0.6708941458242446 -0.17242846240847726 0.13429540298218162
Ni 1.007188975022604 9.169151962035144 -0.08802947870898384 -0.7122089454126315 0.613910272240033 1.2138172882224385
Ni 8.57727710860743 8.855114163701572 6.883041270731857 -0.7147391680336529 1.1336716318097833 -0.8965056200136045
Ni 8.833601726060804 2.609518898755111 1.3746319928055133 -0.07525413264830912 0.6731772854314665 -2.137983350265789
Ni 7.583471825704845 0.9531980479835569 4.814243604602176 -1.5484355660305205 -1.3648292326283527 -0.714107447986925
Ni 0.9315031469192017 7.938500032146975 2.304219273777064 1.2287597684648837 -0.7631252726465245 -0.06175224150713236
Ni 8.063578709015061 4.387278281094214 3.5851690710109043 -0.526937308492899 -1.3353903585419453 -1.1421938103481815
Ni 7.651056277801038 4.122441744930561 12.72913925595697 2.218380203457302 -0.1871410860283035 -0.5929295562233079
Ni 8.488371805465233 7.572934562992764 8.97385771050276 -0.6462850890263128 -1.0651260215299012 0.6932437171640383
Ni 6.928017592328647 1.0521662089365114 0.29600767513193876 1.5566342997912288 0.13820193712543943 -0.8022145253385022
Ni 2.1644358696021953 6.505377564276787 9.137401501696974 0.20408439875086143 0.9454514537846879 0.504621161494202
Ni 0.10975722318958452 5.123052913532896 1.3154299103888547 0.00842679061111452 0.1778897426333646 -0.5599708419091001
Ni 6.472725734626103 2.233562137627687 6.619258460839411 0.415327262923375 0.543611169604154 0.47647812340108264
Ni 3.6232674338556254 4.598351969498303 -0.001346580066063428 -0.3958159323633248 0.16031470986407875 0.8673133147203643
Ni 6.3288533251286765 6.012854044991555 4.617798921184081 -1.1654101005636446 0.16817662911065875 0.6250130670214139
Ni 6.050240800484293 2.9884315673446253 9.10777217865799 -0.4130559503906951 -0.15239648345826656 0.014139781835491777
P 0.32268565229442303 5.798368290566413 12.22677183496928 1.1059703092397728 -0.26415436745956444 1.2720157509400418
P 4.290545297080186 6.565234690384119 12.32157526827889 -0.3768432479155639 -0.8903264877860861 2.8696046387667615
P 2.716095784471594 8.96654457648544 1.3144163260708355 -0.057583969062055665 -0.305426486735474 -0.37148609736870863
P 6.755443686301168 7.963059608961628 5.5717541923755185 -0.3970832291115226 1.0068568534753628 0.6460310640339778
P 4.9892159923326895 1.2653564730541953 12.56401989310009 -0.2974334412276684 -0.4440408288079837 0.11671959888194737
P 4.086542066340049 6.094469934361498 8.223022547081303 1.8581347119994194 0.4863264769500721 0.9103970332837159
P 5.111785797126471 1.519591884307512 3.8528629843879116 -0.3458244309365463 -0.7394125024106168 0.5482314419849849
P 0.5819835112351285 6.0769351993548995 3.302532315559335 -1.3890269129204786 -1.2662048006852193 0.007609951136773991
Ni 0.9822918408743175 0.7223799925132456 4.581185810607348 -1.1602069590961501 -1.1290935255207974 0.9793555627313004
Ni 2.002317117746185 6.6907147867840955 4.731830350071163 1.5364030603460186 0.09580727420931243 0.3858832466306451
Ni 6.136117210794963 5.823940539381967 9.199251128389864 0.1416703552900141 -1.795450959816953 -0.05222219052951006
Ni 8.38177667340639 2.016713481867107 10.125566840176521 0.9083283236801454 0.6688256933309901 -0.3305945013606693
Ni 2.6318159291172996 5.261953194737608 7.010211890751355 -1.0142132938404338 -0.03289109430106593 -1.145236453829247
Ni 0.7691544911494733 0.2440521275829915 8.876676778783828 0.7309623147607346 -0.10788323153724001 0.705415576639882
Ni 1.5598798082352634 1.0197150890517712 11.233198280614653 -0.4484533560533825 2.591948637276336 -0.24102780874443003
Ni 4.170110314342359 7.1474116128482486 1.44307767226103 0.014799012686045478 0.7960970995868547 -0.6152829842178436
Ni 5.653446716383367 7.869738690968655 8.076290023419169 1.0707186851263302 0.7672642345155625 -0.2246768781902324
Ni 5.651476111408639 3.6271630279491833 4.622405210312505 0.3759503037876493 -1.4711641458418663 -0.41877742625550457
Ni 1.4367899826842623 7.5748321825980565 7.0708736805567005 -0.8708976896375129 -0.6620132983948469 -0.03619187653952476
Ni 5.347291337948702 4.533723424864202 7.081675515232981 -0.09251960459697615 0.7200091581833407 0.21092996091778513
Ni 0.8970978437678575 7.742260620080414 11.25831528318836 0.3804307081565061 -0.846127938892001 -0.7082993259455802
Ni 5.277316615003536 0.5465865193765953 10.442306009496281 0.062350794323079724 -0.44282726811585676 -0.4508329120291526
Ni 8.780231174661948 7.482989218336129 4.818302503459842 -0.12084236280106929 0.4271949608952385 -0.3327174612409431
Ni 7.513597457642652 6.373529494393667 6.852436680693806 0.1696159326603466 -0.06805658645860536 0.5279999454294584
Ni 2.4800702228921434 5.411947252096341 2.2548273373294974 0.11171751768166566 -0.05806579379448064 -0.13667804428174526
Ni 2.5218452237221194 5.637791354639702 11.335359551480359 0.5393701349396129 -0.34115530759565116 0.3876917605942936
Ni 1.5047028689429083 3.7238960119632107 3.7507153982789743 -0.7578987341402625 -0.34844567060947734 -0.2620717738989229
Ni 1.569951789217201 1.4468619636662001 2.4964043485715472 1.542578850139427 0.5377696232217125 -1.8076570149648417
Ni 1.1311637481779966 3.6852867515324492 8.247284708515512 1.6265166266046631 -0.6362315614450527 -0.530770309085744
Ni 3.6558918939927723 2.875021426414853 6.972316974623933 1.6161522526512035 0.18759282885374143 0.43051991150341334
Ni 4.307915815005557 7.067255430866994 6.284934379071567 -0.39349525464994817 -0.5320023817206322 -1.7515951389742674
Ni 8.384814689409096 7.551184922901333 0.16132047437782224 0.2847597024147418 -0.6253953900614971 0.3558977560121484
P 0.3925554587710271 5.8896000023593285 7.920250952837039 -0.033626172694877575 -0.7793594751171997 0.08169628872922703
P 8.923182143870267 1.9785512568241304 7.950107442838387 -1.0281903248458164 -0.7386226595194698 -0.4338091237776464
P 2.1297769422920663 3.264471357716449 10.356501672237926 -1.3356541537262931 -0.06221478296584768 -0.5485759698085972
P 4.09218930930003 6.615439501383761 3.646671104881862 0.4334136881114407 -0.0014827551931135754 -0.05233840439240019
P 7.13181099013166 4.239793095809787 10.496157352016285 0.9314849643022667 0.8155433812369244 -0.6512989973011364
P 6.579202265459615 7.6598236453043365 10.142938270419009 0.42826916779602375 2.7084831167306707 -0.20378589367383615
P 2.473109243282344 8.813804444601741 5.797000727206637 1.6717783266559403 0.6277548914326093 -0.3991727646506996
P 7.059528104878134 4.205416986806217 1.3949410841677343 0.5988497783624848 -0.16438168084460078 2.327700424551385
Ni 2.897510043371806 1.7227375369567963 -0.03238543305224902 0.28882744472621225 0.7679229511454839 1.205046484008344
Ni 1.7592119753316038 1.498772807676369 6.919159905430672 -1.106322807483185 -0.6412015038558183 -0.3546314877052151
Ni 7.065412550288777 0.706137098545635 8.57187527895217 0.46924638153933385 -0.2773284429476772 0.48279300987551693
Ni 3.0093966147146376 1.524226455266592 8.988318849139054 -0.27342679390042585 1.2101421533636965 1.8471077647612963
Ni 6.661018864595501 2.153670527610631 2.4817434124864257 0.493476457731292 0.5418957295749443 0.9173850345657749
Ni 4.444954969289695 7.172317870167714 10.352375261913533 -1.10607675291065 0.9305742795625394 -1.361063080717701
Ni 7.518149920061118 6.33111587158114 11.52547549105138 -0.23397270166986156 -0.7971615362956271 -0.78930141682126
Ni 7.996286198396607 4.335978689553058 8.289773141331708 -1.0871570331880116 -0.4230135758240392 -0.05308351008854084
Ni 3.4680731689246977 8.651494106150965 12.377416374433096 -0.03448132160632126 -0.46613380405228105 -0.09059333410854076
Ni 0.5727143693169684 4.995465364590504 10.143058696278576 -1.342349563468598 -0.26208437230441317 0.598350213018247
Ni 8.906869913801694 2.646860038391951 5.681793321554544 0.15696610510682 0.8448346740018741 0.7120132844620577
Ni 3.983961129600095 2.7699042480870557 11.216521123698907 0.7336537455499688 -0.9411805943234759 1.2799951696010923
Ni 1.2850533996302858 3.650135172978639 12.341110714725106 -0.7695998246272746 -0.1499315668575418 0.124680762710553
Ni 3.4183153933128416 8.555664316083687 8.063778506463889 -0.38359753592026197 0.07876883066978692 -0.13483327776352264
Ni 5.909169204538908 8.361441124847751 3.510554303203951 -0.7908055121706122 0.4278112543229987 0.4082965813288387
Ni 2.9599855196075944 8.797811525524443 3.6516386715889864 1.6456641460673915 -0.5474210302685476 -0.6484129340025929
Ni 3.8262214999101447 4.006103066052235 9.313630150098877 0.0256233569950591 1.8938393644898806 -1.631900516624396
Ni 5.299686630735159 4.793067811977921 11.582290951887535 -0.052575202993554615 -0.2601781564206358 -0.5613132148696075
Ni 8.350146638927788 0.19143058853795594 2.2241032337489974 -0.46925769439324344 1.048276296962414 0.47232733445750263
Ni 4.933637633508445 0.5456231125000622 1.5456531350982763 -0.9999542128182586 -0.08422985378435817 0.07041145984402712
Ni 6.284660683936188 5.8247342552745645 0.2720319812727606 -0.6941541447934497 1.7891437866520028 -0.1011641676458516
Ni 7.975549230306077 -0.2405543037528511 11.46612287631026 -0.3648418525793136 1.3266192972175346 -0.7336848558982203
Ni 0.13154882986844021 5.062894722776647 5.426183048404507 1.027763778831359 0.899118375046103 1.711173283513795
Ni 7.424655661815739 6.56535329160945 2.7063485883836393 1.1453611523325693 0.26273074763916043 -1.637518891252438
P 8.83622007618926 2.0939958649268853 3.3884169367240675 -0.9699473820435232 0.25709848905404753 1.657817493600474
P 1.833894254605284 3.500542535151796 1.1203172099629368 1.339592569548751 -0.12931543326908695 1.0503213524169008
P 4.988841942314338 1.359726555732787 8.142199461286841 -0.045609313198682735 -1.094414228971057 -1.043262131577274
P 8.765050217819606 1.8521132274503291 12.338466819717347 -0.4222337602352212 -0.5534415254310145 0.5028489000851275
P 6.7482181347271695 8.183028389265525 1.3941802116913813 -1.4884152196128302 -0.2718291103960028 0.17994971048618688
P 1.9078375570134418 3.543211606757343 5.931635925885031 -0.28294116114876433 -0.3231159335954371 -1.0421030782721667
P 7.195016320061792 4.336763282274477 5.978263541465273 0.3966132314536395 -0.35175827992247805 -0.5731477456106904
P 2.610650171981343 8.712236179862687 10.190046677120398 0.7970944305031176 -1.3723759346273592 -1.1010808423579554
