# total energy = -340893.41849501024 ev
CRYSTAL
PRIMVEC
9.02220750905436 0.00000000000000 0.00000000000000

0.00000000000000 9.02220750905436 0.00000000000000

0.00000000000000 0.00000000000000 13.20491266821822

PRIMCOORD
 96 1
Ni 6.461479343873678 1.8631579939884322 11.41521070318029 -1.0443895603134983 -0.46261447804511296 -0.282682508170739
Ni 4.655630410927987 0.43537022421944616 5.9641436974017665 0.13737841278287954 -1.6561938419541218 0.6865465076495209
Ni 2.7770715090050526 1.3753452873670589 4.820004202068652 -0.22786890276496882 0.47162439485320706 -0.06172138826919692
Ni 3.504171198777496 4.3230898926796595 5.112559199593534 0.14194417777669102 -0.29179424066402004 -1.1104784815227713
Ni 5.164140061194205 4.513034423871858 2.671208536925217 0.5567207104029186 0.6086842479544032 -0.1033434346853575
Ni 7.233302115445377 6.211095045690716 2.488835442135265 0.08869020354855693 0.3166760915073643 1.0068558250340982
Ni 5.192560014324657 4.757761798050757 11.574409356189008 0.46233268513863596 0.2653147063162527 0.029590054952290976
Ni 5.681076453118785 7.717397672641433 12.260273047300267 -1.3211369339467247 1.0504666197455135 1.0465181766207268
Ni 1.6884429487912196 6.585363272900423 0.43496061600607394 0.29385009475178425 -0.7307741100093286 -0.21555023329861586
Ni 2.8104626983814986 1.5999621613784094 0.45561064417273445 -0.8622464417204182 0.2826717095374615 -0.6792916258593205
Ni 0.5278875471975147 0.02217929231129914 4.740273151337084 0.5706432340212818 0.5822607636555521 -0.5873322646411885
Ni 8.592578851534551 2.3045063327933506 1.3283612404076475 0.34929130643922424 0.9845466200139366 -0.18565935927645444
Ni 6.926366621636485 0.6380297522201355 4.806442922211388 -0.9463464547951316 1.022782780677 -1.7234505582192512
Ni 0.516962556325875 7.746575491188699 2.3752602872186324 1.4496866926943806 -1.6415868906742246 0.6546386031973306
Ni 7.703783161760845 4.093041649847822 3.7663186508942617 -0.2125682678521565 -1.1053799839539415 -0.8823023319300288
Ni 7.460454229720111 3.673481941776251 12.565332824202548 -0.3933592432927161 0.9498580674928158 -0.2184131566687077
Ni 7.898581640503577 9.01724512896226 6.668454193646524 1.3264804576468252 -0.7821288103322207 2.352668921571264
Ni 6.80557730972839 0.8217227959443684 0.3656601391837496 -1.0074181252954715 -0.7194198613387739 0.15501875157246206
Ni 1.8769890378452525 6.456571263079085 9.233891785006804 0.4763961052102376 -0.19703211988977035 -0.38491728317295
Ni -0.09867949059333816 4.992194833651293 1.3099748840633458 1.0359429722080415 -1.1950358938498775 0.1762385801831868
Ni 6.399199046584942 2.0352656212635174 6.838296344657782 0.483359166791632 0.09628807050047289 0.891178551373736
Ni 3.3158687093217236 4.5445580163283035 0.7000357744056436 1.4767840631318048 -0.5195361309328215 -1.0432482476202032
Ni 5.894496767817471 5.4690365361435775 4.868123242711813 -0.020117339575165354 1.4069040503112158 -0.5495843564684535
Ni 5.351350863561473 2.726601281128305 9.38660617759811 0.49664482815694466 -0.16810798065625243 -0.6294695601308707
P 0.20272809677649617 5.53184914366555 12.319695109302739 1.257888310399724 -1.405292997070354 0.7776129247397382
P 3.875263609002466 6.158766243101311 12.594805668929927 0.01671885541657766 0.7198857452315989 0.5122606803173307
P 2.4507292472013664 8.477374285971772 1.4307921648142052 -0.9595351855712636 0.6078049306732435 0.7735582950543903
P 6.2855733673071885 7.71504287652491 5.845247244594232 -0.7696466187048101 -0.2138363359313027 -0.966350151610568
P 4.524763293417759 0.8170619236309741 12.455282645694824 1.274724408120456 1.6642884460367982 0.7388206344628888
P 3.899876190634173 5.968316468297905 8.254245173951283 -0.291852090485149 1.3186411641080644 -0.3356078954148607
P 4.781589447643623 1.029460924458433 3.864166293970575 -0.29577302280610995 -0.6450522450604762 -1.548834601241152
P 0.1762740826260832 5.828562476554821 3.7244853821069692 -0.8336444617130094 -0.438610916041664 -2.750649722796392
Ni 1.496486465361532 1.2844375261789815 2.5816135069055464 0.5124221455958595 -1.2190140019320297 -0.6284750574280854
Ni 1.8503374373540278 6.2589668778526795 4.842373862954888 0.7665358409899702 0.9784546481835859 0.1480952849797514
Ni 5.974839524206894 5.58575683253998 9.134550966615224 -0.8930919663463651 0.7225856606612653 0.48995224662811754
Ni 8.501481623992271 2.4616100292570255 10.200702501675439 0.39964379074984724 -0.2753039563184807 -0.16502497085555448
Ni 2.2413599035996876 5.162813796714784 7.0037663339906215 -0.7782078780112598 -0.48620254977769817 0.6732428485620793
Ni 0.6441107199693181 0.052408198014023695 9.011018903674856 -0.8410320124263323 -0.21684246974747814 0.19998014677450077
Ni 1.317982093080259 0.9267972271024255 11.338358638811872 0.39247864045997566 1.131876487582573 -0.3970683167131871
Ni 4.105808073238168 6.8211315951877225 1.6477085848583046 -0.1616974491442183 0.5323397104553929 0.0885521353087959
Ni 5.742346263185104 7.710288173255148 7.903100864161687 -2.121500522119417 1.0194686287021024 0.4123604669855673
Ni 5.420921104383353 2.871651308581731 4.64198883342537 0.09444767485762444 0.9534388428655386 0.8243180421057609
Ni 0.8194419819280577 7.372487708125852 7.065460187802062 -1.524550788993123 -0.44099561422375666 0.3437338669561048
Ni 5.032677477999338 4.61222457140081 6.99083931530957 0.4733637461418171 -0.2205407445346718 0.5369725812417139
Ni 8.077365701212484 7.182254466298677 9.090459439329978 0.7198692901713667 -0.4821666891454277 0.12375053758679977
Ni 4.6311351179917395 0.513087518272056 10.27698706920198 0.6515154841873166 -2.025747498186808 1.204102632037836
Ni 8.008733769954276 7.386607462617649 4.599138761870521 -0.34673537278658995 -0.6646075414845845 0.06561635244822893
Ni 7.164399517966879 6.107808816028042 7.062066033399624 1.0809038531894481 -1.133033741115468 -1.3904276499227475
Ni 2.1636786983764495 5.331276452223297 2.550422833900058 -0.7567247684368192 0.4909431497864771 0.8543575258906446
Ni 2.3540743399357975 5.00703636473053 11.466551574065637 -0.2883127098733228 0.6719992059629653 0.3041535335603213
Ni 1.465413983272237 3.2911929722386164 3.8232578014359406 -1.1028926987557135 0.5466823523303102 0.70368033911633
Ni 3.6159834143793064 2.867519137618636 2.677546637583675 -0.36239673347293067 -1.2046772735943834 0.37018640472067854
Ni 1.229429128008705 3.1955575744028066 8.26488867195382 -0.3825572675812056 0.7850902069533898 0.5603454516396995
Ni 3.8391928240451487 2.616016085725143 6.947672564276982 -0.16479254312977426 -0.3013214634281649 0.3699143820062145
Ni 3.891837403891559 6.73306582931269 6.0270654736325895 1.2412229339289012 0.9497778490741836 0.3497070538204041
Ni 0.6582485188758006 7.246474538166157 11.198690358038547 1.098304822274715 0.9438216314907488 -0.17979415874492907
P 0.06590722464062165 5.437314455125586 7.881405162163973 1.2936253587900173 0.06841551245992089 0.8042310415478987
P 8.51798324122262 1.7787191554652866 8.015633051909468 -0.5625866822653923 -0.6450057080932569 0.27269917170578195
P 2.049989863647295 3.069598537687171 10.516959740111117 -0.9188125110409209 -0.6217783621342001 -0.4391559899118566
P 3.8991453918393897 6.043462433257759 3.808190715173129 0.3325241142832144 0.5128615471261232 -0.3355027372955641
P 6.805225443642012 4.054561935529923 10.354962398384599 1.277425094881071 -0.9300472034144758 1.5172863941212256
P 6.194061118227131 7.522545060654642 10.207331117410341 1.5215891352616375 1.3813143747675696 -1.0095896790254935
P 2.2230809115227674 8.265361435618594 5.846884775226987 1.5944943080617957 1.3508668569109898 -0.7317164193179397
P 6.949030406482104 4.051521451655332 1.449371596395647 -0.5353993232173231 -0.7206768736743265 1.146090574299426
Ni 5.128682786336212 2.8070974150425596 0.6788092271897653 0.29002532168905537 0.11147017755754995 -0.9243462963749565
Ni 1.4176504175983902 1.1122667434524953 6.975561109394932 0.6300226044208633 -0.47501053771662066 -0.176862844030747
Ni 6.972984366977771 0.33806391358371274 9.087251142398808 -0.015255126386857599 1.4625152119176168 0.28370272190513723
Ni 2.990266268520164 1.5244372637101489 9.062650289636647 -2.1435487601687084 1.0450796444019872 0.6501620554832157
Ni 6.422386119456454 1.9859682803413607 2.566810771317885 -0.0772109992643638 0.8108706583516035 0.41642435264229566
Ni 4.212071631324033 6.8152220493780575 10.428051300070251 -1.7752469740652523 0.3034451946393871 -0.3715246639161279
Ni 8.129270460056768 7.019629178941086 0.3143544549070406 0.0750553863739417 1.2619596522556202 0.4214621721765193
Ni 7.373281662372036 3.91252532532906 8.30037030677164 1.5561756149872554 -1.0682278003836765 -0.9567802485339458
Ni 2.954520283027194 8.204055536722903 12.508340442637547 0.91047313793729 0.6642362741880947 -1.409097972638741
Ni 0.2018899337143314 4.871585965890056 10.12532917709054 -0.33638436856956905 -0.41178839653218113 -0.2655273365476911
Ni 8.717771000626032 2.1940745149150196 5.69431473795317 -0.32735568270839754 1.1260866203736735 -0.28422285607466535
Ni 3.9838819632048543 2.905782318960304 11.630384934986456 -1.1571694578214071 -1.8008219943208792 0.09778522387128966
Ni 0.781518937803222 3.3076585006395933 12.497089750080823 1.495196761311038 -0.027882585342881013 -0.08660015378874764
Ni 3.0171704908169925 8.368810065013443 8.01016559425961 1.0200928925496624 -0.5683505813323632 -0.5943048393042797
Ni 5.654009831089782 7.8461535936333995 3.594760476046365 -0.7840818202935335 0.011744542130437838 0.06349133568542613
Ni 3.0230800366266584 8.293231034101122 3.6264780459606847 0.4324351262482552 -0.5422181459113694 -0.12285245125256261
Ni 3.6576299234745986 4.237090212286175 9.484415025182848 -0.7110228955243304 0.2757112190592284 -0.49107170494454133
Ni 7.412311731337858 6.15118758893319 11.465363349358562 -1.1823930082748861 -1.2226652255313717 -1.1981744394788592
Ni 0.5860880023257449 -0.10382936654472308 0.17813265733874137 0.033636714217838835 0.312986558470919 0.5817090049171401
Ni 4.495892229920156 0.4086274994340572 1.6115538933726972 0.8135055248712894 -0.531626229328136 0.5218115572305594
Ni 5.983672265195692 5.7367795612544725 0.4933694841239275 -0.5745371697590493 -0.3138496778021627 -0.692809200729781
Ni 7.830888018809041 8.649599201942317 11.43162480499941 0.02599411007091652 0.7815870788961379 -0.1797350233722195
Ni 0.10935456632157685 4.728629090540207 5.532264165203328 -0.027584337376171844 -0.382717961528786 2.4086359238551873
Ni 7.765368749084169 9.02852288814101 2.555309261397027 -0.6753125866069144 -0.349100787694973 -0.3597814073372707
P 8.605661052181901 1.7609093181702027 3.4744637766591966 -0.5387764672196721 0.4434710723474427 1.2917160575824465
P 1.761035629073005 3.356576908853344 1.5303828983491865 -0.9766559044119503 -0.8281582417874576 -0.052774206378238146
P 4.8388714420643355 1.0042799437641174 8.138622880188523 0.906826028103006 -0.800164584788009 -1.0049231267877599
P 8.469055810801525 1.5581171637215712 12.412591364989213 -0.07556600746177308 -0.24584219941393792 -0.8624462164360502
P 6.31792700283919 7.890190987674587 1.248820558251017 -0.6119405501081719 -0.555051807340928 1.0928921358995758
P 1.9478945653538968 3.0694271157476543 6.05086064327902 -1.1029595474379068 0.36953951516529904 -0.34159933711160523
P 6.981266753318646 3.9748236670324815 6.024530233369206 0.2695053473588326 -0.04380157056598263 -0.8085255551581946
P 2.4110315348921625 8.476066065907037 10.127982608270116 0.21540805129379675 -0.44170061071058125 0.7249737012774676
