# total energy = -340866.54823482153 ev
CRYSTAL
PRIMVEC
9.29211738309484 0.00000000000000 0.00000000000000
0.00000000000000 9.29211738309484 0.00000000000000
0.00000000000000 0.00000000000000 13.59995305177829
PRIMCOORD
 96 1
Ni 1.0009840497544886 1.785647607526833 4.350162350021094 0.65915603145171 1.7849639442427 0.6115456286625983
Ni 1.8987698441845058 7.350910409048383 6.04931335395407 1.1707700793239773 -1.9214275585207943 0.7826564007009166
Ni 6.155544556382621 5.3101384274725065 13.572616699409153 0.15337375976987133 0.9597156770131859 -1.2760330996295508
Ni 7.6230486499711105 1.4446733612517135 6.808761822076812 0.2942612141472739 -1.3625759178178016 -0.33180343406710594
Ni 6.996267458146729 0.559641927100678 12.239495206982422 -2.1449109306235576 0.5032039694317011 0.8231188795913372
Ni 4.851033493286349 8.386842112168202 13.521127218731683 1.2123101075492928 -0.9355866451754662 -0.29059944902497054
Ni 8.363444560672882 6.232176648194337 12.615683790390907 -0.016499026096287714 -0.11358645256960438 -0.346237607214565
Ni 7.248650657576584 1.2833529118830709 9.386510398105477 0.09631326731145348 0.00132514656932675 0.62860824057184
Ni 4.1530653904192185 5.654179072474178 5.098241912562213 -2.807681676009719 0.3258603291097936 -0.21291793788209137
Ni 1.0159536508104694 7.909738346668923 3.988852304918529 0.3663947988887303 0.5193448408576217 0.3977586579119924
Ni 0.888393322209418 -0.03048743703579961 5.808254457942542 -0.4688373190263732 2.0996816264721128 1.855481076426656
Ni 0.9468110055854206 3.1983560850835904 12.861570870579149 2.436237744732856 0.5959506024378188 0.20333543639997886
Ni 4.734956363310363 0.6407723329230706 8.411353788534168 2.3214940386303566 -0.7130075300545269 1.2506655673990397
Ni 3.3173602320258295 6.159865390951851 7.6376521416033745 -0.5059838461696834 1.6719935279905396 0.6028943807455036
Ni 8.181133218203394 7.980767291716669 6.090208891637172 -0.9155353829515458 0.15183135498341593 -0.5431928511198129
Ni 4.650184376697257 1.3127531711885478 12.503837361445825 -0.6016237415631962 1.0228527146829869 1.3741944758933364
Ni 3.0254483653755266 2.379460366982113 1.68313046440435 -1.1671741344426028 1.0878368328638555 0.516052286149279
Ni 4.486299302939135 3.758865895945056 0.3064651808488614 -1.0370986830790396 -0.32170748328368465 -1.0881289101829776
Ni 8.189635505581558 8.355193160463253 10.89485427667295 -0.6479377941383874 -0.22044612793833648 -2.2704090470290836
Ni 7.523613702174678 5.9083556505531964 7.107811893277831 2.1397478983653793 -1.5700215197314122 1.292693076783735
Ni 6.1353713696088565 2.955813237930759 11.642485029945911 1.8616733212802972 -0.4484189032710213 0.2859120708516302
Ni 8.414068016013033 8.430115502681982 0.309971096726218 -0.10877540433420621 0.5390068380629234 -0.04390287203053729
Ni 4.281603249765825 0.5723442515224817 1.7453774293416005 0.0030277310827302693 -0.6225445508762634 -0.6583157949386017
Ni 0.27347630582158433 7.576132749454879 8.061630084559289 -0.4767953975311853 -1.028165899365784 -1.726023204042434
P 8.41587068677955 0.3096830410882693 4.560036900195334 0.39506517024022925 -0.3973845624020253 0.6451342632513212
P 6.708063146320347 4.207247726705639 3.332573286556464 0.2617187614348783 0.9679964289647393 -1.3370078395407101
P 0.6255425525812005 5.603546325016673 6.42786863965241 -0.4041383361860911 -0.16692964407743507 0.13085475273174885
P 0.17666731038916295 1.5650620336795769 0.5149282583971524 -0.7305419393938645 0.052623796843302914 -0.4976033354154721
P 6.218898212496636 8.23209118976826 1.621916782916774 0.9908792471001838 0.2533657614844927 1.058185585656326
P 0.2217461593046688 2.3363821109327483 9.810149178778001 0.692171310035466 -0.25948678678056597 1.008287158163986
P 2.198728684462667 3.590892290551533 3.410419858106241 -0.9801222656939959 0.32120740371881457 -0.4014042250843797
P 4.481272267451062 7.561283945924489 5.959132425829675 -1.098436719866889 -1.3738579184895243 0.4587071725709068
Ni 5.700946299112757 3.843935230313464 5.208156510309568 -0.9595058749952249 -0.6014026266913256 0.022415905801354944
Ni 4.17279255556003 2.508983190768157 7.077769548663249 -0.2066498454851925 0.3000171427944446 -0.34311963041087357
Ni 2.9208377082133707 6.776796938381856 2.516589718033474 0.4516186411552416 0.3483608242051549 0.024413652957674083
Ni 1.5521738669107095 5.798764418489735 12.016524346610604 -0.9268700912380746 -0.15936263036345458 0.6674522100222311
Ni 3.2422706316947423 8.90100284167198 4.746315976774631 -1.1708724092297964 0.9594868488318314 0.31771044630914963
Ni 3.177374484100099 6.296487392395729 10.509758269569703 0.42499306814791316 1.7615051989991275 -1.3103699252382077
Ni 5.087610801098434 4.824885475054486 7.230238327041248 1.8285991644341475 -0.5175898058397279 0.7661447761991386
Ni 2.511789410208819 3.9153544442900428 10.60328528915298 -1.0247471034922222 0.1789078994852338 -1.3073560781125484
Ni 7.158991017235704 7.484308045770707 3.7264689287931767 -0.06073896975126958 2.3920577077815324 -0.5658144451740708
Ni 5.580213818342825 3.7852090486413354 9.509277852575757 -0.9403629835181868 -0.8967177360244105 -3.1056769032781286
Ni 8.046462561403684 3.586116142231996 13.45637788659122 0.03524391080395866 -1.3101758069495306 -1.18375157918531
Ni 4.193904246186467 4.530622702713827 3.1113976632572804 -1.8498159077210787 -2.256318630374288 -0.6846765443203177
Ni 5.663536234648834 8.21458484067486 10.652041028905142 0.7260108842927303 -0.4444604328439056 -0.24169655267668047
Ni 5.038947982519806 8.747515647232072 3.4848116204241038 1.515341611690029 -1.7984370390284705 0.2010193866722925
Ni 2.4768975095476096 4.688263473610609 1.0519160033907655 -1.3573511790837527 0.43468252752153524 0.16943621254937272
Ni 0.8907637413462154 5.357844157963759 8.813273174105356 0.7035327577948722 -1.1190664803020984 -0.33292854881048467
Ni 6.929094741800556 1.2612562568171972 3.401484558059418 0.03510455701261696 -0.007636947719967492 1.0693279754263907
Ni 1.820929777116876 1.2804723555035835 11.268363013436776 0.5633922088858233 1.4005927633812072 -0.140528528376087
Ni 1.3296462405366378 7.4051392059215715 0.5380544800657588 1.4351964694980055 1.031558727097417 0.11327149243234685
Ni 7.8720402265670515 4.996733893384286 1.4683868447370414 -2.083771640110076 3.001393730387321 1.1006532679022334
Ni 7.326119039950086 1.0744196531967087 1.197112770728162 -0.5102158819731599 -0.6073174495138638 -1.1035563004816415
Ni 3.6487728895445217 2.586981223830791 4.722121161610407 -1.0517822532331433 -0.12252283582728575 -0.2790569956030097
Ni 5.566851753588946 6.061796384406339 2.698067557576381 1.6634096429762708 2.433176846419345 -0.8715705473348215
Ni 2.1406064904184956 0.5456833084127236 0.26340550903420257 0.13830118170746505 -0.25781634105667856 0.010387256771595015
P 7.126617280377207 3.4849621527252252 7.0316648499919525 -0.7839023572928757 1.2797357452921188 -0.48493705280171323
P 6.746820567800481 5.046994956147664 10.670237782317882 -0.4156378521852584 0.005909166395583371 1.6195137129242687
P 7.8785632929489875 8.806102447143903 8.255239712518515 -1.2509129075231553 0.3451171204568766 -0.4079435688647942
P 1.9781059421459986 1.8707912788340662 6.5981392564556405 0.9103864917607547 0.2053249560261819 -0.8747512590556483
P 0.4781035973264806 5.542060384490648 0.45636840562564585 0.10358023328651193 -1.8116771918678283 0.3495517591894625
P 3.4405458317770017 4.169456685430236 8.545230898511914 -0.2403474948479538 -0.5077761621834158 0.4029800542119317
P 3.1785824593560132 2.9926843595881962 12.333919845102017 -0.4787224393505691 -0.4310832402060511 0.8580385742866578
P 3.996167988910692 7.932522618418932 8.946117000633429 -1.4518924420964479 -0.42519181442228066 1.0846435227375384
Ni 0.43353488565366466 4.731657661649981 2.5471756515132173 2.9765774426745897 0.6301848410303404 0.8860723404954223
Ni 8.467878667605326 2.977268736899263 2.3536896087147903 -0.8123562417581945 -1.6787398455754379 0.12790364052322487
Ni 1.7472247022714136 8.459181245762744 9.435007816995222 2.956408938146515 1.021783649988524 1.3393012635605772
Ni 0.032535419700441555 0.7801262168687843 2.5673311832640113 0.8540803609698582 -2.136264567802469 -0.8940700139889183
Ni 6.200462651667917 6.252331250733395 5.481066926184343 0.4699349229659262 1.1639468857545565 -1.3218218758288913
Ni 5.506192811507355 9.305033396305813 6.300205168548739 1.075344871044432 -0.20869824337378898 1.134881078736852
Ni 8.075965034000047 3.6994892660582046 8.99606956510068 -0.30740237951492216 0.4687756125505023 -1.026908115699283
Ni 2.8886591058192916 0.07291245723523583 7.373771805372424 -1.0934184407166911 -1.7929752445829508 -1.2740188974129993
Ni 7.943273598196567 6.197043152481944 9.45733956263013 0.08575734617247811 1.2031942612909539 0.03555578561742264
Ni 4.731917840935871 4.764886273304971 11.43305928903983 -1.1309331498326975 0.8437501826884436 1.2384862517240285
Ni 2.699164956635792 1.8282426734738326 8.938120204439278 -0.08232209523868403 1.241237074996288 0.9794020996985195
Ni 2.509215493701987 4.279001456906934 6.195961550022034 -0.45545832661630586 -0.6944253961769654 0.8628352243443526
Ni 0.8685973954001929 8.4160193606572 11.87428247259152 2.36082600346076 0.30344390908780644 1.4942781061515105
Ni 5.438574073528228 2.7641726096386736 2.1810792367620278 0.48839724343617175 -1.0825820122228194 1.429084957283629
Ni 8.621756130974068 4.231397939706567 11.237912744870387 1.0417055857234319 -0.5612656494611237 -0.0684489368010176
Ni 0.26082694646869375 3.018051839962391 6.874912405514135 -0.8356226684853029 1.1139623263063139 0.15354936611578718
Ni 7.8467563752490355 3.271392127479624 4.80578831547022 2.4231395167880008 -1.2336440931403787 0.941918500930765
Ni 0.6443200633285165 0.8294376252386657 8.264704663254468 -1.5961092179573995 0.426446255654672 -0.4933224486519311
Ni 1.699909240708996 5.622455783830404 4.302304228805251 0.1088499663258835 -0.21767679272331542 0.6408587758044189
Ni 5.932106302507937 7.573224316723332 8.228529521186784 1.2784818182803594 -0.3519724528158132 -1.0914942271107848
Ni 9.07547163709538 7.2400461569075345 2.3861664880759066 -1.0775493348949183 -1.0010119646588116 -1.797186197340505
Ni 8.405556436517514 5.750900722003479 4.296864623306696 0.5521135506482104 -1.1519837998554094 1.0937534554586066
Ni 3.754015410686694 0.1646330892050532 10.783280106766316 -1.2419284446363579 -1.528034376666349 -1.3021750481322412
Ni 8.944926680400485 1.4347772562705716 11.875914168398738 -0.3647292382608493 0.3850664071563046 -0.1768340476753406
P 2.1811758747825007 8.899785574298713 2.494027527888206 0.8134397046303604 0.45203850230147957 -1.1799676866628452
P 4.23333070011603 5.907993257976423 0.7932243854898338 0.25889311906062507 0.8124506012442136 0.6031327220085548
P 5.035249719813239 1.7752683124433255 10.100399614845553 0.9124207485819642 0.2598099744479397 1.314639756258155
P 6.866149938850081 7.713665378399369 12.44905661280186 -1.3124049533903657 -0.2774996784182189 0.600497855488869
P 5.236637779208814 1.1872631263337858 4.686489608407886 -0.4572784105441802 1.7679679239053359 -0.957634626114441
P 6.227456252578919 2.566770868587614 0.22423365912011636 -0.09941041817953847 -0.45906378457937713 -1.3882488971038736
P 3.1092353875491945 8.010362685486562 12.46369076842139 -2.06331362936604 -0.3381175492105919 -0.8709115735945839
P 0.6217457934306891 6.9610875018475715 10.298252023588244 -0.4392464927431338 -1.586990800595899 0.5251606762084504
