# total energy = -340897.2936028792 ev
CRYSTAL
PRIMVEC
9.03261062883526 0.00000000000000 0.00000000000000
0.00000000000000 9.03261062883526 0.00000000000000
0.00000000000000 0.00000000000000 13.22013868558275
PRIMCOORD
 96 1
Ni 6.493706230679117 1.8655411641481794 11.408635903604292 -1.5033648989441268 0.6269881884699138 0.8708724928265325
Ni 4.602783431200889 0.4844360597358244 6.052893163052358 -0.3415623132260827 -0.7821840890501884 0.03037784096090897
Ni 2.868829335909705 1.740556933521172 4.665677497678872 -0.7164232406042952 -0.8204565022678256 0.749080364517684
Ni 3.5183824177084584 4.157520899672499 5.030501020215013 -0.8303477932396087 1.1302708336583502 -0.35850074085263417
Ni 4.96527112067783 4.618500173362556 2.618129233210233 0.9424838865159317 -0.27339079845616787 0.19284173595750662
Ni 7.215529228590229 6.057349853042339 2.605411317713895 -0.0037214147156452034 -0.5620056129509418 -0.023318105900650164
Ni 4.972009448064385 4.513496077023829 11.292457564893038 -0.021034966293428287 0.009153127254177783 0.19998451764987496
Ni 5.552065625155167 7.800625602305271 12.286823324064164 -0.13690764379404807 0.2568025550801835 0.42387643804496683
Ni 1.9676186947050784 6.3885124495211985 0.46211015651686255 0.35071055538425405 0.4800961797696442 -0.644002206529407
Ni 2.8170815107118927 1.5755221082132256 0.40154560027077246 -0.44172323641840056 -0.7763926791793919 0.4525025864220916
Ni 0.5506812246862091 8.989010027156962 4.721731168272354 0.33058370272739196 1.1592242834679067 -0.36101630818563635
Ni 8.679110195648544 2.5447573386244713 1.3517328617909123 -0.2076093811849844 -0.9958008527715172 0.23987106943216752
Ni 6.7261514276839165 0.6375442262217789 4.7855447544929 0.5160486866048533 0.4720504266470321 -0.14955644290631018
Ni 0.6584203954654835 7.310326475134309 2.3849523947599764 0.027203042777353147 -0.002733596881079163 0.5526336848177386
Ni 7.452030067681574 3.721363239465351 3.7629936377118502 0.729327350260473 0.5116017065770931 -0.35254015239382513
Ni 7.760331127142512 3.946022326272818 12.708664296727493 -0.16926549129946333 -0.698997331818364 -1.0540075430192364
Ni 7.936214117586185 8.748688393850454 7.0367756745494425 -0.2319605563358392 0.6128589481573832 -0.508340519327318
Ni 6.935021511446215 0.4829836159774357 0.2118779430380656 -0.5889911404008501 -0.033998725542947895 0.8218916920524556
Ni 1.7962429768698387 6.5917823148120975 9.11186165845962 1.0661963717759444 0.2358848310909099 0.034292088413650626
Ni 0.1249200990928995 4.8978878468122895 1.4692733181561783 -0.055772883995245874 -0.004395043743902109 -0.10893789805399949
Ni 6.330477927458719 2.0622894847030304 6.987728599872516 0.13941575492788247 -0.01719270972920265 0.4303890423525039
Ni 3.5242807123243027 4.344532066175466 0.6859563083849336 -0.784114730413998 0.16380035441983404 -0.4128857433614179
Ni 5.954892952847055 5.679985454174441 4.938369297011109 -0.0829566434988894 -0.29515621515771745 -1.2010864709193314
Ni 5.421661828265515 2.907407615089292 9.175820669708212 -0.11737163064364947 0.41142895631023335 0.4089570977309731
P 0.25699041260831396 5.5894515997569725 12.522921308729984 0.24898357325639703 0.003725271370387133 -1.0078300160219094
P 4.027893907280493 6.041009860760467 12.642973734057986 -1.2105640713924635 0.5202866359456007 -0.231802176381104
P 2.3135496092496424 8.503173009542245 1.47625281624142 0.651808075727071 -0.3251568752848658 -1.2026661567016257
P 6.292017072214822 7.801835972103928 5.814243465937874 0.20580343832449718 -0.6930809663339289 0.9182183291003477
P 4.683959501204858 1.0561108776014285 12.575722336304837 0.8000074903848544 -0.6482308998987739 0.2501014889109241
P 3.9669960477092503 6.272660188046745 8.400577910407263 -0.17037800763735175 -0.7890381358575442 -0.46727203142178236
P 4.737297065839711 0.9023261685936872 3.788005839274996 0.6756918243232041 0.867828563793886 -0.5992683539571422
P 0.19490205498137717 5.4908606568290415 3.68750630576157 -0.2890357040822764 0.31004290246156285 -0.2689787854314013
Ni 1.2648364395967227 1.1099903988625472 2.4703683721034206 0.34272985117162263 -0.18265553945312413 0.5552191861567276
Ni 1.7518838270100978 6.667051057589784 4.824900741431176 0.8697296374713408 -0.7569566819419673 -0.7738431732846608
Ni 6.068505126932948 5.579786706588591 9.199762506934485 -0.4072102902431955 0.5849696779462829 0.3229760655834631
Ni 8.422575026606292 2.296017312389989 10.32589327738823 1.8979212478687377 1.0364170836309827 -0.8006487235132791
Ni 2.360654672682456 5.1540346136057185 6.9827841489188955 -0.7570255875066898 0.08580542580159417 0.4471544347363009
Ni 0.5900083072710849 9.335293213508598 9.1951612951775 -0.013207499829209513 -0.4725718463681409 -0.1863057346112017
Ni 1.5189869994834115 1.2009668511914637 11.450940134589445 -0.7853414037322475 -0.17186899036058143 -0.2060824030174967
Ni 4.122935034306392 6.877781859102257 1.772013902631645 -0.4405752388568864 -0.3106157442458973 -0.5881509038877418
Ni 5.723621995199161 7.713786085556839 8.02993829001026 -0.6207992860503825 0.7091824998814819 -0.04106668813332282
Ni 5.340494790871985 2.897950471960978 4.822349932243558 0.07445554800641371 -1.2204970142354594 -0.844116821999243
Ni 0.9418122251222674 7.555209576711876 6.814478615371445 -0.634306833618514 -0.3155455774473469 1.3504809343264805
Ni 5.0216436424197655 4.707263636134226 7.10413185058367 0.2684113429637055 -1.2612927080955827 0.3474100302561114
Ni 8.272552399845868 7.364928605230447 9.094992355206097 -0.17752490309477814 -0.6807905790023501 0.004494802546560001
Ni 4.678684456709218 0.3373689031106303 10.521009405236983 -0.5289016313081214 -0.4801231763528377 -0.8230263198775308
Ni 8.158416334354587 7.236972645769423 4.644829329527524 -0.7272722675036571 -0.8081373185808405 0.2658502671047486
Ni 7.187916538482058 6.006758201980558 6.971666811992126 0.7264415440722457 0.3999579795561563 0.490617133905626
Ni 2.2269539729830297 5.378576276477497 2.6785059111592178 0.7109869000800723 -0.8873108408882137 0.5483481700685072
Ni 2.402096289370807 5.199071209248291 11.284551320976883 -0.8329129828636236 -0.4202933486793987 0.7399856013052675
Ni 1.0132782389056658 3.2852055792582022 3.6866734990792103 -0.39586966841939564 0.504933036307666 0.17588222528503258
Ni 3.7486236577664496 2.594364435148539 2.5872205435533306 -0.16910942533757328 -0.20587234388921963 -0.07588713824661769
Ni 1.0409722225077764 3.2884392537949134 8.102397890941813 0.21582919799161537 0.45606022186636297 0.19894424931081867
Ni 3.6870664176332517 2.6606547631511126 7.184457951945447 -0.31612330432768787 -0.02676724079151519 -0.9374527518499274
Ni 4.0976437250807205 6.636159529892714 6.185966999587405 -0.19989761436302347 1.822275793319281 -0.8005345665329182
Ni 0.8723324823741281 7.33989924170747 11.241004202795494 -0.2526751631753713 -0.41569441645480665 0.7706514058202406
P 0.20323644463227983 5.709729840345918 7.971941704911621 -0.32020364504464854 -0.9118849306831521 -0.04602943145523685
P 8.455399532937038 1.7253189197127048 8.029184970299754 -0.19725400609258933 -0.09257719730778896 -0.5821810594575522
P 1.7997566623301195 3.2614407811965087 10.357766649839883 -0.8047177513763303 -0.10109629052239363 -0.22511936504428973
P 3.9723072226466414 6.035825142369204 3.948115182111242 -0.4853438013218287 0.7590791276016089 -0.3040925984153989
P 6.86717757444835 3.9658398735732194 10.471697675074228 1.0761941064186045 0.08590801281772946 0.24944971425953816
P 6.484456837590872 7.869300539463407 10.210454709471826 -0.7180108968063892 -1.2012445937637506 0.6800043356556288
P 2.4908055564798506 8.565507054173088 5.707543948619985 0.5418350515403378 0.6239558294014932 0.015411192348747655
P 6.894817362387835 3.8880871629251543 1.514247588786729 -0.5588526691442569 0.676865275806015 0.7672161548864463
Ni 5.269534603273099 2.8302871871718684 0.4579822535468154 0.4349373238448187 -0.213203073222678 -0.3965939481799299
Ni 1.427098253500283 1.1492009607727762 6.8399541898500456 0.23462396210061529 0.2510306855934128 0.20561137691834913
Ni 6.8298277302882955 0.7014996244261964 9.136172929452798 -0.20351901316569465 0.1455702045650525 0.13462861795188427
Ni 2.6912120842619864 1.6275138138928567 9.150768724659141 0.34569947532290785 -0.543173053625471 0.5730446443739229
Ni 6.469625291252103 1.7888813993630805 2.4166017584727735 -0.032457092087440874 0.7089577854651854 0.7258278217476467
Ni 3.9694980808005043 6.795025082271684 10.58153060495297 0.5644070233035828 0.9917570217194467 -1.1243302998041993
Ni 8.024869189032602 7.107228229441727 0.35624073609820034 0.1297779747278023 -0.214244884223631 -0.05117960819760863
Ni 7.69687703881739 3.8795874765032408 8.349932063682855 -0.22778431347096254 -0.17286940660063776 -0.8365888890533141
Ni 2.999639600269054 8.40255876187626 12.377844036184223 0.3869263431831788 -0.2613752620525305 0.5144137221045915
Ni 0.08403218142438214 4.891068225931797 10.176796493197676 0.11828848603096404 -0.2583120497461745 0.33480468278727504
Ni 8.458931283618194 2.1793792138074535 5.748261149951229 0.5449067484871261 1.0349484695052562 0.27172472360765465
Ni 3.536790877780573 2.6594714911837687 11.54037472031664 0.5096481823951481 0.3023190514547439 -0.16763644033647257
Ni 1.2545302310872617 3.366282290547356 12.645075622506848 -0.7085613213577152 0.5491457262691382 0.061969499724261023
Ni 3.2294563076364713 8.473555079916895 7.859240017957853 -0.367621986427612 -0.26530365057265926 0.8261011021481128
Ni 5.653854112178058 7.77972414175234 3.6929403242009147 -0.6286303520590271 0.03883162815521699 -0.8460194383385945
Ni 3.1336474087233643 8.367132863739442 3.469003846228466 -0.23504562301906617 0.03845881819683054 1.0808429180445256
Ni 3.3942562850730367 4.183110285042616 9.12915368788163 -0.07567116558106968 0.8351153898315811 0.14686141257265029
Ni 7.203073258796586 6.05478459167802 11.451627516243757 0.5311030098348144 0.25152330895911523 -0.7578781653149722
Ni 0.45626063799738215 8.885631800697029 0.34660023097800047 0.7511300479578613 0.69599042667124 -0.5452271079410222
Ni 4.7343795326683225 0.3444820838303505 1.5862447200638665 -0.5110689740020747 -0.8410171000279968 -0.46316495123194423
Ni 5.93316952474429 5.551324951099272 0.24625696162514757 0.17713692362774008 -0.3892899583193489 1.0815605129368404
Ni 8.14002593950335 8.88602923555629 11.280744075677376 -0.23246706365861255 -0.10144493211106399 -0.08410335550882289
Ni 0.03971006526743606 4.884402159428745 5.885790773215213 -0.001784345593932411 -0.7111769046036912 -0.5057961556389096
Ni 7.8943389355968225 8.789380303872473 2.456632481410749 -0.38630773576257343 0.10987146561186238 0.3307572521907787
P 8.410742306932852 1.64976113340101 3.6411437229067385 0.04224245360897887 -0.9957951963445624 -0.9957232054560464
P 1.831316603199583 3.149535770483349 1.5830191748765496 0.2841259254854849 0.678178852411116 0.4116516138440007
P 4.721291280144037 1.0250477303060408 8.384647998639265 0.302565363137595 0.050915813013260695 -1.428047260047734
P 8.527055231539629 1.6434112082632788 12.51036236717735 0.5522960989726617 0.4228636805097363 -0.049848805201327055
P 6.12856295373348 7.514680253677737 1.2935691733991737 0.822126690881397 1.2063410344500516 0.6699340959038204
P 1.6578543523532252 3.2881953733130946 5.838594480416979 0.7302334070145101 -0.7278530797077916 0.933242827533638
P 6.856383604975251 3.9481720875570003 5.892427032103821 0.616859327566028 0.3195390148774561 1.5226489439847197
P 2.40352344181997 8.556311856747469 10.177603105309768 0.3693271420441769 0.1882543736971403 0.1070738482620672
