# total energy = -381163.2619870133 ev
CRYSTAL
PRIMVEC
9.30035687247355 0.00000000000000 0.00000000000000

0.00000000000000 9.30035687247355 0.00000000000000

0.00000000000000 0.00000000000000 13.61201237734285

PRIMCOORD
 96 1
Ni 5.470386073802225 4.613348908855891 13.212118267290883 -0.15997763823963415 2.301335561404611 -0.9289362297384841
Ni 6.218395157830653 8.910318285453377 1.3328369005177212 -1.7457093696174517 -0.12427195730790855 0.15036196952674102
Ni 5.44610284260913 6.756327786022381 9.150539057239161 -0.9980114872695909 -0.19917770547786343 -2.174867110666016
Ni 9.047963563759698 3.5583257517078724 4.974836100865208 0.33675460742479424 0.4712574984320917 1.3007534851943663
Ni 3.6662842916119103 2.743688912693871 7.003380599797613 0.14946568296471677 -1.744970434568898 -0.5378938075044026
Ni 3.41602099472375 0.18018603962395152 6.1917914876553 1.429676311010725 0.7717973464992256 -0.4059784747186234
Ni 1.9398125863150326 4.19900872008394 7.6844029350740755 -0.3885685067722921 -0.9487272963224823 -0.9059030020681043
Ni 6.181193731261377 2.920246883191654 5.742363843378872 1.004941895840837 -0.05279323254163166 1.3641687162262184
Ni 8.282014091768236 5.753907446043318 10.568325415327823 -1.8868241095143117 -0.8112923192700543 1.773117072206443
Ni 0.7813973643743534 9.328629726511599 2.9501317191904173 -0.13374441557471806 -0.03931499554953874 -1.5407659653004047
Ni 4.673764025604395 8.669280942354396 11.432170441336336 1.8510649496368317 3.5015704829569247 2.582984743214829
Ni 8.377640358764559 9.319236366302857 4.826301965002061 -0.956139015405521 -1.3617462228276547 -1.078167942315524
Ni 7.80356654466078 4.577626238992744 0.06432684675226324 -0.4193764932920842 -0.5639557946987772 1.1583737625421535
Ni 0.5964067605089799 5.036989454270162 9.297725571424838 -0.3638555774066443 -0.5311750007233303 -0.2075661866518748
Ni 6.168173231962131 4.149400617753811 9.585361421444492 1.0682427127820118 0.6673228835332184 1.3764557611236874
Ni 0.3851984512689093 1.0185192573269173 13.063352552547341 -0.5352489136823878 -0.2158651934358734 0.31870854855636077
Ni 7.45219907071397 4.0165171220483575 2.796383803393586 -0.6667994069295806 0.9012889003348606 0.5174730777562055
Ni 6.853070095815783 7.232366540759477 4.266440025883409 -0.9197905586834739 -0.8842072622622256 1.7873463284319475
Ni 8.492453261513987 1.506871684258443 6.541307260594624 1.0895162774488074 0.35238305799067055 0.6005587906337915
Ni 8.683138473751452 3.870148109211542 7.390110819805512 -0.7947724672381602 3.132728765189598 -2.6216672473866915
Ni 0.9992768194339595 3.2873226595073404 12.955627451595026 0.8537695145976587 -0.5349900035940465 1.9570175398102616
Ni 4.307432277820094 8.064813562743518 3.178200644987348 2.134054190414712 -1.478133120960532 0.2945545770179766
Ni 8.960512310251971 6.3880615640564775 13.021509317977884 0.5870720690012664 0.43903206273948264 -1.7292537951645894
Ni 9.249418588988968 3.5221194632993242 11.124975011262219 -0.3267944108882888 1.0942031414015156 -2.048157233340576
P 4.283288551976634 6.738294394492925 13.04155995686306 1.5187241550090167 -0.8211417012603084 1.1071095650505385
Ni 6.268923995468372 6.4323777634571275 1.933681791216416 0.23891230506332406 -0.45203593119831825 -0.08003587030766861
P 5.645037471188332 0.7796665680032179 6.092845923373333 0.39220481797329876 0.28791238911111056 0.09810378355297299
Ni 0.7074585990322535 4.806517316316856 3.3064665136198896 -0.07700916766620286 1.0418246277997993 -1.2937464577489137
P 6.15950529957149 2.2165446982072328 2.496021345344581 -0.23402926593940987 -0.39132832890561636 -0.02787924290877134
P 0.8160039914404222 0.20408516608771854 10.248415467687995 1.167330457514809 1.4669920167420478 -0.7906887840870899
P 7.233157071074074 3.8507475652556646 11.836148172737415 -1.4352571475326121 -0.6933547888206059 -2.197417742273022
Ni 0.9385826919861859 7.6259390331491295 4.6264093996887 -1.221536511243567 -0.22360344262039553 -0.41739648674757795
Ni 4.791748349968853 2.3888710064327605 9.228399782977327 -0.4065867977265837 -0.494981838632225 -1.1721335353304072
Ni 3.9340880611274844 4.77509141122246 6.03533437796856 0.22802188340306537 0.8846983429660312 -1.0733499521015901
Ni 7.995665411107878 1.6236283615461153 11.239070856514523 1.9036324393209023 1.757302987992322 1.0668967402770786
Ni 2.980057476758407 7.193258541078525 5.552789093724499 2.22838539429913 0.5512607157296119 0.30250339955140804
Ni 4.075276775314529 5.008083945825835 8.316394720167896 0.3093173371494479 -0.6736297995878527 0.8335228485334806
Ni 3.432408223127516 3.3932351209500684 13.11333638928582 -0.03274839807561456 -1.2652151830784404 0.31434127272660056
Ni 2.025571174913855 7.1468776625032815 2.4383740147328314 -1.6721367384366237 1.2619820208531234 1.0158346314939408
Ni 8.746669209975133 8.743302480870614 11.583237064313186 -0.9905974541937068 -0.8956101047825286 1.2476434927432642
Ni 4.642635731922554 2.509831444922761 4.218063290772723 -0.39751106067756053 -0.3118755847949274 -0.8150031924627382
Ni 2.0766952353766825 7.758283108169329 10.945568341524893 -0.4027116310418936 0.7788969336584844 0.8334927666264936
Ni -0.003878248719847002 7.588058680544965 9.723522869544462 0.8708910047692937 -1.0547266805734479 -1.982097365597025
Ni 5.514813877482583 9.322398487561244 8.168364663634764 -0.31334265625875707 -0.31106080220311594 -1.0923491189119123
Ni 6.640501144398941 6.911262427326772 13.110137066600863 -1.6184860429907029 0.29213876848763237 -0.44377574807205505
Ni 2.171530972058409 8.736243510179094 7.965708962362968 -2.581991268953308 0.34700970949389914 0.28422234185403306
Ni 6.2529552831135105 2.469877112787359 13.417686840263052 0.276382276984324 -0.3289245698574142 1.7499236648091152
Ni 6.048691550178259 0.33608791801914406 3.945945085810777 0.2273937629007632 0.49280180026177073 -0.22069166829023928
Ni 6.271816406384134 4.939531017015302 7.38898082647347 1.0105103910675501 -1.0789757829287998 -0.557105347435847
Ni 9.223703102872957 3.362757852233189 1.5253208017298112 1.529141750797915 -0.9512690889077294 -0.2481014277617598
Ni 3.694176061182225 8.320908183246413 0.9962142119916438 0.7660149354894936 0.700800960686006 -0.8577243854803487
Ni 7.963197866069542 0.022212041768850346 8.779952396291 1.1037067100165765 0.07589767976957897 -0.8245792661869477
Ni 2.4569589174111774 6.360718515528061 9.274599304598047 1.3045384061580951 0.16548494121110854 0.23254753918756077
Ni 6.445565669175936 0.8200980084343711 10.181091115989911 -2.8241578192878714 -1.1744225884749 -0.7189562914387941
Ni 6.8310468512867715 7.6618105087185535 10.65167149141363 0.3671561025347871 0.7549597061165966 0.3042332377583212
Ni 1.413328697149999 2.3246799448874755 3.288512175121893 1.9295123924114574 1.7664977671177124 0.5073946104742809
P 1.5438313015550187 1.6186433703858323 7.09219900573176 -0.05815809639797081 0.19357964256479565 1.2383818649356801
Ni 0.14466425746427855 8.323679689525825 6.768750272389527 1.2673887936909916 2.3841518226708938 1.101301957229826
P 2.2574476667201515 3.199899307069542 11.08234217641383 0.6306867203674235 0.2454807023094611 0.04569853047837936
Ni 1.2894572470309529 6.442570954337109 7.41397274484271 -0.18988805264582137 0.3300000623097801 0.18611804408042784
P 2.7829829195076683 3.3154283372804283 4.901331662178305 -1.8204428538756001 -1.2407470227337472 1.9831558887685266
P 2.4772522956047176 3.6872472954836977 1.4569343493031757 -0.5675980194370548 -0.20537509253782696 0.7560148868539883
P 8.61691993445814 5.809979296239859 1.6685602445564864 0.07772110613156293 0.6005937576367849 0.8917195114788706
Ni 5.016565871083629 4.018126083747479 1.772106695269409 0.2463618193628338 -1.1251828776124815 0.9460032125230998
Ni 3.945704206573741 1.1715194244497062 2.304894366166606 2.831586507651775 -0.43199212517356567 0.8820513922614873
Ni 5.438997370134398 6.5866148780133456 6.092872894407596 -0.500230488625674 1.3271929103328175 0.29377836097358434
Ni 2.202808071446528 7.188831571316781 13.262142095562924 -0.7173809765318742 0.21902687899330667 -1.3974400766848385
Ni 1.3099087312874123 5.373011339757146 0.5446670164364311 -0.65656461657545 -1.982155215418154 2.1310925366832265
Ni 3.3956439133204293 5.771931537216132 1.5330531182422351 2.497681453860634 -0.03495774702210754 -2.1219183263831263
Ni 7.253859664959875 8.33191980551092 6.62733462950041 -2.4421312273991553 1.4456575169303296 -0.8459302210588979
Ni 4.200013158601311 6.749380419610569 10.941036277733092 -1.319813330039295 -3.0439007505115967 -0.05235820188674209
Ni 8.535876626676973 1.9235741636175436 3.5745548740487187 -1.5106879149681016 -0.6952414643203575 -0.2765252303200915
Ni 7.919123475941592 8.19383741044241 2.730229436561107 1.7328844499386413 0.3659433131736085 -1.5547820770738385
Ni 7.826482623427453 1.3072581296443513 1.4689811012619716 0.4775926966215 -0.17844021582019592 -0.984037284477686
Ni 3.6187594691696603 9.221564020845223 9.553277981135484 0.8997632077189537 0.18123731894935882 0.15254894987573084
Ni 8.603862233732325 6.402114402943022 6.27075430565558 -1.4627283563696873 -2.919811084417823 -1.8411739157753648
Ni 2.5200618372293113 2.0538721601764323 9.106817150627956 -1.5334784305000557 -0.047744614374130676 0.4132788650347785
Ni 2.111106554953263 1.3761365709373654 1.2510774652750956 -1.5047694926011375 1.0325043788401378 -2.213767130165323
Ni 1.234929256037037 0.7566147040295662 5.164887028779668 0.2115511394415518 0.6640346997002499 0.44791393861014467
Ni 9.047638051277216 2.508473592852982 8.833461068196916 1.4639899966909304 -2.905340915826106 2.792666947768442
Ni 7.487028906339455 6.849991677767176 8.27969644289297 1.2866273302056292 -0.6813919600317748 1.0550395838281765
Ni 8.329111097804939 8.304697661618851 0.2780230013941542 0.8294633337521264 1.5562715171351713 1.4671689086395443
Ni 1.6085989852121279 5.516199630622288 5.406759543905128 -0.9511274211235425 -2.948399694688793 -0.48251841605789153
Ni 1.5188319429004653 5.336070323173854 11.81294006277217 0.8028508733709205 0.16053916717005898 -1.6777530561821365
Ni 5.179229108757788 2.2891990842970285 11.39462862171395 -0.3493517273635145 -0.39103805135870723 1.4426434126943541
Ni 5.616438874513201 5.15023989710368 4.028624326325328 -0.47835091494376325 0.006607735124504749 0.017267528831196068
Ni 3.2217179437524224 4.630880081126663 3.4878057974674888 0.31599423494899126 1.1259583223259255 -1.1048446802757619
Ni 6.863319088835619 2.24159985900164 8.038111308787757 -0.9536766699079575 -0.16372399265594384 0.20393167522308103
P 1.286220722919426 8.75014754335936 0.7303932785122121 -0.9155986320893135 0.20778807285469378 1.0004566063759737
Ni 6.742898071030872 0.33681055573025226 12.749160464171208 -0.876076405624975 -0.9921642844601946 -0.5459465026055501
P 2.7162435602423876 8.904691569684774 4.0278756476156214 -1.1056905732158249 0.37460150306923873 0.5090809970377685
Ni 4.266557210377102 4.44277106767912 11.118754002704172 -1.018618107776349 -0.1827498989391433 -1.3161783043898687
P 7.301226381339206 4.735629997989101 5.294936705816206 0.3373829850374125 1.142900606607219 0.29783324776924835
P 3.8616196821705358 7.535325658383017 7.594019279117028 1.2007362866687643 -0.9052360579080668 0.40394087546330437
P 4.233224732171031 0.9321561455463436 13.492308251782697 0.6355152521043184 0.29161477766336225 -0.6969893002493996
Ni 2.609763777044478 0.7103045081648032 11.627625806495647 -0.18603731144116348 1.5733030186961614 0.36561935417528646
