# total energy = -381171.55912122625 ev
CRYSTAL
PRIMVEC
9.21897057590564 0.00000000000000 0.00000000000000
0.00000000000000 9.21897057590564 0.00000000000000
0.00000000000000 0.00000000000000 13.49289530565922
PRIMCOORD
 96 1
Ni 4.487887163077936 2.9861536996800115 10.08754532576259 -0.48965811242646634 -0.19612812001826221 -0.8352891964052841
Ni 0.14184677193562653 3.0302295989562706 9.92585932871872 0.4629253244173124 0.2890822410494957 -0.7692678952091526
Ni 3.1009022289189985 3.730668560514857 12.00473723852763 0.7071973511306531 1.009174445864946 -0.3681025256084564
Ni 7.382339760456975 6.4003995262774795 1.611335041253113 0.7892687638111117 0.5908888716441952 0.05095566511226063
Ni 8.915426943461375 3.2005132081450967 0.5682721089369258 0.003368402251600651 -0.398519704447733 1.0494880578823282
Ni 4.107927282577829 7.263719263492402 8.775819459527046 -0.88014517637771 0.5630289120091335 -0.14607774032909035
Ni 4.340512696265496 5.175843638206893 4.637656718497775 0.4254226994861642 -0.5849825334620893 -1.6509325935551826
Ni 0.4985084694926335 5.203721805831116 8.34878290476335 1.8911204228968204 -0.9938103047040497 0.8875905769121617
Ni 7.981342386575972 3.469338395950098 7.763420667803348 1.0893851511875818 0.1381983375810136 0.49635377927908714
Ni 6.763802135265317 4.3391575075615405 0.24545048740446682 0.4235157122714383 -0.3777084241293366 0.18986414138642138
Ni 8.289495703708 6.8189868943256995 6.1306727231306635 -0.26511261760777566 1.453418391822671 -0.3531322774518692
Ni 7.933901562966763 -0.1601132406296193 4.431674488776118 -0.19943404446304364 0.5507066429983548 0.7362410466611707
Ni 0.9002002298011331 7.781051027513851 11.552333763778877 -0.6149729091765925 -0.6194857094452815 0.027589222472178293
Ni 6.761783180665548 5.435376103470488 4.911576309553154 0.6690290675910479 0.6507567516444211 -1.802987377403314
Ni 3.4036347912352065 1.768705638077109 2.703747124128977 0.21800229438353425 -0.20863062336064717 1.4687671063645995
Ni 5.6950560722664845 2.688768140413423 1.6607053954455728 -0.17188236009702013 0.505611036211297 0.22409272355198828
Ni 4.1036588991089085 7.721911329990906 3.0968892109405513 0.05254434975561919 0.21218183104701524 0.8434689040025989
Ni 0.7099243605891956 5.780488274440317 2.3281183160990624 0.3044772354483272 -0.7293327495771117 -0.6654832592213183
Ni 4.237841018742029 1.4618798527367094 7.364597851200092 1.2836605342678216 0.1139410076955457 1.1089332485228385
Ni 2.0393654010663758 0.1024790010342652 12.888076892677988 -0.22419556767843968 0.6129671916004734 -1.6907538393171786
Ni 8.926047197794412 6.792030623778998 4.062723903175763 -0.3787039552733865 -0.2294712142550822 -2.0905251567838254
Ni 7.411563897814378 8.958829857871043 10.492305159545078 0.7248520880979388 0.07405059925851118 -0.028990987915711364
Ni 6.47050979902292 7.508215587421636 3.578909551201729 -0.33175098356261573 -0.7570965499539413 -0.47580269460061286
Ni 8.940179879992803 5.4512603901161665 0.04310975113901737 -0.13110389262807742 0.5493092484301958 -0.8193725251750275
P 3.674312992166024 5.8121646580239235 6.447418121025184 0.15070881134319852 2.177519717797514 1.7565380848018393
Ni 0.33112607040676445 4.2788838766332455 4.120986876577986 0.8291720277639526 -0.7465156891143013 0.16939533200910828
P 9.117110367110552 4.438501136635159 6.248613781949104 -0.026017249999368098 0.5032314802355269 -0.15663546124027863
Ni 5.626282550283449 7.894398273195006 1.1891043359545326 -0.33218678554845366 1.5163610540934787 0.5190918443065512
P 2.971449441293559 9.115285010897061 4.484093556603939 0.2709099410158431 -0.03886608093757823 0.005217539645197467
P 3.742155398100763 8.106987739271252 13.191747946219113 1.6511069143495176 -0.9011050664588288 0.018469776669413355
P 5.193341244738234 2.7739422114055494 12.9587255533167 -0.3572609549082621 0.26953800036898096 -0.23284398738205708
Ni 0.3290278326583276 7.980254548024498 9.150341991063936 0.6626090229973169 0.06246726529628596 -0.4889117211787451
Ni 0.3617155373359748 7.562469230433722 0.8620189404385409 1.6428688427104419 1.2789003938750167 1.6666163228390265
Ni 1.8207836039862466 7.1157824394626745 7.645722067916296 0.7244322269517007 -0.5137251806779991 -0.9895821255553151
Ni 2.2513464150714584 2.470702605696705 4.8252351168608865 -0.03286795437261436 -0.23209065415580027 -0.8092248952180645
Ni 2.032423516072646 4.644084184922248 5.707198378674508 -0.02258585572031594 0.9673330843491276 0.0482187257970718
Ni 4.980982252931368 6.712074490245638 11.075238197705813 0.09057713615862464 0.5912470263145625 -1.258506660710013
Ni 7.413444567852519 3.2558178138255567 5.0499189506971245 0.22410017975115598 0.14313922652605673 -0.1771145550302369
Ni 4.743805791797649 2.581394787794601 5.364775381479806 0.36222652644365355 0.4651570419613086 -1.4515944512400547
Ni 5.413093851106815 6.185099682793323 13.286467339551887 0.4645829146253934 1.6579961852701832 -0.31633979121386807
Ni 2.624189250133106 6.660853888618595 1.3269565278532625 0.8431130633250771 -0.11597886406118091 0.2602524613019969
Ni 7.247346371395637 4.328131618514394 10.068871378560333 0.8117731155612149 0.2185584239973204 -0.48202476425092466
Ni 6.0690144027919315 1.4793682402972748 11.398366810965086 -0.06837591747123709 2.3145163217609426 0.5814539514835406
Ni 1.2405876782486693 2.426552954654244 12.04127570729808 -1.620421312340203 0.1595840023456413 0.891446203212826
Ni -0.028123392246842818 1.7809576502373574 5.676663303672871 -0.25792664138229776 -0.5043226564171766 0.08565861581108473
Ni 7.304218202107881 1.6870071190672349 9.32927115104575 0.24731724129756763 0.33454063049261096 0.25663106249932577
Ni 5.692336475887799 8.840744061211431 7.641094144587142 1.4263541886160274 0.7489042439511361 0.5834920649594919
Ni 2.7963719673016247 2.346652134945536 0.581311421201377 0.042556899525604125 0.1391578732808055 -0.8662123683467017
Ni 2.1972587135333255 1.0309943776743655 6.657030781438116 -0.9181301402619155 -2.1603254654064146 -0.6725717906369836
Ni 5.038720666896483 0.3051894180278004 9.89412486561923 -0.547405860759896 -1.0883209715891256 -1.4012913321101286
Ni 6.618170053929392 1.9528453603410694 6.723873850940824 -0.6293965408010902 -2.2703694520403994 0.3127572160689323
Ni 3.6845552686972773 3.823715632549009 7.240504051286279 0.5857510361969978 -0.12242590523810529 0.8474674836390309
Ni 5.6443056381489765 7.053397664226857 6.277138199424668 -0.21301229736811056 -1.002626617444099 -0.5852663832510954
Ni 1.0468417884369443 0.3727709270896016 3.4877920097508275 1.4459585931105163 1.260755347534874 0.45908512473561586
Ni 4.168837022489614 4.544629928199328 0.556561250361182 -0.1364978099501391 -1.5142375799925727 -1.4267557949298204
Ni 0.8984550786333867 8.11249146482405 5.531655346658427 1.0767196399047716 1.5473677868876383 0.41432941778647997
P 8.60566952541446 8.974133349357885 2.455841624807073 -0.8984352329361496 -1.0838482805297527 -2.3739095761175957
Ni 7.980466584352328 4.301092377230716 2.5397268836848257 -1.6228931709194632 -0.1583611856821337 -0.5489343815892804
P 2.2027532201153486 2.1541508061884636 9.1946391456388 1.0807961239669903 1.5006626695216156 -0.5872049950347048
Ni 2.7692497552809696 -0.224359326064951 1.4637771169222467 0.17884722145062748 -0.0417490589123281 1.8690914681212392
P 7.361302069147955 5.92354826292996 12.14355189097529 -0.6917789596930538 -0.5810436034189994 0.036671644389420714
P 1.9775337640770707 6.455233964448404 9.74767229588431 0.1155759721958074 1.3423050833839076 0.5259001254776362
P 1.2230255389219025 2.854156476120615 2.2360429235846166 0.4659093467463008 0.6972410112488896 0.9965145910090902
Ni -0.03290435049086454 0.7660697364043538 8.15132822300876 0.015454386881857258 1.0062963529862023 -0.8295119276018746
Ni 0.693840022277694 5.314948688233974 11.099336587312202 0.24737252001553522 -1.0977988291725738 0.5465046891018652
Ni 7.93017709877358 8.002831807452978 13.068435915027038 -1.48864301935292 0.16110583830680641 -1.195207129320419
Ni 3.1922345723889625 8.362620579896934 10.893084241746832 -0.027580737831746048 -1.6473201936135757 1.072501745168682
Ni 5.906594575674357 4.815345005013246 6.984354948297186 -0.2756754807252865 -1.4862884030778143 -0.6802804721351511
Ni 7.949961010057172 2.996331443415839 11.981421539540056 0.20066585998761569 0.05296858177723136 -1.0573494629082756
Ni 1.1484348463797123 0.8066239888444842 10.295713373455046 -1.9227624752821337 -1.588924270173186 2.01900118060191
Ni 5.14923768854965 5.299460817331628 9.120846815965741 0.22634063904590052 -1.531945281684981 0.715095265821491
Ni 2.8476478827533196 6.228576348969193 12.521986953709177 -0.21481849733891392 -0.2417590304834998 -1.0551719956409826
Ni 1.7818703283441029 4.3953471344364194 0.3939736379754974 -0.6808576847948596 0.8068988181880491 -0.4794397771325678
Ni 4.634275200017429 0.900414109923118 0.4357825923381332 0.10223348945063038 -0.6424880838777257 -0.3281218714504607
Ni 5.688344661542134 0.631082800622558 2.671688153258199 0.2801288885109498 -1.0422231487897986 0.8712193346429898
Ni 2.2417402475236936 6.533622872949978 4.147149393740942 -0.16867516601363208 0.015664446010134312 -0.25258183213061663
Ni 7.933920000908314 1.8936411300226978 3.15338398574809 0.4301843825408656 -0.19234731281959133 -1.1532330988814783
Ni 5.80749985881167 8.58321211260606 12.206833672067535 -1.2848491552592838 -0.2617377875982718 0.767793110435839
Ni 5.6450247178694415 -0.0768825286769063 5.161180865188929 -0.8053067911105808 1.005145784321527 0.19022898092500787
Ni 3.331394936240694 1.462220954655392 11.381662035920415 0.506204961041554 -0.22140874896192192 0.19751934393883402
Ni 2.9655492999974267 4.570138820334322 2.389456738151894 -1.0508445719102226 -0.7313214978723663 2.6477467180825625
Ni 5.311749705374978 5.353004599594024 2.3452545389760147 0.5922415290173478 1.0787952914868777 0.5401630631545536
Ni 7.783337332266102 5.90943401867312 7.905055403411144 -3.059079515134564 0.3242816717687641 2.659867926826129
Ni 7.022007068737281 1.3627206030785959 0.013178518723156693 1.1546906572636113 -0.6881189943429633 0.9637623362787339
Ni 0.7547165738946879 1.1456968120594762 0.9348561847392869 -1.6364403134762786 -1.1237895968093807 1.0919973919994483
Ni 3.5107039178184465 8.308081148790817 6.501349100060138 0.2619463040646521 -0.17742437296117186 -0.6446462678713091
Ni 8.147191670821925 6.836678099243319 10.38287782023754 -1.1542186027231993 -2.2324829614072716 -0.011945859507966524
Ni 2.579154577896226 4.443516256736871 9.508416956840781 0.42817660808221736 -0.894137376891744 0.09851516005877872
P 5.867137380756476 3.661996447210349 3.5313470371782874 0.06689701893286544 -0.12894519441386182 1.4542987375450953
Ni 1.5108325875530522 2.9799308944067477 7.260365401924382 -1.743250623664314 1.1838590512974516 1.2839742088534984
P 9.11770960021094 0.5149090185017247 12.232092730094521 -0.7390173238547273 0.5282542275321096 0.1946664478710712
Ni 2.7320235512906885 9.248102722855451 8.885476351206886 0.23126841536482107 0.3310267038020815 -2.22460253021793
P 5.9129833224215735 3.047542826072107 8.555372664659092 -0.6637724471777987 1.101955788763741 -1.2059746522495682
P 6.360868579593398 7.257579428956116 9.054650918211454 -0.10515092020774147 0.1568177524544138 0.29232414502556103
P 8.037347634035347 9.137797737530114 6.529347114304438 -0.2513194204784252 0.05895205305417588 0.910571354078051
Ni 5.482577233839541 4.5216101581736385 11.636192287641382 0.15187377818557715 -0.9202816393872796 -0.26568340250958117
