# total energy = -381169.10091827856 ev
CRYSTAL
PRIMVEC
9.24176072095023 0.00000000000000 0.00000000000000
0.00000000000000 9.24176072095023 0.00000000000000
0.00000000000000 0.00000000000000 13.52625098659736
PRIMCOORD
 96 1
Ni 3.0970434454996223 1.178028772032639 5.816639515242418 0.08283477320904443 -1.845003831044416 0.9452465368627333
Ni 4.090320176379152 2.262456990176094 10.344619911844648 1.2061317466527226 -0.8106225468965395 -1.29147540232655
Ni 5.814158102454183 2.850390090172959 12.347803922253352 -0.22023041238310456 0.2743333648750953 -2.123073265923176
Ni 0.7367004969281812 1.994750903633044 7.350151694195683 0.5376382398501708 -0.4255155163102865 -0.43209136975559137
Ni 8.12859999741174 0.875926699957918 12.499527758480596 -1.8921180109233995 0.8943147830098727 -0.2397168032424904
Ni 5.060215252308086 0.7512211515757607 3.735125112397048 -1.4292747046969319 0.4825086458658787 0.08851871096769917
Ni 5.4530640225215 1.010041285061499 5.947019504786499 0.8298492563366353 -0.7409595351827626 0.0680568435689215
Ni 4.2363215142880515 3.332578962523689 5.999677209757845 0.386134957630135 -0.17037106565881627 -1.6633600206852577
Ni 5.941204588859655 6.158108716010046 8.467419585343663 -2.4127170359030963 -1.4991943125062053 -0.8660614445911343
Ni 0.7667898219037348 4.21646097022132 8.319226101761133 1.3435137589800281 2.060636082533877 -0.9074397504276048
Ni 1.9246983563897562 8.344903410106879 10.677351951904651 -0.2555429716414696 -0.5209813480197801 0.7142948814073827
Ni -0.05422418343542774 2.211405503240484 0.42767172509635676 0.34374312292748543 1.7223136164013308 0.06252048713172459
Ni 5.405311844209354 7.372836520378185 4.357103011013283 0.0029218016324852906 0.6355414773565634 -0.4021850691144621
Ni 1.134703397167661 2.7884333254343043 12.062940506692206 -0.5777430782908566 1.7672192186647695 -0.12393642834536076
Ni 6.367027961786005 3.2969981832510435 4.683640298775504 -0.14074707214479631 -0.42155653166253854 0.14627751504472228
Ni 4.679833617481374 4.4267295130813835 10.167060733161124 1.7859358212376661 1.044549225819814 0.8171742319721281
Ni 8.823395578117594 8.964674376232125 0.7043820592355985 0.5074650587009002 -0.21264180140256927 0.33733799073209
Ni 7.758070079651168 1.781035183975916 6.180604086095124 -0.0399315460876151 -1.1435909478060242 -2.658470789368286
Ni 4.609106421696033 4.964304258206392 4.277596142420406 0.3566911984477211 0.39556473558446714 -2.733895643266505
Ni 3.915558478704934 3.0550211589144993 3.1173947270674907 -0.9020648592689369 -0.4151843095876075 0.1966549390560097
Ni 1.2939389366138152 4.017559793206803 2.0010334526588998 1.3243621257522415 -0.7035157885140078 1.0021283376514418
Ni 1.9924497051813845 8.653476563128796 1.4485535956349502 0.10221626305944978 0.37725333886978896 -0.49230917689606823
Ni 8.795836647262782 4.471321009182817 6.331638486962953 0.35183361324510376 0.9706855457611284 -0.09342283313753588
Ni 6.598617246927105 0.4224085422922601 10.857238205970214 -2.27650461840386 -0.6811713593805365 -0.4416209065125813
P 7.642252332678493 6.882219162132221 3.3623956555541668 -0.9317310188748018 0.986374674361611 -0.5085351518366275
Ni 8.842895693511174 8.755699679891066 2.923563580055304 -0.43171598869404354 -0.9110223255725407 0.4699495782539455
P 3.23538336366384 5.437334545554735 2.230478649282792 1.0614971665280621 -0.8847196831222699 1.719225721504626
Ni 2.4428838872513845 3.947849191114967 10.292219127824932 -2.170806310333081 1.0928229732245371 -0.12265293364724682
P 2.4919853626476365 2.6281164999686957 8.622728300604635 0.04787676907662077 -0.65704078488092 -0.7291250044416797
P 8.94877854757006 -0.1299548685449788 6.9798703798019766 -1.048766349224955 0.5702066607044954 -0.7733469503745326
P 6.318665827257755 4.736938457773758 6.816852187639902 -1.3956922407557963 0.2432520700892585 -0.06768763315496085
Ni 6.837479797857187 4.821084690313354 11.139665493371288 -0.3599917235758639 0.6178461169593294 1.1325807127384493
Ni 7.956481443340634 6.823302936713228 1.224545326919135 0.8700389411816436 -1.871846919379189 2.7222107507294084
Ni 7.316849933148656 1.1959855133642627 3.7817229947790243 0.6389039660708932 -0.014826266379555109 1.3728886125977193
Ni 7.740677085731397 1.2413718008987993 8.278674179327252 0.24224316920876987 -2.7537859544325283 2.729606271862531
Ni 0.8501366421298022 7.132393628342748 13.173540467386884 -0.2971135959944044 0.5167428844584003 -0.6890430488191294
Ni 0.28844090118619486 1.8047218170345634 2.5157071143975136 0.1876167401131414 -0.16090914891496805 1.4520881030470216
Ni 0.34483689842138154 4.777029216341223 0.11924644024803983 -0.19633432249179736 0.2387076452516857 -0.6256812967330321
Ni 1.2939851454180653 6.457994613832928 1.9109614030622597 -0.5656879468985354 0.20145955953350467 0.19650967172739706
Ni 2.4516081094938205 0.965717800024717 3.1503859649499564 0.5371402171678298 1.1993972561423665 0.8582337210165992
Ni 7.475540208704658 3.273755154713198 7.76074094853683 0.09860900532416565 2.76031887045504 1.371382203255522
Ni 8.784201270352582 0.2967409266056139 10.418797981131394 1.7683954983610577 -0.5795749892932729 -0.4976231329098139
Ni 0.025802996293305996 5.251944822902974 11.35052643310184 -0.1306557493470653 -0.489977186328782 0.33901357866230003
Ni 1.841393124087514 1.3741666625529947 10.37716384850197 0.022555773813328895 0.3425763563128939 -0.582178745464707
Ni -0.07819269020000119 2.8094306060855905 9.629770634270297 -0.7445639647045693 -1.2421274480210414 2.4450648561061827
Ni 4.210610935603246 7.102690608970726 0.9905910751765091 0.43526565371851483 1.0557407236602592 2.183573894411394
Ni 7.849184599871692 8.099895088211523 5.202683465044016 -0.3260845293054578 1.0580405754380293 0.2979983125922029
Ni 3.108189009084768 8.126613018828982 12.756567004650531 -1.9784584832928571 -0.8682985614517691 0.5497458217469823
Ni 3.381634229115691 3.6463552269041783 12.394063556188216 0.6344544149399719 -0.34308517762851237 0.3223456310883158
Ni 4.852488193681783 2.835520096965247 0.8426369531999963 -0.5914627418697942 0.09052571409539893 -0.023341502939417866
Ni 5.034865102296433 2.1949459271665663 7.850392498014792 -1.0028595593905116 2.5745003598929017 0.0591878232140658
Ni 3.76612844752067 4.356279570121544 7.9728190281713305 -0.18958029159741543 0.18648005540553692 0.9727329152084602
Ni 2.5583781725943093 6.121548310087296 11.66403838312202 -0.3366718179030009 -0.4770237114919075 -2.04394705191397
Ni 6.777103374223889 2.737270937368494 10.03356996691492 -0.38160621652184606 -0.36079262221060443 0.06514944011413941
Ni 6.173311412608359 8.648994309116528 2.1463324167431965 3.9983176410196886 -3.550994541916007 1.459352497918919
Ni 5.051906909303902 6.001340726710851 12.572041386638249 -0.06776528047043166 -1.698933032693861 -0.08321272537375347
P 6.021986820449837 3.1801083920197635 2.509471698351993 1.6693321791082927 0.6921186024206597 1.1853027257225135
Ni 2.8172583775255724 5.506721686016821 0.21861292873156302 -0.8035401861284613 -1.420575120040405 0.14488526268288598
P 3.8275214648474725 6.376999821743195 9.923264006113207 0.3651547558340421 0.5277299795975233 0.28462651927098725
Ni 2.6224882676110224 2.2183645491605626 0.9107551998973712 -1.23764601521092 -0.46049203238547143 -0.41601760412218025
P 2.1724145142141738 2.6523391551566453 4.7743611199838165 -1.1121985495376716 1.095101741956385 -1.2713938010853265
P 3.7323775368963314 8.225546068728638 6.450831324998064 2.2535510949314803 0.6550060138390784 -0.6814528951766974
P 5.657029684481838 0.6228669560100085 8.800963976182382 0.6125848685603902 -2.862546446368399 1.9948472090635259
Ni 2.0436490602905946 5.5460731037162825 4.083007171018517 1.0328239669630859 0.04814364958476225 0.005734588490932059
Ni 1.660531864252271 8.122232424186064 3.9273066050975025 0.11991548011142573 -1.2098518758167873 0.846439813705465
Ni 8.815734158372914 3.1123570432281347 4.595287216696971 1.0412335311830196 -0.3796069267036301 -1.6062506772667757
Ni 7.148002962418462 8.165419172638291 8.692604330215687 1.418919329604537 0.5301720133801127 1.4212351222219073
Ni 5.8231503357612695 5.383159343451813 1.5561415545706672 -1.025508407138279 -0.014293533804536676 1.3485680335744838
Ni 1.7680505099816128 8.250618965914793 6.680101852341891 -2.950535510084874 -0.1883847286274175 -1.8097928303609219
Ni 7.818363327436816 5.42150340921862 9.252794588316824 2.2234383347065 -0.10501053797513528 -0.5373790726515133
Ni 7.144019763492096 5.6675098412857805 5.0882371953814856 -0.6676928652781275 0.27324064603154874 0.022559373357754695
Ni 0.6068361976395327 8.185057914444622 8.729206324062263 -1.157909164200909 1.7660753348683131 -0.7318002372809977
Ni 1.0576548369608947 6.307335428455609 9.582415851674702 0.9528544311169782 -2.0723924517388568 0.6385033881983648
Ni 4.325014693165866 6.013623026880552 6.125322645218452 0.38157253507043315 0.10893609828178659 1.172368791269665
Ni 1.220383762008363 0.604236490312417 12.736777622142343 0.996202201974994 -1.2300013541814687 -0.11870474763277622
Ni 8.113064597422827 4.128913769688911 2.0251368891318835 -0.7897464747784786 -1.4257219543486672 0.4821042113386084
Ni 5.882981495504416 7.169009484830599 10.55681998272237 0.37843038989702565 -0.16944778251359852 0.8821421522030807
Ni 7.169591715764151 4.511531910641332 0.046617290079761495 0.027647843624255607 0.5967574146098302 -1.386318255740064
Ni 7.508921448894995 7.480909671758529 12.837859381439634 -0.3769430067182218 0.4985739268588575 -3.4885247055165594
Ni 3.0587825555804646 6.670795399165901 7.970762736382197 -0.9721801280287836 0.19559255922976637 0.609491574347047
Ni 5.698442014850857 7.863703406167102 7.007044853405428 0.2653327040383818 0.9716869904424491 -1.5443873641030756
Ni 4.527400014020848 0.35563404762248085 1.4780403578030814 -4.427297204619175 1.89495445193093 -2.3455971023261473
Ni 7.189849655547435 1.4074000345697313 1.5547072332867413 -0.2111521042309202 1.0703520458155307 -1.3127512809861908
Ni 5.26809942086884 8.263991793864797 12.672527976536795 1.6677041565865665 1.6413884015101732 0.14262552011443178
Ni 8.485304240940655 6.769460438000907 7.170116647780434 0.09391648494450278 0.01678390432655819 -0.14129985932447278
Ni 2.1054302315730986 4.455120202412701 6.186894028529659 0.5838255370395107 -1.8398194586299992 0.3570349549403851
Ni 9.08061226609585 5.302035166710179 3.64674522921205 -0.007504278796845142 0.7795232543885736 0.5630435672971529
Ni 4.248187935219501 9.011936741219218 10.458010772418104 0.5795947867876148 -1.2595451292768565 -1.7864726675777427
P 3.686723238297144 8.252042197085698 3.1836470622492423 0.4862133484109755 0.30219692405458276 -0.7018723393733138
Ni 2.7395444105376034 -2.4028578210098705e-05 8.523905227659094 0.9822557670972311 1.0746499018599363 -0.15922559056495802
P 8.003429588458825 3.1970208143753327 12.115138896149308 1.7070911430246214 -0.15096026523237227 -0.9826298626071979
Ni 0.4061319530831733 0.8556068403769396 4.814385337873161 0.6205054089590475 -0.2908992396535764 0.890408248866615
P 5.802254714479334 1.0230536843383524 -0.15646670789548275 0.42423690670817904 -0.9104913927697352 -0.3083783702749463
P 8.494638419399195 7.2999837195973365 10.8053919276015 -0.1409159936224928 -0.0797345370171659 -0.45100440461001035
P 1.1095380823730077 6.199474837574816 6.036400270671556 -0.9877754113638795 1.412489000598161 -0.21297964435796224
Ni 3.6210328021750744 0.969636306625133 12.11496237851707 -0.42555639685055097 2.0136553429089648 3.1206967737257285
