# total energy = -340878.33135193726 ev
CRYSTAL
PRIMVEC
9.14653228939908 0.00000000000000 0.00000000000000

0.00000000000000 9.14653228939908 0.00000000000000

0.00000000000000 0.00000000000000 13.38687455118638

PRIMCOORD
 96 1
Ni 8.057710745854118 7.192558554683996 7.299207120559621 0.049733105559069186 1.099802489866164 -0.474193441131964
Ni 1.7930770330781893 3.92550870518875 11.392270235132504 -0.827407222554046 0.9744552972162057 -0.6109033670929093
Ni 1.165076129731669 1.8367059918454904 6.138497545317575 0.1465593079511992 1.4544589172720435 -0.019958702510114015
Ni 3.878971149170295 3.490069745013716 5.3907200583766235 -0.7320403783162619 -0.5684307997509952 0.5217632204911272
Ni 1.2290561227248078 8.56952325020252 1.0186310020957656 -1.966555304097368 -0.5277842298742265 0.7735395260013129
Ni 8.753203910572529 4.267643890020966 9.74680908581647 0.6403890352568519 0.08183847073404615 0.7786465082105751
Ni 2.729197167870008 6.9118148942220365 1.8423951348964887 -1.3023624815526988 1.2407115415101213 1.2186959564709787
Ni 6.249569374182691 8.624210366443545 5.673116497213688 -0.2546687965666324 -1.1663734929181784 -0.46658400421582225
Ni 8.574919704221955 6.699066554404966 13.639618938260332 1.1434055712680953 0.4613764918729538 0.5096970333552125
Ni -0.001703998955628557 7.685309685851881 3.442301065756251 -0.31884661679612186 -0.6366401097373809 -2.5129985438336786
Ni 6.567027215041284 0.8887328659286095 7.343892503800218 -0.8885051183066311 0.33804195877765003 1.1782918416223191
Ni 4.36584106011022 2.55723321529474 1.10714565315964 -1.03619545453848 2.1862653252006283 0.9616347484127696
Ni 4.504264678974861 7.29821014854586 4.945981818876913 -0.7197373925791928 -0.6431002635404279 -0.16006479863680176
Ni 3.0710671032673704 5.284747421233264 3.8997035937903872 0.3487058662493994 0.3893709480689294 0.03100287613941757
Ni 2.0285453589703075 5.663487028075279 13.068106103352171 -1.3594227169008006 -0.010714558204026708 1.7743342324429958
Ni 7.587643014632334 5.2335542803065165 12.137558035998726 1.0738047802508217 -0.7470810746994682 0.2638972571434358
Ni 8.836537965777744 2.6124142442765277 3.6455937205474025 2.395650824449429 -0.7336699434998848 -1.1720417469475493
Ni 5.230947518619161 -0.1250605352673605 3.2592487721508787 -0.7589372027071057 -1.3994342242967317 -0.17655354032044432
Ni 5.445506871819026 4.331468391966086 3.42037316937287 0.05691136847506328 -0.7297685515629496 -0.019089155420967126
Ni 7.932439840345322 7.31386901173446 10.954921479026524 0.8312780183633618 1.1581621607519796 2.9443478932169227
Ni 0.37302851211364907 8.882782832764637 9.322284682559049 -0.09072368903881795 -0.7990343278383077 -0.5339481925930933
Ni 5.070983816337961 6.653068643788455 2.5991289062032568 0.4997612622987393 0.3022894837683891 0.1711287697604472
Ni 5.8755127918456775 5.11010353471275 0.874033473971601 -0.1030960945612418 -0.1950469711389415 -0.9280420000589888
Ni 2.1140197027188252 4.764593279485328 9.191601773926015 0.6078751217895466 -0.3029422868610396 0.13122062071159982
P 6.499699591249648 7.068476698365923 13.123220362648635 -0.11039288533297116 0.19519275268818642 0.6092570897387378
P 6.12326491053119 7.835056711625101 8.127679888155606 0.6608807274523004 0.3896028615740774 -0.8104397414617721
P 2.7888599976475987 8.349540003386512 12.898494638868089 -0.6022068677601758 1.1446584698385898 0.26504628314621453
P 5.085087769046383 0.8861443973057276 10.813515175999616 -1.6391849661009512 0.6776510049321038 -1.4512059575523848
P 8.646043138891669 0.7980468281118299 2.0101196697802175 0.8546948546254055 0.3397088049571117 -0.040147518753163115
P 1.865663912905716 3.333700629901393 4.530399065533731 -0.5196235484403052 -0.5989652208944265 -0.17940746482947167
P 6.971404551741736 7.465664860728617 3.847762266526708 -0.6809394458753886 0.19386014991969194 0.09270163870079519
P 2.154429082138938 2.8790173659011185 -0.25392236933214035 -0.24512331897004236 -0.5990043016624781 1.7191850980746777
Ni 7.35323568647963 6.261020832542578 9.253784473334713 -1.75104106624301 -1.6442119870018974 -0.507170667388933
Ni 3.411903480522027 2.0590581905107093 3.5355536205185456 -0.1836320444337805 -0.2020136322647618 -0.9943034422903843
Ni 0.8826449340721072 1.0740681339801708 12.718815586351473 1.4653534526973602 0.6193545831840559 -0.28164044005946975
Ni 7.194653110566116 3.170736865046675 1.859972025895047 -1.5047031581395764 -1.080577580198281 1.537368252472765
Ni 1.8839386843139063 7.402352564588731 4.671135842400941 0.48268913730780094 -0.009090649447358537 1.4892909373495642
Ni 7.822013756656092 2.3566131772230454 5.773464017031705 -0.07062023342072354 -0.30298265318067175 -0.36444178892741746
Ni 7.269426011598125 8.318917413459273 1.7389954172712085 -0.4043617650508068 -1.6265410520846952 0.27643858414355615
Ni -0.23299876218830842 4.161223987451248 0.84901404969234 1.8055052587291616 0.5164916876795428 -1.0193920098278961
Ni 4.170123563317199 6.963081207406674 13.367182158375408 2.0072841492752977 -1.7660233985844556 0.23699169100184345
Ni 6.837673103914333 -0.06179763040155009 9.906809374226615 -1.2792762891571967 -0.22653192912110015 -1.4124640608974965
Ni 2.568081002527029 1.3038107306923452 8.5759935071065 0.8269593363833501 -0.7310846992712118 -1.6035646457941801
Ni 8.584413804683267 8.603694694637454 5.440706771701399 1.2250519805959934 0.5992822379142131 0.9154911599771717
Ni 2.780500067183592 6.327955155448052 10.983220849765733 0.2544024302791231 1.1602645518069632 -0.5127317064164783
Ni 0.5242078848350777 5.052763924123188 4.319395884067353 -0.33293729056123306 0.5169794259492387 -0.19289290091041617
Ni 5.927465094948041 3.3282218570918305 6.709247559437227 0.45861229886425536 -0.04089673821436182 -0.25174930892699227
Ni 2.175054512331865 3.7414896231259966 2.170976073607685 -0.6708578932696705 1.7824458058065367 0.42858412793328127
Ni 5.811761462158448 0.8879855942449011 0.8294377267469195 0.4784064507720471 -0.579563419329047 -0.2787690320489457
Ni 4.032047512677539 3.884157232948295 7.953851872310574 -0.6903949348613335 0.32760867925946807 1.291113391001441
Ni 0.5292009767828911 6.428228588354954 8.963998551103918 1.1273204927807745 0.9113413994748562 0.1338817124835307
Ni 7.942446146611869 2.005752200637369 9.341628683585665 1.3910614268520045 -0.15595900399854432 -0.36903069384968057
Ni 3.4584684761371913 2.693104951665444 10.335550328844981 0.6159568703564166 -1.169931642583082 -0.12226058330483461
Ni 7.304676746836947 0.6683929043553838 3.791658352442275 1.5574670801051693 0.7690583503015078 -0.2206073361065491
Ni 5.337358274656642 1.7342282446696324 4.862501419155915 1.4748336242736535 -0.19807521644230403 2.0480551605450725
Ni 0.9447361681584435 8.023292345048802 11.857665003034745 -0.5608208486142212 -0.9852421034190644 -0.5137562910262508
P 8.499177270772895 0.5088673209683026 11.048615811295834 1.6628653404370266 0.7607354322581091 1.0468953574544873
P 8.667519196582576 0.8917365871150206 7.234226496939827 0.6364007400330653 -0.7417267523660903 0.4554652685948414
P 5.511874109725848 1.8987652130689998 2.8208015175233156 1.0139926931891956 1.6109509109559226 -1.5561211076002361
P 6.98056937704254 3.4249281424265634 13.13783835046874 -0.0461045076675464 0.3255975623667102 0.008117229790495699
P 0.9090235330416871 3.1596329749117684 8.341883441251477 0.4715696303558717 -0.7098301607678098 -0.2984613682715505
P 3.177075411886453 8.51147935663076 3.3987535111258538 -0.11117038692894401 -0.05639380540869642 -0.4061715645660359
P 4.241036627745477 1.8384438329703936 7.321589599595148 1.2460347534952476 -0.3657777341300217 -0.6041987013792239
P 0.8205244310826146 5.81888661077055 1.9299183018659447 -1.1942308814500786 0.2568076972865061 0.2956681217971295
Ni 6.250630371922106 3.7741427432097 10.80016855616036 -0.06341805924532949 0.29548377370046525 -0.10788297442692389
Ni 3.3690885631237597 0.3714617111415654 1.3379126614822836 0.8601342804734219 -0.577739992967063 0.34658907701671277
Ni 1.1702164808484874 1.7230877684057808 10.173462801778504 -1.186375389961402 1.7253071518120155 1.800577996630873
Ni 7.751091545695578 5.601491832577423 2.605822338493804 -0.22636557874656496 0.3986001799766813 0.5270249831106989
Ni 5.322175031144332 8.097424988824269 11.567719016489814 0.3148392954089417 0.704901870228257 1.3366712821368978
Ni 2.004444246527574 4.520591239016713 6.883503632990919 -1.6885324061858276 -0.4992568118584951 -1.9039581980914373
Ni 1.5355289783675672 0.7371254354985204 3.888927149509542 -1.401517846298638 -0.7383202977877026 0.1452948394164788
Ni 7.882124766513263 0.21319651989665075 13.090944079693067 0.12110924330921079 -1.2042473851458164 0.6953414802333315
Ni 6.715896173719816 1.792299577838101 11.826607038173059 -0.23116505701773735 -1.5021503098107356 0.1839297781798574
Ni 5.590607459216188 2.2273543836592085 9.1918295225787 -1.1947942101527165 -1.0042975773886187 -0.9811481358553489
Ni 5.58257680391269 5.864875374854825 11.268481982499216 -1.2030520792861343 1.1189888329866278 -0.0163766415858105
Ni 3.009273131478715 6.6682427407685285 7.028658184928276 -0.5536533843315046 -0.6412680954276955 -0.24002919227658662
Ni 3.3148862130912593 0.7025744099757781 5.772420397703539 -0.6510161759533949 -0.019055216859238153 -1.5289664015623152
Ni 4.535326302449443 7.3405768858645475 9.431079939550541 0.322807915436715 -1.2480898362520632 0.590442528135396
Ni 1.438731227710471 1.8115713212600515 1.6668933036522073 -1.389391752459065 -1.6320910353686473 -0.7341363416133421
Ni 3.0325693490846515 8.928917941364693 10.874613096685085 0.05919193697912386 0.503265675907572 -1.7100288854967067
Ni 8.273001821632889 4.756279081682504 7.322874687374352 1.0007972775448442 -0.47268574623818593 -0.8387982379998071
Ni 3.9861776535123363 4.0941433200299935 12.700703623217091 0.39178315705484784 0.6279276695650476 -0.5923690557341476
Ni 4.241457368228349 8.568645183107831 7.380759431285199 0.39292009887276846 0.955506781138161 0.31166269745317293
Ni 3.8328451871024756 1.5088851299631336 12.423515219835394 -0.16352781748473771 -0.5971469367387652 1.0436647663323317
Ni 7.012938954626917 5.871707834435364 5.491054773049509 -0.4892323377429575 -0.11639538277330923 -1.0475360763622799
Ni 1.4144105984940656 8.817037559049886 7.1598624458987805 -0.06658180168529178 -1.4316827999177923 -0.6286318947209237
Ni 5.759973796636339 5.54836877334881 7.690197592678977 0.007563157059238589 1.3350167772526105 0.20260678576407043
Ni 8.858571961935066 2.9040788642286666 11.88394390480295 -0.8408168110917326 0.5007789049299762 0.1684928747994969
P 4.067289101384124 4.694357058442539 10.34050409070418 0.25747541277749203 0.2957298282730004 -0.35845728920920844
P 7.479174288841679 4.0277577890586995 4.2532646266922285 -0.8665350417934431 0.8650846825001618 0.6725100841611128
P 2.540065174287146 7.818291118035906 8.862150999999143 -1.1419696101525172 0.6533432814246748 0.40751419463685945
P 0.6031772148571166 6.395639493996906 6.175351667657426 0.5751598909447126 0.014251367712691585 0.42875356363161
P 6.854027103552894 3.8771326961907926 8.658751330780827 -0.1931718656034157 0.7747422880601624 0.2237137429460147
P 4.5297011851240985 5.361907567178957 5.987373051789565 -0.39180912519677685 0.46356604332510487 -0.42382578731268944
P 0.48881537834659305 5.807050998056737 11.269673775649611 -0.009690744925202666 0.3638604625026508 -0.08825851532777702
P 3.6621708955725296 5.083212729937936 1.6126360744262889 3.09353923947433 -0.44585037121289667 -0.9268325531319198
