# total energy = -381176.440401987 ev
CRYSTAL
PRIMVEC
9.20765517280864 0.00000000000000 0.00000000000000

0.00000000000000 9.20765517280864 0.00000000000000

0.00000000000000 0.00000000000000 13.47633406945254

PRIMCOORD
 96 1
Ni 8.54627870074429 5.200050998233558 5.580482774760494 0.2454087114209451 -0.14090468076858315 0.4284766558211395
Ni 8.8593021530074 7.367689604582085 8.630028771774693 -2.046802519084894 -0.9286199840496459 0.1911836315287933
Ni 5.469135519028272 7.231858272431673 7.729526521071211 0.6225563779508052 0.5432676702218063 1.988281125810234
Ni 6.855651888958143 5.566883988531308 9.213433182709874 0.40006596588893034 -0.19417511005694946 0.5268401207934024
Ni 2.256280704681771 1.6448739722080967 6.751616432362354 0.34498059487901234 -0.1829645860531107 0.9628187414185416
Ni 0.09149186767303183 2.2943175290522526 0.6091803214030415 -1.1346231970897749 -0.5755609830378733 -0.2933651846955657
Ni 5.595529004415251 2.44868387148051 11.514719065352923 -0.8991782817497611 1.6367136217423233 -1.8342774457658475
Ni 1.879245632224134 7.137240405757485 9.329962506889373 -0.2955724767595297 1.46784459455033 0.12977180408021521
Ni 1.0251895575487382 2.8998958156710453 9.935589594081675 -0.4527450414502009 -0.8992237902757158 0.3062165867369372
Ni 2.2802666469439603 0.49783766949851066 9.255223047412821 0.5043830773414669 0.25450681706747136 -0.41319813239551423
Ni 5.652238953894264 7.232843491557222 10.499169922985956 -0.18522972793820358 0.43763286839911075 -0.03618827699509897
Ni 5.2655818815656135 4.011269027566845 2.554372102216822 0.5585899024011735 -0.6432401315524019 0.53515712529953
Ni 7.301007764327659 3.285438761698841 12.596909534290651 -0.5011208616504274 1.3332110915024395 2.9822138150247604
Ni 5.18914913426487 4.709319797156529 7.527395466364601 1.1139903513307718 -0.6614502268025253 0.9680414232700619
Ni 3.8826472895781587 0.8228540928927153 4.983898525915868 -0.2827203033872099 0.8993610871845286 -2.0632609217512337
Ni 6.5970180570185475 2.4232983656007185 7.472182681650208 3.6619643827983706 0.6044534977025073 0.9694149065788207
Ni 3.212293147368386 4.043422160150172 6.472953187676908 -0.3600153777249477 -0.04566124948254071 0.015678844187837514
Ni 4.593220470483227 2.203207779077448 0.2231199051429485 1.0472990206508093 -0.18787282198800545 0.2353695820173882
Ni 1.3950518664661655 1.5644727254390218 4.4246844671922885 -0.20131763463900168 -3.145983059096343 -0.7453304105569486
Ni 2.022304973847029 8.697146134128543 5.676245152998286 0.18032200622394107 -0.6955839352614408 -0.0634334858642972
Ni 3.183896738179674 1.7572994443851933 11.314097145362926 -0.32585492979315495 0.26306781926360495 0.14514854364660162
Ni 0.7659784056168819 8.98956285365354 7.562325627810222 0.34035518029185896 0.4090362877083407 -0.08595840643969066
Ni 5.5471519830541975 6.312961888577645 3.247203972737711 0.5877115023574782 -1.122292186328248 0.6222792130300187
Ni 1.895451105691103 3.2753840020250164 13.181782566258777 1.6309697772800107 0.17487769527991817 -0.24917563466254503
P 6.647365516630698 7.610872990795786 1.790816230730144 0.06574310783408031 0.34596764138263 -0.07183353700253435
Ni 3.0764157769410794 4.071247694705388 1.871067392716542 -1.1206842184111796 0.3328956386900202 -1.2945095611671835
P 1.721997293662262 5.848444882364513 2.4228831003431273 -0.02904600952336288 0.8966652855199203 0.4092016096416114
Ni 3.5044428448873943 7.346926341702532 4.145010221946233 -0.23361017612412024 -0.9689762763795055 0.9006666933698295
P 5.566368359830086 3.1189919754133886 9.245668263426074 -0.21300895493400093 0.6296042859365222 0.6428354399148155
P 7.03382002054101 3.4413243672646265 1.3163807381427972 0.4092540601461016 -1.4414427075180336 0.17450668509374462
P 1.5069064640097665 3.734726305915173 7.686052576199454 -1.177018374226534 0.3392246662318416 1.8151001015064483
Ni 7.739577597682883 6.823894685556111 4.126210951959011 0.2527016455379325 -0.7759818168942183 -2.354310570939745
Ni 3.2215376333688615 2.935290042947766 9.04770091048183 0.0033455194334652064 0.29878969814524675 0.5777965572366114
Ni 7.594897708713291 4.594859433140682 3.0683857806850887 -0.08716219693980472 0.1756210012038459 0.769016698430295
Ni 0.3393030214801983 5.275139427848973 9.895012377592137 -0.1395096001932694 0.5220511840451912 -0.12227446726190554
Ni 5.905062755289736 1.6896968385928721 3.5287510550878474 0.9588456157034067 0.876593968691342 -0.5119909715957117
Ni 2.489593484329227 4.421304336902673 11.063895684219382 0.36340769123594835 -0.3355158499216867 0.49469567485037386
Ni 3.962127770809338 1.6561625577027013 2.4564661818068068 -1.1495209401372137 0.2205119481792654 -0.3458066903247335
Ni 0.49041261620091764 0.2857420901407905 1.8024998246405057 -0.46430677814587135 0.0679876808938829 1.3196441514512822
Ni 7.589170547067578 2.8474121800109757 5.0698639588304495 0.813912530501721 0.21114516225238478 0.09613946073775055
Ni 2.5959695269223477 8.990851925406595 2.788482264820096 0.8152698158605637 0.6593925729425483 0.20211519083963253
Ni 7.171888812948509 5.528165797662783 11.729855012516776 -1.2873680650263957 -1.203920340823701 -0.35241005457386404
Ni 5.295120040021316 3.02012017195412 5.519179126012918 -0.9585134291749686 1.373312073288383 -2.2244166394593687
Ni 1.0955084216778526 6.146045511867865 7.25716735477182 0.44214823977096107 -0.8204007093292258 -0.39724238039720616
Ni 0.07939577080169265 4.104542576555706 11.948428177433597 0.44750693297971317 0.11425005429553226 -0.0955751035938483
Ni 7.686283688349466 9.193604496851284 4.081253653805703 0.5006539493163378 0.6055806693284151 -0.19739310277361488
Ni 5.001681270749254 0.062022766632671714 0.8670333441665012 -0.14937543724375565 -1.0598544887183166 0.37685970297579613
Ni 6.146257287941581 0.988819318801848 5.680531316577192 0.6494485743559589 -2.352895435759774 0.9646503953106418
Ni 6.782819334910573 7.75660255247858 12.882432482233419 -0.4934337774188147 -0.3558388777497549 0.9751752061013657
Ni 4.9634050473389175 4.93940068976597 10.658958653666884 -0.009264970241693721 -1.3480108755194333 -0.031104434714288365
Ni 9.122033391590632 8.99567673682517 12.986402564476018 0.2114773487808229 0.024457361711415944 -0.5180613461595078
Ni 4.03449994208796 7.002900713778464 1.7052006887199642 -1.176584114902593 0.27561146025657046 -0.30460604771670763
Ni 4.153499680205633 9.04770919737167 6.911068162856411 0.11603208589661952 -0.630335764785908 1.4540254292790507
Ni 3.7528009334240706 6.695742537991752 6.466147809586319 -1.637047350932658 -1.0858390857075364 -0.8332631671141907
Ni 2.432975611404005 6.088331927952546 13.47555281112448 -0.9220870680271346 -3.006294253012732 -0.920424335612731
Ni 8.472184697909803 4.242325931646457 8.044050821161091 0.7332901915629628 0.22387366556264668 -1.6426569838099516
P 1.205659602976346 6.5502615830041915 11.478252146224554 -0.9386159189200931 -0.22078165690088428 0.24122964034259098
Ni 6.820036677952327 5.550825837550402 0.8922696860291536 -0.20026502500477125 0.7026567829478221 -0.6864076680788114
P 4.059231704435846 8.477018716983757 12.633645316956086 -0.6349431816509323 -0.5851082604066762 -0.3106093164879941
Ni 1.0281636302361423 7.6610178819896 3.8603767335130694 -1.1153764330450209 -0.9511631594574844 -0.7762145017303148
P 3.9254720947457 3.986970025021771 13.098431186706282 -0.32539161700349123 2.7992222323884564 -1.5339543416952097
P 3.9051968376012307 7.942578775822805 9.083036208764124 -0.9830252982734038 -1.0706014428221755 0.09016036033618022
P 1.636163530219601 2.3071990389274175 2.4616813978134497 0.5292736699355595 -1.1013919458404708 -2.2138720311743034
Ni 2.191532472056927 8.68000147981292 11.507347416456527 -1.1902515850873565 0.43573719403829475 0.6479920444150905
Ni 8.843649138863167 6.303349096362011 13.01743788769634 1.3706574092743553 0.40793559844499416 0.6971533366310897
Ni 5.19693881071547 8.612868464444926 3.224051323287317 0.7989422823451336 1.3521045859728327 0.03826727101131474
Ni 6.055838112120198 5.204875809652133 5.3877168263398225 2.2545186010510716 0.6698312517773689 0.11006609812117174
Ni 3.014043119404007 3.25296336117725 4.078531870875683 0.8493880977005114 0.2838521029988079 0.9610783616886673
Ni 4.725203002685234 0.6501083495625168 9.265155345270104 1.0605954806493991 0.9150535582191208 0.31965085786497205
Ni 8.824764237680922 6.838415158088731 1.8910802316827107 0.0735129815874863 0.729529181858634 0.17978927364892264
Ni 8.23970981490183 7.395423062583511 11.059960332310412 0.5754658522209056 0.9763373447302669 -1.3258073428392005
Ni 0.43655151529615566 4.66187274898875 1.1019602258018895 -0.4176960202658677 -0.0038281154968385685 -0.03812894566123756
Ni 4.53098592777684 2.1519579692381585 7.372565978870782 -2.2922919631451038 -1.2729050955235302 -0.031034500708301396
Ni 3.293928219958241 6.570343479385702 11.131277306282607 1.1571180357581814 1.1082328800217043 -0.6442037810172518
Ni 8.33158380027309 2.0714554382599153 2.820570023050233 -0.9602013584003527 0.10206713907609519 -0.4609620300433545
Ni 8.973992708407721 1.8706180591340489 8.171145929887947 0.1388447129157609 0.06670804285051092 -1.0327622604872149
Ni 6.154811199788634 7.630954887177297 5.558233396302775 -1.0878913402508747 1.0522139414539233 -0.2530227763227772
Ni 1.857828625812674 5.562749751266155 4.935748012877138 0.061714189180345325 0.03495029082293981 -0.5511236759311153
Ni 7.377891686741973 9.116692951470837 7.753083386592742 -0.694944501905229 0.3215892125382655 0.2309100035841378
Ni 7.313557798609182 0.3678651684657309 1.0243479778471014 0.6207977433884857 0.31885021634054767 0.7474099187937967
Ni 2.5819094371586764 0.7879377429301627 0.34465451078644965 0.013495720493589661 0.9910574245492607 -0.5257132062778108
Ni 9.201394173301885 0.244983482840288 10.07489405384103 1.0825131066580969 -0.435173865335657 -0.8333292444654358
Ni 5.646926136740603 0.2679621076040195 11.547479903191263 -0.17654685545222495 -0.3206006233727511 1.114664751689977
Ni 7.736796885758438 3.3036607116938015 10.079394755790265 -1.1007473702779365 0.8485812855284999 -0.11427319422398385
Ni 4.644230881282663 6.305291911646971 12.933777130923113 2.1075065218331703 -0.654591294899163 0.10468735030776165
Ni 3.24747559857139 5.391837252121908 8.653073691657154 -0.356688884454876 -0.08180067551757525 0.3135079781920278
Ni 8.542798207011042 7.853227688025382 5.923091344521739 1.2686085250307053 0.15033780115702497 1.135491201517025
Ni 8.030511884691869 1.5538839217532183 11.478211632540887 -0.047163030839047805 -1.2819679770567471 0.5880015227940713
P 4.141060137788659 5.062985840262366 4.7441818219523455 -1.5867493740090544 0.5754473402781445 -1.3109414814709617
Ni 1.8508860536569385 7.951362879054333 0.8008772610342145 -1.0660850430090607 -0.2849563918065802 0.6772105749605757
P 7.0265275574808745 9.021292434089435 10.000814783255148 0.7158527128128059 -0.22458457558674225 -0.6418499360730946
Ni 0.7648320525222014 3.145049640135844 5.736134505879654 -1.100172471611073 2.164157951778628 1.2537601471639634
P 1.0367727880154696 1.611348898973305 12.006685933781808 -0.2637357918649071 -0.6384046578369714 -0.28907889861538605
P 7.281303381816687 6.267098557135047 7.233045139210022 1.5586158489976318 -0.34484998283841906 -1.102685467840914
P 8.896114359212481 1.0492031227770648 5.9185501288888345 -0.43516203826111505 -0.288355133075484 0.20843727640291845
Ni 0.5650903843864313 3.8412588786497355 3.409121513342253 0.6476102355956395 1.3459424230261787 0.8392533232593545
