# total energy = -340864.31826572336 ev
CRYSTAL
PRIMVEC
9.30403900698121 0.00000000000000 0.00000000000000

0.00000000000000 9.30403900698121 0.00000000000000

0.00000000000000 0.00000000000000 13.61740155339366

PRIMCOORD
 96 1
Ni 6.257533899319618 5.838498582437497 10.978975580965718 -0.8026809234519594 -1.8802603402538651 -0.10105875241623885
Ni 1.1134608896458096 9.159724234689897 2.092980831162594 0.21085565603642395 0.02464196691839627 -0.5632893647593719
Ni 3.7882232911409917 5.372970981740374 1.502925178781441 -0.43902692053316 -0.6119091826496043 -0.7608436757011994
Ni 2.2496143308675216 7.89578911928063 0.022539965333243688 -2.5506073553253876 0.013770571421531121 -0.6253758496774714
Ni 6.279333263133616 5.920336911122054 1.8073012383446654 -1.1023149718753726 1.4800861309218447 -1.5760620694985372
Ni 7.799697002562335 3.532529686217272 4.190674158173157 1.8103900976252887 0.015924384539740318 -0.5384846470108662
Ni 1.6210520515051519 2.621757290249624 12.143739873089872 0.8878183766522517 2.0478852106261116 0.4667925206822025
Ni 6.176225900868691 1.9727540367944876 3.4612170170644148 2.275722488822197 -0.6931149048956579 1.1666527147214938
Ni 8.834696929748292 2.937862021611365 13.233745279946486 -2.3559064546719557 2.058216417348791 0.23441364586202212
Ni 6.406407830342995 2.1730141762449695 10.032484978561051 1.10519743562949 0.6346729587086811 0.2416926960219386
Ni 3.0536507892875058 1.4275466445040779 5.221224893820121 -0.49260485375961616 -0.42433512284894015 2.434152580069053
Ni 3.366415370581289 3.635348623267415 6.626650254754348 -1.6762636161208033 -0.592301692831322 -1.312493913559746
Ni 2.00966316024738 4.126899621569211 2.8804616822540985 0.5336985384761325 -0.0054260561115777525 1.0246735699418095
Ni 7.911782762642245 5.311461978678344 12.58197500523728 1.6640290217278244 -0.845602405405834 2.2466463973918467
Ni 6.843930273088716 3.722685639111202 1.9853358889864074 -0.046731085507951776 -1.432294208249546 -1.0037766718881422
Ni 4.433821266253865 3.732659569119143 11.850135099692872 -0.03176983621242915 -0.9267816452893264 -0.2615804360848011
Ni 8.802839899573675 5.852547681609129 10.661975801034233 0.44894829341193004 1.1179274816016487 -2.1877609359095485
Ni 1.5098687832263349 0.44473586432702394 12.043447913082787 1.3777528826685561 -0.24822072694844347 1.1270042470919366
Ni 3.215410814584201 1.6799559235949586 13.584161447020245 1.7474420360378422 -0.22621054122593942 -0.5795107117142407
Ni 0.977091587289105 4.44287409638234 8.09476902293905 -0.11869703432329236 0.7099322335633128 -0.34553261072774044
Ni 0.16535696684620108 5.546091238883801 4.028776433096501 -0.6637014847305474 -0.7586171003635257 -1.2666195196251346
Ni 1.2398097417986411 7.252340377219842 5.087039249460491 1.6982203228975528 1.5664132335548635 -0.4293960823116153
Ni 2.434076211779306 7.901911177065355 10.84547099227454 1.4457878718606068 -0.5448802661245649 1.2493021113926097
Ni 8.444680911088899 1.006176013786141 4.367481606046198 -1.3004544658967088 0.10301484770134516 0.15996298295161485
P 7.965494980865978 0.28494271291435697 9.889351639715752 -0.4219157147741701 0.22413720363667847 -0.5898421755472358
P 4.910383457426191 6.346834067431759 3.13686425496383 -2.1056118759136186 0.8724439510787103 2.384581454009145
P 8.340122118710878 5.845458003749007 8.109381016481466 -0.04917234795959273 -0.625267092013749 0.9338593780717144
P 1.6161395188146734 2.292124485910694 9.94036289536364 -0.736349804324893 0.8330073423496429 -0.33641419336623996
P 3.4585811827628756 0.5841410746702874 7.736890086033787 1.8875126509409041 -0.3753525223026503 -0.12472395724366264
P 8.154599577331831 3.9156048916435258 10.993518724618156 -0.1104049695178292 -2.3768066951597326 -0.4660481863170102
P 6.696172826767721 6.989826911572409 12.954519899112242 -0.4242006541536049 1.733829330350414 0.8810334925199342
P 1.913217490039998 6.605160715445262 9.328668839046417 -0.9352338898217377 -1.6842376354652153 -1.8811828520681342
Ni 5.478804427486947 1.2636187780769248 1.0897300072966924 -0.4941369741334264 0.5246850221236126 0.4147559638009373
Ni 5.951244929299647 7.89784531194085 5.551936966704686 0.0985411282007077 -0.8204973828080901 -0.7755478146805934
Ni 6.217740523718907 4.333412075353029 5.529645419217722 -0.24195597698565427 0.33911899389191275 -0.9903447147529525
Ni 4.730238650696947 3.998271279815684 3.30629173895413 0.5838617895940849 -0.3336366306211028 0.0024721156895763877
Ni 1.0205693624076748 0.07555531102190705 9.762669702960043 -0.27983681119182774 1.3595877817237552 -0.4732225925782624
Ni 1.5852408046762676 1.602136939838973 7.7478660610621155 1.3454775675746184 1.6328885915692781 -0.2553010308339926
Ni 1.303737795049164 2.26114203541961 1.048584754802181 -0.1338598581066598 -1.872118684983337 1.3329179857420528
Ni 8.863251026011696 1.6909905140701615 11.239203974588943 -0.2445481631928627 0.5192602515636153 -0.9138914195902197
Ni 5.089662988511088 2.465570384425649 7.893463109484003 -0.511965260564099 -0.005022650025571995 1.1429427726990637
Ni 1.2528819168556902 1.8985171081253094 3.7880204630867254 0.01927016108352165 -0.308165740043508 -0.8489489532805637
Ni 7.393454739561667 2.4057826286131236 6.526426214233324 0.32509902546373687 0.42764747505162476 0.037296165347297065
Ni 4.135784978992329 1.5165676914406234 3.2712815698992053 -2.723503244288587 1.1559060177279512 -2.0737492228770673
Ni 5.373575744287497 0.11061572188843978 9.270291575574566 0.7663898023304091 0.06024274684114141 -0.6970924014861672
Ni 0.4680769074342263 3.286261072989489 5.799801222652956 0.250932983673284 -0.4565317621861428 0.42502315005490027
Ni 8.234707354727698 5.336164202718534 6.130445376051459 0.33798128074304373 -0.9021625611890656 -0.4627024097732289
Ni 5.712940573615518 4.783429842726235 7.618078436025949 0.2739237881415024 0.256359554005494 1.4715040456797883
Ni 0.011530495763844177 8.100096515777246 12.156527344547815 -0.34553569605153395 -0.1873521735978451 -3.2169843300055687
Ni 2.288123749060494 6.370754752180281 6.963639762878053 1.0815651409225309 -1.6099019008661177 0.6099016653012722
Ni 3.898262162599868 5.72267259860461 10.56914661085865 -2.0295028514641817 -0.7332287421974082 0.5881832997875742
Ni 8.67932877937273 7.976548179419554 3.0804743342622194 -0.5213017074736764 -0.7555811417506794 0.5790044615017835
Ni 6.739455217063374 8.051436390831787 10.88380363372297 1.2607041825819643 1.03973457803999 0.6296809048107284
Ni 8.833450188497299 0.8087619799228133 7.814604864550884 -2.451882136138332 -0.8839288117898583 -0.30951788319602824
Ni 3.3799899637544097 4.205090766892656 8.745381875173452 -1.0287960767506152 0.009083964579139195 1.106011189780037
Ni 4.1002807654566 5.291793239838058 5.185234079034937 -1.7893304487415118 -0.024927616479615135 -3.3589542188138735
P 9.2938884797594 3.236475159302464 2.526572317352014 -1.198592243742568 0.7318696570663525 -0.004260832158882985
P 3.649239553772877 3.1395177669398238 1.6103663624994429 -0.92473324740073 -0.9230628016768425 -0.2701172699112187
P 4.637198258831828 6.385036452331577 6.6799623992930615 0.9845106245696785 3.072826946627643 3.027099876904174
P 6.255626571286383 2.7973059016207302 13.549546699630746 0.5058406357235997 0.2002961353530228 -1.2132051085597364
P 5.2647370938836815 4.061166584716505 9.679208749841358 0.6052633951983124 -0.24395346703165727 0.858075083951548
P 7.1758704791459005 8.85099760640306 6.986108087109561 -0.0974188416708064 0.5587122869116506 1.3251285716046213
P 0.8051706207968197 0.37615579148324485 5.485048368185015 0.39634172295980774 -0.31791099235572995 1.4883172605823851
P 0.868591603911678 6.541511783370334 1.5354437261422187 0.3758459169993011 0.8200183862891427 -0.1461715855944773
Ni 1.511031788124649 4.469120790927491 10.703400174704342 0.6539071243479448 0.6420301704047007 -0.928048170706576
Ni 1.2595343048740462 4.461472870716178 0.6040554401450975 0.5171010391287675 1.137324655181338 -0.1396391837925982
Ni 3.383283593626435 1.0299199217901194 10.058234837413643 -0.5226996162624674 0.2562831922416038 0.09095688809554658
Ni 3.4639217012559333 8.319457847677636 5.6611626651386615 0.3259369479839999 -0.5783223478330943 1.5460873775133182
Ni 5.974384074756503 8.352319714084395 1.2770900964150753 0.33915241823300946 -1.096079789598938 0.03501122596786228
Ni 8.576091160559193 7.66784015921109 5.867834217992568 -1.788020471680837 0.5952486912747879 -0.02776971391410056
Ni 4.140855680348978 6.789176002476093 13.257766448318222 2.529171811159431 0.4811454469697649 -0.5276109375211557
Ni 1.1202621422911498 8.350579858756518 7.438083424327608 1.3414468491486704 0.7414490732246715 -1.1367903799444228
Ni 8.539749583496677 7.80723327430341 0.5029605415562153 -0.7950030951917276 -0.44415472867802863 2.1718195820889434
Ni 0.8898652895116373 6.01298653334134 12.593958607709508 0.9977767455509655 0.49333196173362776 0.10098830418961963
Ni 4.628015172154741 8.638437527148008 3.546611349526058 1.7812260744668227 -1.9748699946106505 -0.020689410028551465
Ni 5.193570498146052 1.1046592685753693 11.871964236432268 0.05438500250878376 1.0152756736666773 -0.06308227317246555
Ni 5.9009938136532964 4.9130165005159725 13.449594337053968 -1.7122572606065931 -0.5983466134738212 0.14703059116066292
Ni 6.459980487978931 6.880718444032184 8.773596374006548 0.19240593397166864 0.41960017926711607 -1.1568460130437173
Ni 8.29034550906304 5.46322016184954 1.6036534982263746 3.497616640515499 -0.5950250052997559 -0.15883555421539097
Ni 2.395520273390401 6.647605742214129 3.156650224697867 0.5841065586150392 0.4442598867973252 -0.6505351225519184
Ni 7.359783421745681 0.2521115498369125 12.674913983075268 -1.1508597135532954 0.13939287210974705 0.6359256001688596
Ni 9.102309008869932 7.564872357533962 9.136935851510373 -1.0937632256506196 0.06676409289942695 0.3488087103758509
Ni 7.114249827613633 6.2606507524471 4.037124017054639 -0.42582302024837637 -0.17009518628961026 0.43341805898681485
Ni 3.4788267720327255 9.080370084468138 1.4839970414604013 0.7446608952937499 0.3501580253148937 0.7024225554498289
Ni 8.019895697989513 1.4233505228309609 1.8555073261778208 0.5594946736036299 -0.4518456695643831 -0.3501953063107323
Ni 3.9301471048920438 7.64516621571356 8.407710380977376 -1.5688470398073369 -0.005565924123551704 -1.9854012331592772
Ni 5.602929614274202 0.9244130478189932 6.325351040950103 -1.1159389904167103 -1.1655422552661345 -0.9249479345146974
Ni 8.67188554802352 2.9311817214754496 8.95097695069348 0.3924935528583111 0.08310473904097945 0.40169758795508237
P 9.161854859663608 0.9009017407946778 13.480805666909042 1.509823510085277 -1.5450905608176875 0.9420357432349196
P 1.8144272019576149 4.894808495827969 5.2171804279857446 0.3429270547840933 0.03249257331106663 0.6507765491387631
P 4.18182136488719 8.950429873189313 12.939582264198295 -0.9860028928444889 0.1849564196721589 1.1924920443821012
P 2.564304848272913 8.932919671440297 3.743423412054018 -1.1800134522991161 0.5749174359166034 -0.45249127356818203
P 4.837942208320008 2.7861503586361023 5.268068870316371 0.011779509133431326 -0.8760221553482719 -0.33528007976179675
P 4.724898132203889 7.534866831157462 10.261052657236494 1.872775858951362 1.7800104568921669 1.4327068703069326
P 6.807337486968166 9.072861724844623 3.438107644532956 0.13623452898642346 -0.03224986117264123 -0.5384285969619501
P 2.9613175044005615 5.192602878070654 12.65413434195611 -0.9695709725407108 -1.4190751384561109 -0.06466015918254671
