# total energy = -381164.494750323 ev
CRYSTAL
PRIMVEC
9.33798783374810 0.00000000000000 0.00000000000000

0.00000000000000 9.33798783374810 0.00000000000000

0.00000000000000 0.00000000000000 13.66708909297058

PRIMCOORD
 96 1
Ni 6.405224799314266 1.217879073692677 2.488326350950342 0.596980843474546 0.7355584187718494 -1.6330032627702713
Ni 0.5147435164819252 5.166764800023004 6.5708769716140205 0.10585925912867576 0.2944717874961832 0.5428532083922071
Ni 8.166873591453768 3.130980693546994 2.949713537678295 -1.3351666725669133 -2.0308315975779347 -1.1665043620690878
Ni 7.742406007964984 8.886458948362556 1.4626249383302607 -1.3421934975067078 0.24046139471799877 0.5421590105386598
Ni 8.101171507737053 4.016268647890849 10.766891617124926 -1.6321159750693117 -1.1922873845704627 0.2539072358102595
Ni 2.201290606162635 1.3226139473377447 7.239402210023233 -1.0027274046880215 -0.707227175927324 0.48535202885194473
Ni 0.36585490027771483 2.987128988081385 7.177627684068205 -1.5126787201458851 -1.0426887755723075 1.4572156540815742
Ni 2.3334231366617177 6.608027223157311 12.022569932528363 0.4966373719577769 0.47889933124806555 -0.9194162060631909
Ni 9.251985151461925 6.888120173851303 11.959974597426276 0.4068025132818155 0.1653353030071217 -1.3982672005718242
Ni 7.435092822189379 7.429975604753796 12.994081133064183 -1.3123825847928625 -0.14963151911861974 2.1176772917185853
Ni 4.887811083867591 5.863761563908661 4.99370853702129 0.2710444097111784 0.4738872227454548 1.112137357282433
Ni 6.394439423149853 0.4024962314738527 7.978368561069886 0.28774269630246574 -0.9864548927802429 -0.010614285180736559
Ni 5.587936073740328 5.542740211718027 7.236176868960731 0.07430925223653653 2.186901159012414 2.12360959804262
Ni 4.93036429527991 6.9368084433935095 12.071825951742253 -1.8087661888686204 -0.7366963890310345 2.207520892145295
Ni 6.486166479481478 3.2670351790149543 8.566408746926118 -0.015003672497683838 -0.14761011781321673 0.024467389013744956
Ni 1.7376968528652876 3.101015089987167 9.368708134128529 -1.4270704979567617 -0.48961748899651797 0.3079464249438503
Ni 3.942405162643659 0.9670887294090114 5.674151849541878 0.6662018825548979 0.2857835156935659 -0.46460991120858686
Ni 4.840579540456682 0.2875306581528274 12.521253977211536 5.130700121704403 3.8661200011068004 -0.6549371082743559
Ni 0.9728689439940948 7.419031482793024 7.255543856116569 1.3689296279499714 1.1681190148543752 0.048283003376103945
Ni 4.918252924816496 6.411537279216555 9.532795259635941 -0.9216525515928773 0.27240246640096955 -0.09563938117288046
Ni 8.857567213425158 7.127845002329922 1.3780526484204307 1.0850245602260409 -2.5822357808639467 0.006824736231317278
Ni 0.5217526102905903 9.141834244764599 10.845149559534864 -0.0897690384350325 0.08122911928482139 -0.05899833291107904
Ni -0.022870600261367745 1.2445483674810431 1.1495128619935295 0.26841468539781516 1.3823163336695226 -0.19909543017670225
Ni 3.814054517293136 7.234606219375577 3.2730768572646296 0.5001034761295066 -1.7717585012960197 -0.20736744037750737
P 1.1185415571238257 8.773721418983373 5.429292061450436 0.2783756532652689 0.07875314694050309 -1.2670051850993276
Ni 2.6178769277615808 7.343291061953585 0.7516940287194641 -0.6241761729424155 0.29014539220668745 1.393170245664891
P 5.481651094083751 3.437369418508507 10.620831477492317 -0.5371630999859651 0.01931207006505061 -0.42873145214442293
Ni 6.083045536609011 6.78811032214493 1.5958238670613571 0.996665771874974 -1.1330260278059843 -0.15147242898210045
P 6.783189202457791 1.978150044409555 6.609062806028855 -0.0005543298415732388 0.9181918467377863 -0.37115596772279946
P 1.3546525842382646 0.13342584184001022 8.979413950118959 0.6516952042982905 0.40505853400751535 -1.2032413124788053
P 6.2069512996614735 5.3628438724908305 -0.3535931882071604 -0.41301815517422424 0.4216786590626995 0.5933059657261202
Ni 6.393561652275867 3.092947068336905 12.664963745259225 -1.9096827592800403 1.0818780441772595 -2.313231027290616
Ni 1.1379458962317477 3.361741053525322 0.060085283922003414 -0.7895235601343951 -2.4181677746050223 0.5460460042978919
Ni 3.7136057801497695 5.138769511935637 0.14799777214699386 0.7407448480687953 0.29629367119627037 -0.5839273527246976
Ni 8.445621871872719 4.94359622430586 13.022249173929941 -1.261581442980595 0.4452003963337236 -0.6705696726052903
Ni 2.967995450626076 8.375129400301157 10.25313232458043 -0.16841317060149705 -0.07841504687479399 -0.25577899891167566
Ni 6.864345656349489 0.9644927687391354 13.687452890000035 -0.6620873461658919 0.0598856206120388 -0.6240319340550672
Ni 5.841761264130863 3.5563260479097663 4.116158039551749 1.2372323247122692 -1.2734866790586132 0.5110121526222103
Ni 9.465451557625109 6.844726543517082 9.301547456682911 -0.9518339602722641 0.10868875815767087 0.894293442853634
Ni 4.724564377282081 8.258385874060908 0.6690612389216243 0.2452349048472422 0.8056600606849416 0.8024263842389923
Ni 4.031797721969999 8.086015953178748 7.981498654654572 0.39176438800177044 0.1528680237780464 0.27340751062671625
Ni 3.204666757021783 9.206387755954715 2.6574699969711997 1.435529170247076 -1.5715973488589643 -1.4837792635027154
Ni 7.9309866760518375 3.0249758535310516 0.41008147914342197 0.9440710284973933 0.7054430874437077 4.708441164658201
Ni 1.8727241596509228 1.5154153860101522 12.176446901933463 -0.8021206800731153 0.4361007480253006 -0.1272089284490454
Ni 2.1038300251860322 5.514100602457201 4.679679470260884 0.5223769428157261 0.8889321785417207 0.8894296870034296
Ni 3.6916241563480146 3.776067582023152 8.710419198188088 2.8359982635662258 1.1385734399867746 1.4795225451088907
Ni 2.451203179572314 0.8872974893660034 0.784729028941839 -0.4454040277040974 0.3338346055645219 -0.7682286553113609
Ni 5.603082290310612 3.905324012211725 1.5458572269590574 1.0945684951607344 0.6076673766541147 -0.1367829452907257
Ni 3.1550073367253786 8.002767789970315 5.765037553152799 0.07216700908255314 -0.46738336018866605 -1.0952130707232686
Ni 0.673651793832815 5.076102274325789 10.906050049811112 1.5634618642360236 -0.7386038904663924 -0.8233813892241045
Ni -0.07655469339488202 4.64075593479238 4.3564945062457525 0.9576497956230926 0.7621521100999777 -0.785866422997782
Ni 8.698438559556969 7.074637146585486 5.4962743833248515 -0.4825269006983238 -0.5256106192616754 -0.6839887742246736
Ni 5.0328020238717786 3.5832848193267877 6.594316255345876 -0.27984606716320837 -2.4114307129915047 -1.3162017014286365
Ni 2.5395125322882026 3.6902888240609917 6.817130921317018 -0.380154571676984 0.957654423608783 0.44121827175752404
Ni 6.102440537728912 7.7716058965070784 6.137534564309948 0.5642663839606605 0.07508341139839972 0.9250528355236779
Ni 6.314338161904543 8.32627304697457 11.265617682754197 1.4378616750349946 2.157262253100059 -2.377867532324079
P 8.12448846382583 0.08072970783913219 12.107168368804652 -0.3256512984227811 -0.14913066822280122 -0.1661140901546752
Ni 4.354938797441431 1.6866927622938397 3.369333771585308 -0.15946881692401566 0.08104348563657657 0.837294399760771
P 0.9268438686355169 8.732158034301294 1.5592507031777736 0.6462087272624225 -0.38303086478351456 1.4636259284832922
Ni 0.8583207787376145 8.605329480998217 13.02820774408623 -0.4027337425290806 0.4025799905600357 1.6723524539918555
P 4.629456969286805 1.4221755756191032 0.879899935255659 1.2988467550899567 -0.9010754987724741 0.01616066892026249
P 5.15004980146517 8.55596887631849 4.401458786165129 -1.365254235980913 -0.20034781452656464 -0.40154229332414065
P 4.35887942838635 4.7395331720799625 3.379201223527243 -1.5248210119353738 0.4440603691920095 -2.653019793556044
Ni 6.542035661811938 0.7932490092123241 4.714571796300662 0.11034403437290673 0.6203454863424155 1.1948278916041293
Ni 7.17959613194306 7.847131543622031 3.732044571296306 -0.522658735722203 0.3849563639410015 -0.44060686342577027
Ni 4.010516447269829 2.878827003012243 12.69762802735716 -0.3911408954851586 -0.5590886964144629 0.5654205521697617
Ni 8.942169384896657 4.809689476082762 1.779797171858582 0.40033490327960086 1.3976118263760124 -0.9509896099940977
Ni 4.415430283842354 1.5951057757825318 8.02996187868547 -0.4432674409770688 0.17365282173388158 0.43848673175897385
Ni 3.975274880478059 4.953587871488477 11.37130503117742 0.9514259262005679 -0.7361677702210742 -1.9491211677813207
Ni 8.475839601109115 4.678490744385793 8.65872969929589 0.6869560843831137 0.15730086273841942 -0.7249137945738096
Ni 3.1816486165496816 3.456213478335161 4.726175180215726 2.6194581555505145 -0.7709046594816271 -1.4851311495449195
Ni 8.31863457277328 2.6591508348150046 5.071268931726049 -1.9654746694386795 -1.3485466934182453 2.3045430125983146
Ni 1.1321096537185371 7.449370605873697 3.4745981091511746 0.0963556905136147 0.7024963461105579 -0.06413205459321858
Ni 3.443364406818077 2.9749335757257804 1.636893272177118 -1.8776470710007342 1.0283209368864097 0.2732121067864585
Ni 1.1789583396205796 5.615193660774025 0.11654929608941006 0.23737941335856538 1.2444872065024695 0.18387809900631558
Ni 8.6589108562635 2.2630427209464115 12.209808731736578 1.1143803876803389 -1.657237709837604 -1.33585161444908
Ni 3.7609587174049532 1.4226424750201603 10.782595311580073 0.45705703856199353 0.6903759086979401 -1.4626406817518876
Ni 7.08092161252371 7.43501811828521 9.092222448207101 -0.7881673032168168 -0.5615772671642716 -0.8854236511678301
Ni 6.720372557039605 5.930705600032189 10.883444648409546 0.8301984121459379 -0.8627629763455206 0.9884233293605235
Ni 7.256345055488783 4.771730554776841 5.738100259108226 0.43702197428798933 0.3858346527808968 0.3351607805751131
Ni 8.528907387033234 -0.21909347774471946 8.711593917081146 1.3355669933291257 0.5795695899766341 -0.33220169794678917
Ni 2.5834757798917134 5.252898401529968 2.160753466364079 -0.9288405847008843 -0.05383735753542986 1.1673535974432605
Ni 3.1284687747693085 8.800045207214957 12.635456636911234 -4.7021023669243665 -2.405182418088948 -0.6813647063382652
Ni 1.1726271837422488 2.6097435401951707 5.08544212994453 0.03093499901595963 0.16838900223178097 0.26627192802319954
Ni 6.658788526040209 1.5602657424756712 10.351043930378452 -0.5067973432099143 -0.717498475946345 0.8536810686489105
Ni 8.607551922147247 0.06642391019075093 6.159647853742801 -0.940937110854102 1.1022766624382692 0.2548749990401675
Ni 8.879548837226915 1.9861060102035633 9.716452940438051 0.7716032282105485 0.1650923337583802 -0.6882511490454534
Ni 8.720485549274875 0.45755674404168256 3.4205993258213483 0.5207880010620515 0.10187533478026325 0.8419452682692209
P 1.0027318296856897 3.3125485326299744 2.214081782153988 1.0650026085781594 -1.0881939590929581 1.355334148653724
Ni 1.8623683309354824 1.1346402484722653 3.582745083619166 -1.757237424861709 1.089779301302207 0.6453800607135401
P 5.026545571897618 -0.07785921032143481 9.772884269647385 -0.34593910213753976 -0.14257384094088993 -0.9548812317390201
Ni 2.389889950225531 6.136608235898251 9.21271144144263 0.5449494287996035 -0.28588661693033346 -0.5375713911679774
P 2.9020412412327885 6.1308747112532735 6.900198861356643 -0.12907863466793254 -0.7593442083375374 0.5011095487965176
P 2.2011785503063814 4.209957195425265 12.209180285142756 0.3352217157200356 0.23405831940513236 -0.7696342774096359
P 7.777768968601029 6.277322377388758 7.378820238776405 0.08830788050847373 0.1519244289178545 -0.4738298871449581
Ni 7.352236854477834 5.5468489264473275 3.2848716699341276 -0.6219254292350257 -0.04668480565104863 0.38672014070964367
