# total energy = -340892.0012745729 ev
CRYSTAL
PRIMVEC
9.06100917174871 0.00000000000000 0.00000000000000

0.00000000000000 9.06100917174871 0.00000000000000

0.00000000000000 0.00000000000000 13.26170282369815

PRIMCOORD
 96 1
Ni 6.553211850432621 1.8418675966838314 11.430394320094644 -0.859202769798088 -0.03997371217946019 1.4362963874304038
Ni 4.884056151288026 0.4723205114872491 5.98348186497728 -1.4311505815634062 -0.34702256500970563 0.7111671344116784
Ni 2.7418432806031956 1.636798835070696 4.84789547552602 0.6722917975027196 -0.6558894448852962 -0.1966053167649969
Ni 3.2309656215646068 4.21443850583149 4.574014691275972 -0.41120527033520154 0.24633250878679513 0.5122246848730726
Ni 5.056795231855046 4.3220017467783585 2.665310371974299 1.342741656700694 1.24066114788816 0.7462220691332826
Ni 7.399718518698084 6.22968851473993 2.734828247232707 -0.8204593304813032 -0.981285689874478 -1.9665059389166712
Ni 5.209654458101671 4.496145283780958 11.64083082359447 -0.35375576996848107 -0.312644601750468 0.07758740876717607
Ni 5.44027526583309 8.12164537062301 12.406110980433422 2.0934991518104846 -0.7997285256918549 0.816956202424051
Ni 1.8152916565189618 6.452689013682175 0.29802474952905056 0.6684629106749327 -0.10502185082904494 -0.48472879344564906
Ni 2.8319640787210925 1.636427333690962 0.30597397295443074 -1.00932691228241 -0.15375788258216744 -0.014889001296690487
Ni 0.7519505061139126 -0.08499679738034711 4.74876350369726 -0.8756809699587693 0.30628857762545314 -0.653207784288075
Ni 8.743819571584744 2.5233098592270204 1.7330530303579075 -0.6962362241334591 -0.5773221887033542 -1.8508770019957412
Ni 6.966348567724549 0.7321413276657579 4.993906390972573 0.6150744677514632 0.33188699491984774 -0.7940420168300389
Ni 0.745778146604772 7.4440721590346115 2.3187557629399556 0.5379719690405057 -0.7037320182898719 0.4690190960198762
Ni 7.676622961738797 3.8079706913562497 3.621042070285245 -0.8864384655855896 0.3601022810117992 0.7449951387047169
Ni 7.429773886419486 3.858476756981542 12.666226279412939 0.8209606955977539 -0.11713200382901763 -0.4355276491306499
Ni 8.05627924980836 8.578546762649449 6.725938245586676 0.5479054261041337 -0.2575250350685048 0.7379438882848903
Ni 7.102082486466365 0.6541586575549728 0.4087747474332954 -0.5824397124355776 -0.3464672067268678 0.3777994411812461
Ni 1.9283911741247923 6.477724582272537 9.318109963001548 0.3216869144583943 0.25032286089311084 -0.6375001437448312
Ni 9.087376798755281 4.903899761571376 1.240838166935443 -0.1337305316176471 0.2645462035813444 0.3432854665647765
Ni 6.423231672572052 2.3878387097537974 7.27225367700859 -0.40586688884142363 -1.2169272946063299 -0.34067656818701975
Ni 3.556944490767247 4.37717423217348 0.7769770136950136 -1.5089593623127688 0.6061087739177432 -0.7824661390669815
Ni 5.928808641192485 5.706605511065279 4.799383738039251 0.3307281987250562 -0.4505074103689338 -0.128887601703049
Ni 5.1068029419709395 2.649212582919779 9.798727640669831 -0.13037575621280129 0.2255284275572503 -0.5414802393040803
P 0.12557743346025996 5.504889322879011 12.292365412867225 -0.1551244239123909 -0.021595209672272485 -0.11678773311572144
P 3.9639922098352427 6.104365695639927 12.68321385957697 -1.219842411370596 -0.04218203268468864 0.0817975901937817
P 2.488887085041429 8.46710540973853 1.1885380214763135 0.15537099270555824 0.12706031868632311 1.594262137446332
P 6.398911923713371 7.7089345207663875 5.5287641761829365 -0.09165468549351957 0.3421459536436946 0.7634734000145627
P 4.708181961516421 1.1697309906525142 12.553262676946035 0.5339798171619772 -0.12603444852497003 -1.5935211455152491
P 3.8154369629879756 6.2288186578507965 8.098604130171172 0.5091486170509102 0.30760729643687673 1.1468979006920699
P 4.878157434258591 1.0239484126393588 3.8559061486539683 -0.6267904706368108 0.33030293826217955 -0.49394902649233635
P 0.33390725230671836 5.383870483178365 3.4685316928952004 -0.2017624354859041 1.6883439443241053 0.31911529707647623
Ni 1.5617464953551783 1.0276181213903892 2.4619160848727453 -0.655975062620567 0.15433612368314065 0.20090625813319593
Ni 2.0299832099681323 6.602875242196567 4.881857950441113 -0.92304968905072 -0.1589877635225391 -0.6278518220217897
Ni 5.946858171641998 5.8614581593495005 9.154434609999111 0.4326297587575646 -1.2605527446057645 0.20756490110029416
Ni 8.61302390289061 2.2996660286271884 10.418937414823604 0.5930609395948496 1.1519300637993388 -1.2151244370696364
Ni 2.215398642492416 5.136070001886564 7.032760329008011 0.10644649909071345 -0.09503388637839763 -0.002071537817048045
Ni 0.42886753547134454 0.24703029550454703 9.19208400958283 0.47864530625573054 -0.40235990412942957 0.6165723924532285
Ni 1.4739724986360885 1.067178487827423 11.384721396809596 -0.16468455679700025 0.9930142911653157 0.5342832073350088
Ni 4.020369809462184 6.905739476772346 1.6541986911561373 0.2936642039932233 0.3551608778461238 -0.39550354332922855
Ni 5.739415425602269 7.969039852635717 7.74353489073351 -0.9707631930765991 0.6636714028235602 0.6320136667089631
Ni 5.087376138113632 2.9812170232815185 5.0341427087005375 1.2881957031340139 -0.6349737777785517 0.104256176307614
Ni 1.2097172245248529 7.63192500305032 7.17886457284996 -1.0671502510487816 -0.9556466491501349 -0.06281950642938212
Ni 5.1917861478373935 4.668929669394288 7.358362260225361 -0.7050527939838245 -1.167214500762235 -1.5979239025686351
Ni 8.354005892132697 7.239492691921614 9.140747955509157 -0.5498154986426531 -0.11873097288502134 0.3388127755054036
Ni 4.705826099108352 0.2104854329498414 10.426271395720109 -0.9764764414112926 0.14782763314066155 -0.5651284748506397
Ni 8.377147709787344 7.0425697776348395 4.600312458456504 0.4489529213976204 0.36918496003935775 1.441522925936666
Ni 7.112538891154486 6.216640661402933 7.123245379698233 0.633365038530535 1.4449671757315243 -2.723975298828999
Ni 2.3398334826847624 5.398295609923156 2.637447768494254 -0.6873558909246937 -0.5407099367969591 -0.5001803521140289
Ni 2.0478062151861 5.1154290227881765 11.314553847187117 1.1726433850872902 0.2994931519701745 0.8284842576683086
Ni 1.0257243704546724 3.2900796459886124 3.639753960511795 0.9987308819341187 0.1115416542254337 0.8124382599490395
Ni 3.7124948367646264 2.5333675795076225 2.693452054539608 -0.6675164876012634 -0.9100707602925489 -0.16258525106581032
Ni 0.7473348279959499 3.2606766709340604 8.206952054520112 0.8279409835703289 -0.6861688125951281 -0.5165513372728846
Ni 3.62061620284994 2.68318230664228 7.236897618869033 -0.022979234503992682 0.34799598466656845 -0.4585853022810618
Ni 4.036643382096383 6.944819609718504 6.070928759262019 0.8001944095846799 0.44836619565621494 -0.19854727098271613
Ni 0.7978526729332825 7.587788826936076 11.324578947834375 -0.42665142968694264 -1.7094604145877461 0.6569731648677781
P 0.13625492677436915 5.743529123807129 7.7875505554245725 1.1375869077037892 0.11261843222938024 0.4556552731184604
P 8.313874682112171 1.3710847384683102 7.863911304877495 0.3417214645117663 1.200797736034319 -0.3473845763348146
P 1.8252044006513748 3.0899763174509456 10.260618930496745 -1.1226572829771506 0.9072353477262827 0.006067803460634711
P 4.046012465673088 6.115945665476511 3.798297157868348 -0.34386010812132395 0.8182723501323135 -0.07242360517804947
P 6.812166434125702 4.000172819817624 10.282845586215949 1.1209858088119984 -0.2974858917321586 -0.3971169105629354
P 6.332721251055897 7.599858091272798 10.18702994377701 0.7443780739460083 2.2505354480336077 0.43354352882108566
P 2.5821339313546483 8.669202160313793 5.861858655958871 0.9926713060036 -0.41182927707244565 -0.6773280743750463
P 6.890652896351443 3.8658161744836024 1.4805634767731242 0.09796828641637322 -0.11517410877169841 1.2918489836158848
Ni 5.190771314800071 2.837146976018844 0.48496968041672667 1.1876714830650061 -0.36589651909607307 0.14194340644574263
Ni 1.4089053911270777 1.0143074987848 6.966385717862522 -0.2515199665250056 1.1882895762649794 0.4845909823162042
Ni 6.853067829933483 0.5460309157310939 9.328441325761858 0.22944190367904357 0.24112191112013312 -0.8889967132310689
Ni 2.671955716166906 1.443563751553476 9.200545180031503 0.4444208378552217 1.0781190913554592 0.3651817524172356
Ni 6.663955505630383 1.5096366310905467 2.7082649924808044 -1.3634639768497099 1.8034049245567068 -0.7017221869486948
Ni 4.420476795435638 6.681751327820565 10.658271289061178 -2.158927556617624 0.21755620798505113 -0.13321296855128023
Ni 8.157128282892232 7.09879334010433 0.17180126610842403 1.4846446968268046 0.03853466574008848 0.2806227974282329
Ni 7.590733654946162 4.29593322313215 8.002562868601611 0.6606472712852558 -1.9779056961131807 2.012720489799521
Ni 3.2181171104313697 8.47701815387094 12.376020274775898 -1.4741597381350806 -0.4502420725226891 -0.3741633870905556
Ni 0.13541225291302142 4.906273745997968 9.97441879805435 -1.273972103335464 -0.46459859835467726 0.13240641348958485
Ni 8.697626546368069 2.417957504540032 5.845214488045865 -0.2862226601135135 -0.14151994575507884 0.0008212103497147147
Ni 3.4166438233574827 3.1193792925054975 11.712788828647083 -0.3613099281666552 -1.1573702609783034 0.07658982074059714
Ni 0.8067895463681992 3.2471214010784024 12.795991711354004 1.3730901870855643 0.5318378311183098 -0.5593252379053012
Ni 3.1533127721909513 8.502089966498351 8.217004338195157 1.5588413347448766 -1.2107736163001082 -0.6824841646546891
Ni 5.598072742127398 7.990052333113839 3.3381029950761705 -0.13347804928720883 -0.05585644484798768 0.4169604276514239
Ni 2.953580945033018 8.48786418195732 3.467139921872587 1.2054282928277948 -0.6102158541075814 0.3234632896325268
Ni 3.603373102224728 4.347816562165236 9.318813097320264 -0.6977560032120951 0.5427115406080202 0.13919309739411512
Ni 6.987170767008173 6.056297041506059 11.592757638955973 1.078196481560614 0.2122731052092409 -0.9903328876784107
Ni 0.7382837858443344 -0.13013330891709474 0.16101413458224703 -1.2160549193037056 0.46082139070043215 0.051521564918059655
Ni 4.593369913160109 0.44284776666138104 1.369947581805954 0.7033535519045306 -1.115388260119563 0.8983331601406465
Ni 5.82106418006038 5.618151938651555 0.564345027651051 0.6100960407002655 -0.08626462482619983 -0.1262841026419309
Ni 7.851128939111868 8.683736019169725 11.440963987398536 -0.2754335399178095 0.38204330405926457 0.01209601193258562
Ni 0.14773794381185265 4.836603645783961 5.661434567693337 -0.5695952523727417 0.1473712623295333 0.21983009162089237
Ni 7.8920303349196494 8.645743207334982 2.691754021403946 0.5612813331904076 0.16114466196454183 -0.19129084653061895
P 8.645398888983035 1.6344339116533655 3.6774441346371924 -0.3747683676644062 -1.6847721678124468 0.7423319900502571
P 1.8334227360518305 3.071546224612437 1.5858741508175083 0.31122483858480593 1.1324786399429465 -0.49846311231260604
P 4.888767876104163 1.1681271920131753 8.273127323461841 -0.8616892836653677 -1.5351671310563881 -0.376309486899281
P 8.560932160644503 1.6080301306644702 12.494486628167495 0.01151982771414145 -0.4652444594687923 -0.11137581807153077
P 6.412240668337484 7.661355161132658 1.0871489522404378 -1.2937683121257848 0.8461271675610524 2.328389223088293
P 1.783433147954461 3.2086755387805703 5.955552210028698 -0.2682380506106348 0.06785346930886378 0.7877104181850563
P 6.940089762883843 4.005038581791212 5.89483982357091 -0.25881907128958004 0.32573254528267775 -0.6768141108531054
P 2.311789659019481 8.488933381050213 10.274318270399666 1.7237053545425347 0.2587571077033931 -0.9911643824407703
