# total energy = -340887.4159138021 ev
CRYSTAL
PRIMVEC
9.12062353872948 0.00000000000000 0.00000000000000

0.00000000000000 9.12062353872948 0.00000000000000

0.00000000000000 0.00000000000000 13.34895447568945

PRIMCOORD
 96 1
Ni 6.3571841804713625 2.358201107226467 11.26765229025582 -0.02601313623431004 -1.017046649524171 1.5002847173569065
Ni 4.673845384174432 0.5146685879701305 6.064243427513782 0.08625999684050951 -0.5014407068836912 -1.4904132238794654
Ni 2.3363024896742415 1.6782859707559348 4.526109521154463 0.7861124775703171 0.6207972291678534 1.0791362197660639
Ni 3.3994115111256984 4.343842976729776 4.714170397828599 -0.08020350623378446 -0.08149728534454351 -0.019402058675695617
Ni 3.5821614486075557 2.511965702525496 2.6527708035804776 0.280577031791962 0.7547326777074551 -0.6973430840443926
Ni 5.1615707376126885 4.504128817988755 2.608719103074233 0.7675082322055685 0.07020397181891135 -0.17754727169228132
Ni 5.044343360936822 4.8773264993723275 10.763275414091574 1.1117360080789562 -0.2431924204959167 0.23711021885757874
Ni 5.804556468640088 7.957379370934856 12.214186971689777 -0.09040435802618624 0.5191715485045509 0.40491918021617357
Ni 2.0575306256660078 6.84446262334733 0.4242859430899605 0.7232148096048319 -0.40740003765649835 -1.6281361644859573
Ni 2.656299572897827 1.5635211624845258 0.1524366324853662 1.1772875687275208 0.21793004638470212 0.49327873989818916
Ni 8.26300235117539 8.816067852945235 7.090070075384134 0.8398673026942698 1.5920306770126516 0.04456853063899421
Ni 8.707477706932409 2.594543829688282 1.1215101992567083 -0.3400764727091756 0.7826607715762908 -0.39445247635689484
Ni 7.390623812960975 0.6072310619194309 4.601678448988267 -0.20868744474051157 0.2964934459119023 0.5201521672502655
Ni 0.8375277229171181 7.359996758508507 2.2918950848429085 0.35325851861708835 0.2387169012230663 1.3000988823295028
Ni 7.495410658882474 4.167450113980904 3.6304086360250976 0.5862757983522161 -0.9720425740096549 -0.4409107678194342
Ni 7.763985665571512 3.907868042279993 12.582711245479114 1.1364923890880299 -0.27790488427643756 0.06305784769243333
Ni 8.427511041216826 7.6037271861836935 9.167341379030164 1.5776443263839928 0.00819487710596653 -0.1756063459158266
Ni 6.981025722310041 0.9736904264985127 0.2918453660487838 0.08915685877233033 -0.9093801619834273 -0.9330350823982061
Ni 1.978573386120145 6.7220182499035035 9.231056232214812 0.19473689609769043 -0.5683688361648082 -0.27303290089611687
Ni 0.539737534327501 5.13739196413041 1.5054018119522286 -0.9051111022944284 -0.4266416594949297 -1.3618179566058546
Ni 6.562972813470473 1.9120749185760904 6.892412478431591 1.1408956603620481 0.7922633276630613 -0.1906742959925426
Ni 3.796988619713394 4.427980730548717 0.25835990812240295 -1.2813804799843933 0.3931782376301616 0.006790540559272177
Ni 6.4759438219322245 5.882355388973485 5.021622975187406 -0.6558894448852962 0.26931431439394904 -0.07979367238987548
Ni 5.316238274660018 2.9508501159420253 9.321828327727834 0.4642083048947941 -0.009312278539861382 -1.2358056195680718
P 0.34956432119976394 5.622189597354479 12.379820234635918 0.6398079659424014 0.6769416375699051 0.925145138127168
P 3.9218225965719156 6.3842997947915485 12.626322419859674 1.2297499002922951 0.23611905858890303 0.30150992528988724
P 2.4824787260380554 8.774942960590804 1.2922418908624447 0.512261451648279 -0.6846423486482726 -0.1656021835152632
P 6.643079251605081 8.077698639051873 6.051962507674519 -1.1621787381105404 -0.3309058619535011 -2.738044889548188
P 4.763254858503656 1.150001203633902 12.532839674977005 0.5413300868794613 -0.8619870174114445 -0.3520277315337808
P 4.065134957087583 6.135762798415812 8.413552838675415 0.6826862533631662 0.04597286718568856 -0.8472985621613343
P 4.765535014433708 1.2188345508503307 3.927422659536125 -0.2590795240398183 -1.4233691378457745 -0.4042409232022264
P 0.06120576959921662 5.720072131119778 3.6252153528788096 0.04744250975267958 0.9432115087105755 -0.40469266602766435
Ni 0.7060366028052152 0.037483027302949105 4.39554414435016 -0.006628561060111165 -0.17419121073585483 -0.03821302073461161
Ni 1.9022793687005843 6.688317545257326 4.608793447552403 0.8327774857270238 -0.03611165812089265 -0.3744089274424584
Ni 6.661949822082198 5.915673027423413 9.13982901757815 -2.0252726154329186 -0.03115302856403667 1.0760382975670306
Ni 8.300916783980304 2.5631688840907576 9.92897912815853 0.8635587327739386 -0.5619503342329741 0.3001996911188959
Ni 2.475446725149773 5.2993924826487895 6.952923256503328 1.2113179188393526 -0.36613126081469843 -0.2769155237799747
Ni 0.4903165226371684 0.7106060352890406 9.142645466182952 1.1247252212497727 -1.5827587647924226 1.0133707433344805
Ni 1.6779849901731678 0.9727327610078905 11.515115789219688 -1.048056467642124 1.4546625486424174 -1.7792481248048453
Ni 4.686003175593473 7.011798706742032 1.5738949599038934 -0.813768805835005 -0.5570701233225374 0.15934746085480297
Ni 5.765574922859909 7.945823540681348 7.936487670241341 -0.8975595151994153 -0.2729434265061041 0.8341589394555827
Ni 5.455017685186741 2.9010332691822356 4.933319832515444 0.18109128028979782 1.0870477613036569 -0.07378603274321485
Ni 1.234978054835103 7.426194245469796 6.942497471528756 -0.8334662842639324 0.5286802593259347 0.16654860658893253
Ni 5.347138947824091 4.629774530358374 7.153050718359304 -0.2806896461104263 0.8867410844276727 0.4778197250306416
Ni 0.7673116891447055 7.568019944319069 11.381826082110159 0.9893167877090704 0.25154490622567 0.06891867734858453
Ni 4.79813212360974 0.3250663258872785 10.323013786493293 -0.260278429443926 0.7514347236824737 -0.23991297841369652
Ni 8.452328258359518 7.334249237746354 4.971805216365245 0.08926587354636885 0.4136169651004877 -0.5785792010389067
Ni 7.647022786983532 6.505522004656867 7.207607553266487 0.993825217102385 -1.5614700306169753 -1.1989897362913027
Ni 2.8769365813134393 5.3040348801223764 2.36371270014059 -0.16839954375474225 0.3619401055514863 0.9342190754039782
Ni 2.722460577364234 5.14432363815777 11.339282932767238 -1.8727989988798133 0.025080854228027773 -0.28056829004121353
Ni 1.064477115009488 3.826366148716192 3.4658424860542234 0.5486194214520229 -1.0628241128696019 0.484696654656133
Ni 1.2639633970179323 1.1919104696282692 2.1371144520614482 0.8997968891703664 1.274339771087528 1.3987603381581586
Ni 1.2038037629594236 3.268466716374636 8.04106291769253 -0.6753444682861143 0.6789440127119146 1.110363553211462
Ni 3.8198175408850807 2.854727862554727 6.9336477303330355 -0.23910565202105277 -0.34037420645525257 -0.80818051311395
Ni 4.264402344126742 6.947233811426662 6.026546065553408 0.01439097861434941 0.09765975403701892 0.0664146799798082
Ni 0.46481343459071583 -0.011828536902741 0.19803701489930267 0.48017279864385043 0.4888636415496291 -0.9561084192779018
P 0.6044976109904838 5.4768524583729254 7.973410691247869 -1.222599919511075 1.136448680334288 -0.24853260176190745
P 8.611127437952105 1.9190521957220517 7.741352837809809 -1.5488741962298358 -0.17658593622027652 -0.18994538824631801
P 2.0675541911345188 3.1129692025687667 10.5278930933075 -1.4247426211545333 -0.05309456583213437 -1.0631879239669237
P 4.524823513209912 6.157898552184764 4.000935798783393 -0.8904128768523052 -0.2446810892263012 -1.4576969645933668
P 7.316445780244503 4.308920108505089 10.547569926921481 -2.382136077792446 1.1592595075812164 -1.052904796873361
P 6.501271794003249 7.8984692623260155 10.078460678558546 -0.9321729915082269 0.20660973627587645 0.9319032827866081
P 2.494280813132008 8.623303470618584 5.63128285920353 0.2958067042575228 0.31749961584992414 0.22292544271676445
P 6.932576969108283 4.284102891362397 1.1938303609213734 0.11069807527821579 0.514368727799269 1.6732322854936474
Ni 5.459906339500773 2.917869940569744 0.3541054797500567 0.15697150442345867 -0.4357019699249851 0.27108143359670084
Ni 1.2577522522644689 1.0557760399804073 6.837188013868089 1.073367692713403 -0.2285214487473032 -0.8505967732966319
Ni 6.923346897903429 0.6519731936412955 9.043169559453732 0.06546491447202919 1.2141810993197606 -0.5136868712408958
Ni 2.868445280629923 1.6675418760135265 8.852653410874114 -0.20252168224943184 -1.0635555917189876 1.528234408492297
Ni 6.315703583791845 1.7464808743119484 2.5560174030317406 1.9392183068453117 1.261879433836988 0.7250120107145708
Ni 4.095570478441926 7.071794169573576 10.448747056850628 1.179071400100821 -0.8283209926175669 -1.575591557620022
Ni 8.237674379104364 7.225531403001445 0.2656135401670863 -0.6399064391934787 -0.5136259360959735 -0.0857437193257233
Ni 7.687071445738977 4.139650452881702 8.151552889626277 1.1699092739855785 -1.142533195965471 -0.7579624974986624
Ni 3.229913839909306 8.429189235981344 12.003834378581073 0.04865015690753557 0.7811129674731967 3.0615310619988496
Ni 0.24994157242864865 5.08017829153353 9.996391482199346 0.4078674642112201 -0.8682383976377951 1.067899213399664
Ni 8.98662351651317 2.5151123177089683 5.2330171435249575 -0.33371556348815434 0.2732041363666585 1.297693358211804
Ni 3.840731131075523 2.882025889349317 11.527262635890265 1.1394666412250054 -0.5168274737524067 0.7080576422484194
Ni 1.205637008327186 3.576661712504269 12.776618441957906 0.13735861528853763 0.03799833362064424 -1.3335569048776326
Ni 3.462352935418871 8.50871195419786 7.787806910603957 -1.4284663498630237 -0.0629784006047496 1.1937030339710668
Ni 5.744260025225777 8.076430872354763 3.861625567956154 -0.518223839879301 0.16209751279611437 -0.08166594971192387
Ni 3.1783184715240753 8.663944969915843 3.4641469621046364 0.478606225487679 -0.06303445065366564 -0.21178279583638365
Ni 3.317818411324695 4.121172069224556 8.995086543263154 -0.0725148793402751 1.0158778260270505 0.4767411472544822
Ni 7.771765557604851 6.467379556258947 11.200854666253742 -1.0145398239419172 -0.7430776099670299 1.586666841597577
Ni 8.403952470147523 9.003651720998803 2.346318758643777 -2.1089959618945033 0.5579265577855618 0.09477214807657872
Ni 4.7232518028668125 0.6068808299685747 1.411104595371344 -1.374045351909982 -1.2228883972857714 -0.5144936834129075
Ni 5.97143652084878 5.627233302271756 13.0257501030002 0.16660979884417113 -0.004261346379515241 0.6431833101725374
Ni 8.031976952342456 0.08621087159054575 11.044471539884642 0.469388820654469 0.18129234055701035 1.2326814721167934
Ni 0.33150457417137513 5.248353472310492 5.764265201293687 -0.7566044408088711 -1.8059035226088447 0.16031676674660778
Ni 7.414200625277719 6.502275062612472 2.560556737457289 -0.517265846841406 -0.5951011099533299 -0.16904103399348305
P 8.627736093746607 2.0661496150816063 3.1791074054758734 -1.2648701410341958 -1.172334852707936 0.8649149896915168
P 2.03987309814368 3.3995665617289417 1.3985035416395013 -0.04932430015642473 0.08978883592937438 0.4059571345623847
P 4.891089520566126 1.228648341973277 8.127283821969169 -0.07843021638344556 -0.8057420788757865 0.2940794371537709
P 8.828699916797726 1.7829907310639512 12.1472817243278 -0.8307524848771951 -0.014373238002536535 1.388923297463079
P 6.406253136086096 8.230168105782631 1.5811832503187135 1.5013728082147626 0.8149661685772157 -0.822002763709023
P 1.8530918449774891 3.2768120870786284 6.015293040007412 0.4924963532062099 0.15885278060657157 -1.6072176691657352
P 7.093856958352765 4.053205181261547 6.0417501452949995 0.6429681088379379 -0.2693004304368781 -0.9836500763415962
P 2.519025065284939 8.632004545647666 9.992921084873808 -0.9511528750448393 1.4509385628236109 -0.6623699104033173
