# total energy = -340861.6408205198 ev
CRYSTAL
PRIMVEC
9.35947218354499 0.00000000000000 0.00000000000000
0.00000000000000 9.35947218354499 0.00000000000000
0.00000000000000 0.00000000000000 13.69853361056467
PRIMCOORD
 96 1
Ni 0.5044764814159479 5.178006258784581 4.3192980935175465 0.8209187866162249 0.2723369032703568 -0.4452127376288978
Ni 4.279225513778689 8.29378387589198 9.523522105511164 -0.36480457158347496 0.5837874847127236 -1.0718047191016573
Ni 6.092370524814693 1.0744673955438084 9.193757017641706 -0.21949173444486714 -0.6797382264784358 3.4397637340627725
Ni 8.897245198148797 4.308445785633113 10.714582316732399 -0.49530656896149533 -0.15437186201708253 0.48003473040408945
Ni 5.82848956880457 8.189753343649215 13.144113145029628 0.855827682678268 0.09893964919070702 -0.6359479687663628
Ni 6.959282267365649 6.440215304913871 6.849787675318715 -0.1797458220054969 0.2593284068258308 -1.5160980302400793
Ni 7.6714632173806265 7.3472979016605935 11.837437247016814 -0.8206709322714769 -0.7032589353081953 -2.4660275744007785
Ni 3.5112995480158116 4.167641887562024 3.989355175678444 0.3619123376373445 -0.9594837635080378 0.038890763527926565
Ni 1.3469590658736204 0.11810717826103936 9.536740487939095 0.0262537914902064 -0.09820662767942441 0.1410527763106732
Ni 7.758412713065313 -0.13982021755478571 0.22214239023984772 1.1098233644372757 -0.9956064773725242 0.15419111346484415
Ni 7.72661858638707 8.795535814983513 8.190243779986552 -1.0792591184971736 -0.21606882480624723 1.009012980586417
Ni 3.8114952557220145 1.6191980304570939 12.75914308295167 -0.38196385697158086 1.179365534302472 0.39167619916333835
Ni 5.409419206126224 6.826499436872791 1.687974239191193 -0.8439455865287014 -0.04281580961394562 -1.7560665444820598
Ni 6.167704915639885 6.858752177683279 8.876293083935693 0.1582711970714887 0.9742786624290253 1.4528514635756073
Ni 1.7321294206542335 0.08346590017404681 5.001595185107161 1.1242387685316575 0.04023956424633715 0.8840853919723806
Ni 0.18365904886129827 4.908182037999455 13.003743526463358 -2.0704145020768796 1.5130137348878008 1.8587507483168633
Ni 0.003414335417198443 1.3730719929952864 13.163112873365463 1.1566503520931433 0.5276399909868784 -0.266458847223025
Ni 1.004430465919642 7.345294974634057 5.945560653505621 1.3639671417383736 -0.4569305402864582 -2.7467573297205212
Ni 8.973047562578321 9.011926809626134 11.395604648223813 1.3598716315127615 0.6115854807615984 -0.45384675915481193
Ni 1.9138435712159323 1.1471624152405746 2.9042395087416897 0.7963472679244479 2.1066865970350364 -0.030740366506650286
Ni 2.810293807672256 1.8491696190973983 10.346653045482544 0.40120162215527033 0.4418206812282132 0.7127992706984627
Ni 2.545851283336936 8.946279472410591 7.305633275719803 -0.14175802990781391 0.5497190822741049 0.3335183598756837
Ni 4.306807878017954 6.131670948106404 13.15633193583871 1.0114727549808193 -0.8680969869639242 0.1470915263055854
Ni 7.430232183820121 3.5852300180280112 12.531268016058768 1.8145550276362556 -0.6573503457015389 -0.28213486319738507
P 6.156417392303424 3.4961372032354894 3.9336026723528748 -0.05236000165895498 1.7494698651011482 0.09791737857377975
P 9.680969952793888 1.7999855932822177 10.901936485173492 -0.2991339688585429 -0.48762796937031505 -0.6052759936038028
P 0.4584185192776981 7.228217338302546 13.2392081892713 0.1354313163588377 0.05138143979576957 0.10713658317920258
P 4.051387884774134 1.3258347373741226 8.62763811711608 -1.481755033983835 0.36570805723435085 0.2963677189673154
P 5.983089328731335 1.9574961490279212 13.55350674951762 -1.5528586347988806 0.1856519030772867 -0.26943464202189726
P 3.9627068867534234 8.023398086781658 0.30212563085046384 -1.7528801763342778 0.8158251741434015 0.07236215581249474
P 0.20954547675846785 0.48291974530604814 7.793205614600109 0.36121428312905535 0.504441441383228 -1.0407954152043366
P 6.378770370665221 3.9612187306916518 7.863820959599228 -0.3073998084117609 -0.34017905972531093 0.20657271239035394
Ni -0.04276062012213413 5.850315857710564 1.6403167432733403 1.805050687690246 1.8219857728826878 0.7717397537884129
Ni 8.263421748442989 2.839233295364081 3.602988680365161 0.03510275724040406 0.43735313237516293 -1.237268320156527
Ni 1.3472585689803922 9.201924092984491 1.1897105753463426 -0.4344238745435099 -1.1405773577906808 -1.8721721639290918
Ni 7.645968015416678 3.456939734136731 5.885040435099128 -0.6079555973184949 -0.09290732695369805 1.0023116573068416
Ni 5.8511862886146195 7.248808176893107 3.8391375205826335 -0.6416331920765982 -0.05123360136399564 0.614474115163303
Ni 8.023678870944256 7.349216593438351 4.340380304392655 1.9386122978301967 1.6336830624461154 -0.0026353807403180418
Ni 4.73753078344414 6.174649643928157 10.73111582417341 -0.23366262662861048 -0.25584199093912713 0.5722206058107306
Ni 1.4930791440899092 4.9443938355025825 9.88891683171996 1.450402744924799 0.43512321460337966 -0.4529137058175813
Ni 2.7967693705070924 4.182139709824195 13.958942233260178 0.16829387141481336 -0.575094584924416 -3.090807442365464
Ni 7.083810043478108 3.0766082264249 9.807780504148274 0.15224530259238298 0.47920889206868433 -0.32576545540314217
Ni 5.6741612335683165 1.9919109278904177 5.334783967865902 0.041013209187568074 -0.9940561021662687 0.181267657966662
Ni 2.151293378053445 7.398643965527783 10.57134963565483 -0.4796030421833095 0.41628551307158623 0.9071438164537409
Ni 8.555821015901039 -0.21324995581035147 5.998944274446067 -0.2699838296571479 -0.7835804551770826 -0.34035106652680097
Ni 2.2561849817281785 6.9262339714277985 8.388296760969862 -0.1576353632597027 -0.6923032076276399 -0.7263950071050265
Ni 4.221720917278505 5.6186408451504954 8.071860497298958 0.7909212118128701 0.9247782417060525 -0.15125337099275887
Ni 7.365670545366625 5.33060309168481 4.620460634690298 -0.8343021499016665 -1.215085870522217 -1.0295517239697172
Ni 4.21686335126555 8.704103132169337 5.334975837043678 -0.40908848110251483 -0.0971416767500198 -1.0153525496511997
Ni 2.331173072086166 6.291118914574038 1.2284615976265691 -0.6465450275559188 1.4330711956248867 -0.44320727716309477
Ni -0.12757147643502803 2.483105382468245 8.65965125544115 0.12088247201038538 0.1532914844687102 1.044923321329781
Ni 8.054883350881042 5.1967345624299055 8.68833616549222 -0.07875623226429662 -0.2949788090395888 -0.28593006857375913
Ni 7.043096339901318 5.366711934994984 2.244846917242449 0.6400686758029558 -1.7562352088494397 1.2033981497716435
Ni 7.204416200786275 1.2218322835476172 11.82076615533613 -0.595181328371962 -0.13254499594997818 -0.6443251370864645
Ni 2.9434790954648378 5.449346714047739 5.935670499351691 -1.6624053700814725 -0.31449065382027125 1.362554577661563
Ni 5.325717447255595 3.0994359788441623 11.494576385803759 0.7318573157711783 -0.6594889893110965 0.728579673461171
P 2.401303596431199 4.382891026610077 7.9108485630456515 0.05254332131435467 0.8607330903996854 -0.014621606567916752
P 6.383674734038608 5.391449019719918 12.124408020664626 -0.7739290481302478 0.7952144398715852 -0.6384491379216617
P 3.502108546426752 4.140667889008389 11.68773904262181 -1.480427316311347 0.3918518055092542 0.259458761756108
P 1.7687155970408253 7.414433394937909 3.6736863887186435 -1.9881327731578278 0.5855936846835269 -0.08741673615277203
P 6.431342525375756 8.949171549285357 5.081689803435608 0.8742977164579975 0.866149119208934 -0.06297120151589801
P 4.841673629351944 7.377847218551316 6.978608641277307 -0.015786573410295393 -0.6792695143721333 0.4657070009275076
P 7.320277105746525 0.8632549968067138 3.282566217532567 0.8330785619072105 -0.2114997173783261 0.06342422989291657
P 3.9797598448952427 5.153643552943112 1.9567258644751924 0.9189552072663723 -0.7625822556588608 0.4996594466135523
Ni 3.602442087195303 6.610801043164581 4.098724350799416 1.074594880252285 -1.4590478221943066 0.4944545053738452
Ni 7.7571023869731865 2.1802515846894424 1.0066926503229776 -0.9193156759295844 -0.8860430299193837 1.0535339458169275
Ni 1.9016762575033281 9.440150736005192 12.061257790601793 -1.3235429722850562 0.8754968789724211 0.539644214536606
Ni 0.016817099445236194 1.8855966844585177 5.446770051382293 1.2589959416416059 -0.2706895974749209 -0.1919094539512243
Ni 7.4354922071328 6.488697370322555 0.08019102089093899 0.37859905426440604 -1.3367011069335688 1.4751796947591627
Ni 1.8042160746653693 4.052585897201221 2.23166878054449 -1.6499074947247778 0.29110518501679544 -0.06390605462534156
Ni 4.1951587354966815 4.005760458351869 9.668534958179606 -0.575076587202287 -0.9909561230847064 -0.7396755262640164
Ni 7.273096006957882 1.7338328445739979 7.471782624201455 0.700295224694181 0.550979179933451 -1.5539580385106464
Ni 1.2524190383266867 3.2867938910740926 12.111667907260319 2.296346849940768 -1.2714593642159393 -0.7679268078002259
Ni 5.219674628514207 5.251103735781072 5.461441023878068 -0.006947120741794487 -0.13799547754158814 -0.0836644681991914
Ni 9.287516465216617 7.097708859526738 7.742191811991995 -1.060274864085187 -0.2516750040456311 2.5317778813237104
Ni 5.234986724847914 0.17619206203059404 7.328414230778631 0.46931168755963043 -0.7689117974213145 -1.605535653477622
Ni 2.138068443995053 2.256821425830069 7.910683836336927 -0.10076230422174261 -0.6194926514238169 0.38210475342481937
Ni 4.021961704533806 8.922693602752313 11.802834342765378 0.9457702705766873 -1.3553066378498981 -0.5076720325053837
Ni 2.178145703469953 5.847124277729026 12.311036830019008 -0.28762314000546596 0.16215767661008845 -0.8267461919312794
Ni 0.6694072266319225 3.843064755070179 6.569145776695876 0.9721533885559062 0.02384235383523636 0.11559679813141382
Ni 3.480965498983081 8.094389682558658 2.423024123302615 -0.27580686409682825 1.569175369681033 0.33105678570906855
Ni 0.1568825351686913 8.997606817333608 3.4830442377335187 -1.5329148446871017 -0.05260142824579973 -0.9415598320397656
Ni 3.434214935910421 1.5539718694854496 6.113874847880908 -0.42187200602042824 -0.696150349287872 -1.4881933334100113
Ni 4.003514185051081 0.6301058673930027 1.2386231764710112 -1.5634554364781204 0.8198258106623624 -0.6305841333512883
Ni 5.993272434361576 9.29404001726099 1.8103849027176595 1.4972194481680214 -0.5253013155513727 0.5198508339597628
Ni 4.345031962019704 3.3875392486144547 7.020840451226547 0.5698510771372896 0.7927559510287637 0.8329631193752687
Ni 4.062740924415203 2.9279517312731382 1.6163171849488327 0.8510834831250633 -0.3395581383118603 1.3933769623590584
Ni 5.920343427862644 4.382862948193817 0.3766906730701364 -1.3774381796416149 -0.45819629437275927 0.8542788501339094
P 6.1794042557481585 8.746117802366168 10.71855447668596 -0.32020364504464854 -0.2932965362411594 0.3997728601285438
P 7.766386983283112 7.4309996605312225 1.9918220129055946 -0.568694080714711 1.709842223407197 1.3301915879498252
P 8.686292056788501 3.9902986104647753 1.232780058047335 -0.1859015571942476 -0.4213061062146292 -0.3008661210583012
P 8.763095884731294 5.485212211083662 6.229202262932222 1.0232147260080957 0.8760550654687363 0.418834247635369
P 8.949442973975868 6.906934739985191 10.026340088473363 0.8684052622329624 -0.5761857611060658 -0.6782022494498836
P 2.0355635057024064 1.9453007568990572 0.47937437727963705 -0.06242509920444087 -0.42854813248902324 -0.025940888235477907
P 3.84931688242404 1.2785038870320926 3.890191568920721 0.15546123842651935 -0.4843022474311917 -0.00567982399359667
P 1.4080296212388064 3.0669773296477696 3.977793419809844 -0.8872229091600978 -0.7444055847498341 2.2464556215372795
