# total energy = -381167.6035457577 ev
CRYSTAL
PRIMVEC
9.27193677498292 0.00000000000000 0.00000000000000

0.00000000000000 9.27193677498292 0.00000000000000

0.00000000000000 0.00000000000000 13.57041669191806

PRIMCOORD
 96 1
Ni 3.80421997635396 7.163164466972272 0.3794734785159816 -0.23722746116173335 -0.8242339670323868 0.3530636289974629
Ni 6.116464810358667 5.381098242617951 2.9148715750663174 -0.07701019610746736 -0.412166091586574 -0.11629639530159971
Ni 8.352995009669941 1.396316571919163 2.080670798592487 0.18946073530041563 1.6912230656441132 -1.7552666742885836
Ni 7.197999132970707 0.07133735340041467 0.6245752695022541 0.22285268049730006 -1.735928378971288 -0.7707537357260597
Ni 1.825876125031084 1.210173171710332 12.491582347119286 -0.29220973093488384 -1.5304296163714028 0.7217443957068925
Ni 0.40829714798346484 3.5184959765115944 7.791753557850815 0.5350655940269882 -0.7507294700853329 0.6605565113436623
Ni 6.123502210276902 1.3498827131701179 11.778578763387522 2.047295913781545 0.7314001736291017 1.0691675385891264
Ni 1.7047939043034928 3.6971012922230266 12.262282717767597 1.2975969418432556 -1.6694715328996346 2.8638021731523713
Ni 6.431154340299279 5.557969706175615 7.010178439421679 1.4503384673457667 -0.5916319204578069 -0.3437333527354725
Ni 3.7528256314965414 3.0921816012275816 10.824958224427654 -0.4123473543594447 0.03823924598685672 -0.8914904261872002
Ni 0.22356122775828102 8.97947195337935 11.654001949736106 -0.9598640296655921 -0.025629270532330054 0.18387809900631558
Ni 4.521691706357923 0.4937361898366396 10.514861084710365 0.7016031448723272 -0.6676134181904437 -0.3705628142234908
Ni 0.25379423159674164 8.997005185586708 9.449407081832446 -0.7021854997383583 -0.013543800122705707 -0.5806512530765872
Ni 5.295740793807307 4.9598741605554295 10.341932975810442 -0.18141652483970047 0.8002733424517314 -0.3166850903684288
Ni 5.6370407819367685 0.10887664331999497 8.094441492990157 -0.9350863085002801 3.528167773829478 3.6319758068560803
Ni 8.175131448890603 0.5186545195866512 7.678155644388046 -0.24329243640889067 0.7509714108928099 -0.6093499065628603
Ni 4.550036016700541 3.9093822818514976 8.400834494015305 -0.7782919530846338 1.270195409901851 -0.1758781115199745
Ni 8.73500807163468 6.8058611161828955 0.6863004061764039 0.5662181083703927 0.8180126687130234 1.5461673388216342
Ni 8.744817780611614 5.714238926494386 2.842486492824321 -0.561454111322846 0.44675668507724997 0.11786862488472605
Ni 0.813665291178826 1.6886143748472062 6.229581510309241 -0.9869678278609196 -1.1532058451879688 2.0009625779326443
Ni 5.7400241823212825 2.370018271278129 7.018728092207721 0.6478056394358973 0.6308638693752361 -0.09575636636671897
Ni 9.088908621673076 1.043398847165789 4.208430054661591 0.733950193744465 -0.16356509848057638 -0.2860866487562815
Ni 4.352766292510309 4.366386767450874 6.07020989998699 1.1164012747651093 -0.029314432693401126 -0.7935167404541883
Ni 7.934812122829003 2.7591429086543102 12.628900656116736 -0.8403702104726172 0.6508487971375952 0.9026220173239874
P 1.4518462005230028 8.952898582937106 3.2398010318444785 0.5075100530062227 -0.3446291250768645 0.9976019105359981
Ni 4.5971467268251205 3.529835555035972 3.291912097405033 0.06472340832031433 0.15149325491770682 0.792602456170035
P 7.124185245290765 3.434019361682811 2.143678244105493 0.34864724509732214 1.0929155329383435 -0.7244034305962943
Ni 4.803744019286426 4.071511366133806 0.7749809170828266 -0.5060103285322447 0.6049931722560613 0.4447471108463889
P 7.451187907104126 9.223138448572023 5.097971312231578 -0.010358203305872483 0.5055593570377551 0.01972421790180474
P 2.1972728195302342 2.5155969486381036 0.5330278757832905 0.4702596532951966 1.5944652545960734 -0.5385561236787499
P 3.7673454842922687 8.544145255670404 7.704916307950644 -1.8792018170823637 0.5871036935701501 0.1628780997158808
Ni 8.786532223605215 4.746675249198493 5.959584569414584 -1.0573054970442177 0.9736711107520134 0.36294617821849745
Ni 5.988104119359909 2.541929248727418 9.781637261529735 -1.439713640642069 -0.5061602238465476 -0.7337277933210137
Ni 6.361077043089757 8.206062629558897 6.640479436523358 2.1865291203849764 -4.1162042636265435 -2.6075025258505353
Ni 1.7653118348256607 0.24782032281239463 7.839616222037805 0.9401356979987293 0.06501651408070093 -0.6611319242311582
Ni 3.8452946557186305 0.46409195397552805 3.488194360341915 -0.564627109734189 -0.6211407285502013 2.1022475874270765
Ni 0.0069864042666544215 3.6058283478289375 0.9848474944073337 -0.1855647426801191 0.10857074452256786 -0.5761348532634724
Ni 2.184171573042135 1.721835723868338 4.605568426885376 0.5796693487792921 0.31924410934485664 -1.3228654866020573
Ni 8.536152846277098 7.534626065027979 7.665765555441091 -0.3553917629100073 0.1832144972803877 -0.17064205993201578
Ni 1.7747599382731998 4.200697259494517 2.4056818484131774 3.457579164977639 1.488774916945094 -0.8560158874296742
Ni 6.7863251456588864 2.085193649290926 3.65367154094896 -1.1688499794831289 -0.5231670428171893 1.5269064337094929
Ni 1.5650101873504974 6.910392929988153 2.0838325289905346 0.23784889679581617 0.4467929376318241 0.6135724292846402
Ni 6.600005578653683 4.131398804963695 4.959729518343671 -0.1187235166858536 0.2629868295140245 0.03451526016805023
Ni 3.792945301386141 1.7117756726018216 8.445860872780703 -0.20372984362492008 -0.688466093269737 0.7118201946146451
Ni 4.237951900958907 7.456565630361804 2.8547949887287456 -0.16406157850102066 -0.036558772960640265 0.9176593712730841
Ni 7.689411775482562 6.452192364560776 10.565750109020296 -0.2647418645319182 0.4763639664207216 0.08226887340324542
Ni 7.225342074154998 5.046353513700865 0.6674811563555298 -1.1481788242870226 -0.43734876149978874 0.6891790601763614
Ni 6.2946992486040525 7.252351225619847 1.5794883164312947 0.44100538441576953 0.23600515871885808 -1.169376027189928
Ni 2.6765577689023647 9.12341876988872 1.3391791895000107 -0.685421135795826 -0.683811368106545 -0.7260646203488011
Ni 8.790268814075635 5.5770420798670655 8.641424560627119 -0.13395370337204673 -1.0583930736814418 0.10432148232791065
Ni 1.4717066888298027 7.094014363427866 7.666647316616618 0.7561416422398397 0.4238365859459668 -0.2564433719685519
Ni 5.474179214659018 5.827866510154439 12.548998814831638 0.6826296890936179 0.7184127602304982 1.2648927667420151
Ni 7.048220268307753 6.907657708676059 4.656864489214293 -0.0041996399036443805 -0.4819669144297958 -0.1422848489455614
Ni 0.8537107855752167 4.588978150635443 10.654337900560208 -1.3028389069684854 0.823966058082981 -3.1102598946631206
Ni 3.2901838084132553 5.550413077804914 4.243441814650063 -0.06634500308413735 0.004953230240217276 0.08886658122542114
Ni 3.146227719967235 8.02527840873444 5.530962409098096 -1.0811820465514992 0.635068651485203 0.3598318009592319
P 2.061680017943566 3.188164689440464 9.33469560877787 0.16000720592598897 -0.06057287648705053 -0.4475768669857001
Ni 6.452887759809614 7.271265976388229 8.74054249062176 0.197321368995415 -1.2177809008558769 0.2691173678917946
P 3.588916335377209 5.618478364761132 2.062893714451204 -0.1664521902203843 -1.3922261365840667 -1.0006525244368638
Ni 5.2073792375216845 0.4716420919905735 5.606970036989703 -0.46190253957975286 0.37968997333573967 -0.8525978628870606
P 4.216570815041315 2.2395157629129514 5.081496935189784 0.0965472376991305 1.5689131171585817 0.10846455796200676
P 4.899884730422379 0.03346056498673189 1.6132511465528547 1.2558784790585467 -1.2551364586861997 -1.6620233041517054
P 0.10133763162893099 9.064690323140228 0.19408388675689053 -0.48055743567677883 -0.4537878808924184 0.8542066021350773
Ni 7.018299728734435 9.027871462698442 10.212050760007227 1.0291881699827112 0.7889226933256026 0.18875239637948138
Ni 4.5130224455890815 6.541610921624633 7.55330716299275 -1.814977716995971 -0.016619353724235897 0.08096326721794443
Ni 7.485512616586747 4.143081445144165 10.673607766502327 0.3976329309674055 0.18948618922171237 0.6839748902676027
Ni 2.3467086225370943 0.968221984798126 10.25078056659282 -1.7115982868663555 0.4263572954852915 -0.5315830347950263
Ni 8.04609390651631 2.348006693668258 5.853707397601242 -1.6415678645108307 0.5997635484260059 0.5249493315285927
Ni 2.679024104051575 5.612043640725222 9.030352632946295 -0.04599009357686919 -1.311572173076425 1.0123574715786177
Ni 8.171719376202974 2.400504398987166 9.336120705441155 0.45022587457277297 -1.4286992918094363 -1.3549122306249568
Ni 1.1494698024551409 6.600450631612939 4.586624005919711 -0.09494981130502357 1.0574273673340626 -0.6507397823635567
Ni 0.08764854435714786 3.5502245437318884 3.447197565245115 -4.232378531527982 -3.285545366904419 1.1314764239306772
Ni 2.106945612674564 4.929230409923322 6.804614040703313 -0.9572849560845063 3.255096820606575 -1.0984272067851921
Ni 5.298012418286843 8.497433238821824 12.760181079966946 -0.2708806304398044 1.8325820603412954 1.1587848819376432
Ni 6.151095493750776 8.890683888007775 3.3670778334487146 0.876986061923438 0.26431634695872547 0.12524486274413912
Ni 1.3290486715149454 7.1515745461583125 12.956992770486611 -0.18444425592243072 3.0681341691376645 -1.7901570584078654
Ni 1.4291577715375967 1.7150393943030324 2.2725016047431437 -0.4624527556562681 -0.07334534566137045 1.0321652503331644
Ni 0.7058762460280129 6.896225410785171 10.507098619346007 0.8462197272748587 0.15821051903688235 -0.2668139165695985
Ni 8.660767674868783 5.221277870561784 12.532279658662254 1.186871355761214 -0.04619372494724302 -0.9400166559223618
Ni 6.18917533757712 2.032825751085134 0.6700300117409358 -0.651344248716775 0.994772411507003 0.41910549901888466
Ni 2.02675263257862 5.417147532317689 0.2325985844121736 0.8687068526337813 -3.1048929739242523 1.7919750854532104
Ni 0.07735020431869653 8.290437253084518 5.566516577380661 0.07690555220880303 0.8080627565891632 0.818065633438146
Ni 2.6049227863354476 2.933631484492624 6.7991046559451895 1.289793900859069 -2.9681452527468366 0.1311684273174257
Ni 3.8796471810112045 1.8721152731104547 1.7809674998611562 0.11433284381732567 2.324186240750539 -1.4789525315380336
Ni 8.621130145685044 8.467790857348042 2.5889778368764356 0.1115272560477305 -1.5740326977733343 0.10967657599223692
Ni 3.2262723490767606 5.908087306060337 11.740853107541254 -0.4462422073346766 0.020895098281454336 -0.7599430182638008
Ni 5.432891280751371 7.394119137016193 10.767351682013953 -0.579043542269835 -0.29166182885121383 -0.09648450278199514
Ni 7.304515141219314 7.445226051837426 12.648822339205433 0.6490102012669597 0.0021134467985770055 -0.8562647702156865
P 7.389279186084283 3.809996392887637 7.872836643865272 0.00564871364534511 -0.17689755392342438 -0.4906718984029614
Ni 3.201330839485121 7.727695601915232 10.0343596572496 -0.8113406560094866 0.43030291039660085 -0.7631098460275567
P 3.19234633287014 8.430239513910815 12.163367843185616 -0.5966085477367918 0.18888686507481664 -0.7723383066043601
Ni 4.078122256966088 1.7946575143266046 12.733637379721985 -0.01735880299342172 0.2006013252982674 1.2159425620955573
P 1.1922968778468819 4.564036641043804 4.759171965416936 2.3717873875682702 -0.23681377066308248 0.7470972726493843
P 5.387987291549769 3.7616246993784985 12.225561212660653 0.5093365646920003 -1.7242203465057402 -0.44508983889778825
P 4.855073460587287 6.892674259047773 5.252687483161277 1.5086821973919822 -1.3884831246018667 -0.29708762785247544
Ni 0.17028560695433986 2.2101700834120077 11.111578820544187 0.9916199819209501 -0.5471448937890254 -0.4750002533039755
