# total energy = -340858.8706636824 ev
CRYSTAL
PRIMVEC
9.43678969033053 0.00000000000000 0.00000000000000
0.00000000000000 9.43678969033053 0.00000000000000
0.00000000000000 0.00000000000000 13.81169559712094
PRIMCOORD
 96 1
Ni 6.087937226457082 1.7698887704400963 4.558052439556744 -0.4052811915412827 1.5840458590349622 -0.824810151250831
Ni 3.8192386292600187 6.405890979775831 10.94203968690067 0.49910126011723727 -0.5461763592281691 -2.186149368448054
Ni 6.219580441926069 7.4911123515118865 1.8859320289562669 -2.006128952624932 -0.747604551303106 -2.3451062787326578
Ni 7.621509910748478 5.736596111394298 10.020122903552599 -1.5356816087989618 1.1935531386567637 -0.13830683813441988
Ni 8.814952386068644 4.013230713876216 7.861755476103005 -1.6401874392235365 0.7359183732144293 1.2024015901863292
Ni 0.8209676698600488 2.6066111606030464 9.203796246837184 -0.708630998253386 -0.2090283730196981 -0.6664276254124588
Ni 7.346153825861772 1.3044851790064425 10.170987915837983 1.0780820674699367 0.6500162739339709 0.5631651804766816
Ni 3.5199791562168286 6.545300673118006 7.449766001386021 0.3335921505364126 1.1791019962284404 0.9855629770935931
Ni 3.4717382875804517 8.891258267092459 11.074562411164045 2.4526190143043567 1.4050222599074706 0.7252488093157252
Ni 1.208390350108902 1.9940597083229474 4.205606276427192 0.7908193961276831 -0.3104869319775169 0.696620089835439
Ni 8.415313781631648 6.951677145357501 7.245698256471886 -0.48201936493428604 -1.1908141424590457 -0.08603399687263248
Ni 8.75455693237678 2.486037299381022 2.9481200845405873 -1.4045499482567423 -0.11943622648216203 -0.8152579887860217
Ni 1.2798929052062862 8.88804032182544 11.919051279200184 -0.6108781702819286 0.04663698313224872 -0.9540340532473763
Ni 3.650688129511519 2.110896600847788 0.32029218979138174 -1.0138422836542602 -0.21685121149822653 -0.7255442290689569
Ni 1.663290794673955 3.8088581606567287 11.074714343477238 -0.30296696945138796 -0.7466722692968237 0.8769935181226057
Ni 1.2406924810444104 7.619688610348082 7.378884387046908 -0.012460851471172088 -0.6436389096527173 -0.00097701920128864
Ni 3.320947825933216 8.871997779438539 6.63798410256092 0.21388647244294778 -0.48237109184674987 0.0443165625291882
Ni 7.559481892449005 8.96239278739391 8.252957590602419 1.0855529219256854 0.7655904463575655 0.07413313166998846
Ni 6.484310701678862 4.3438297653117 7.1208542479380545 0.5285884709430768 -1.0892784504063886 1.0052730539280106
Ni 7.721190719708972 2.9730228287198783 5.6259865563524665 1.4339877939018855 0.3581767818543122 0.25734017275120835
Ni 4.076730871359428 4.196134570666173 1.590430285547468 -0.9516488408446512 -0.020739032319564282 -0.31594306999608174
Ni 5.07319923653736 4.510058814808918 9.739358594523578 0.8096023331621411 0.20973979726442588 0.8599303919927319
Ni 3.493291915116736 3.1992698603233873 3.8264747595554747 2.49329052388179 -1.6272493910056296 -2.5567098686786998
Ni 0.8579466737408207 7.513335991112565 2.4485647514021114 -1.2386942539697763 0.004211209867870167 1.6198947504127714
P 2.9679835830524635 4.164644003639649 13.336186247168484 -0.6293356056561679 -0.8229890388816922 0.09636134694056953
P 0.7028558670549317 0.9169171721971431 2.2249675703293335 0.11522218840081445 0.07319853567086104 -0.1089461255841156
P 2.9428439754532247 9.377262370308824 13.169672206624158 0.11241505796932254 1.4857973223740089 0.3695708826238667
P 7.684783585280346 3.0589542351758348 0.7882691937596875 0.8723192525753879 1.1854071125108616 0.44649648943732784
P 8.88877639141731 5.989303901146555 13.371075002144138 0.4421394980202127 1.1394812965130248 -0.49460260091593533
P 2.7498050065906017 4.857360983906059 9.50167323019821 0.05206355346445873 0.8443322804441589 0.34661375960706114
P 3.156011616616589 0.38400561872044325 9.027572693432926 0.6381169513932236 0.6404178316122584 -0.3818898092005359
P 0.18588305127910065 5.145569976281564 6.042284869218779 -0.8184145321371324 0.6042753202534303 1.571692993896564
Ni 2.123674014019473 6.55078344789847 5.219867708470126 -0.07271054029084897 0.4255052318976414 -0.39578790733886676
Ni 2.0326184307893476 6.110944119597826 0.5376837379973209 -0.14172743378019464 -1.065545625565823 0.8778543234610043
Ni 3.6761957719066927 7.323684829730471 12.969416924724321 0.4421947767381804 -0.12882152435180397 1.4416244845115365
Ni 3.0626345831351824 1.7731350260760341 7.203711148329508 0.055930492619032705 -0.1935495606578086 -1.2912203488929506
Ni 0.4021572835917404 5.539886231361966 9.450528661389804 1.4054827444836566 0.0916073771953519 0.47214427191241914
Ni 0.6727241977364748 4.26758994181536 13.39385069393872 0.28651705142548073 -1.7199104062764765 0.2762069277487243
Ni 5.917348380146482 1.825056242671759 0.8117592505299672 1.741789208627439 -1.2642574471508614 -0.6268120679033656
Ni 8.154905571533677 1.4647124302930317 13.002592902380435 0.33726445718167725 2.2199017823081513 -1.5813176614705218
Ni 5.723696019957301 0.8807119850667979 6.6608145277354085 -0.9050655937684736 -0.33740123986985765 1.4249249123686685
Ni 1.7292822646219568 5.055769486073474 7.427791493031822 -0.29371331206360385 0.2972778894864106 0.90017586977634
Ni 1.5164920950441665 2.860696721642649 1.49385889877314 0.21077878005190154 1.0379800572427285 0.5551788198370955
Ni 1.7085307642050176 5.960483945587968 11.951039165040703 -0.48514942592283544 1.0964947656491697 -0.19904760765790236
Ni 0.07032673110832076 0.41556696166926227 9.74906810738351 0.3865525047835278 -0.8909232408298204 0.027549113262862232
Ni 3.848407746035261 4.220519235094263 7.641541384115935 1.1422418899772973 -0.8241992571397097 -0.9061917369531167
Ni 6.29564096641926 4.878452208750014 1.750618845996536 0.9841321581843374 0.2580199724270524 -0.29074137391947347
Ni 3.9172396896647084 0.9785007177046025 4.760256418517107 -0.8823254718584804 0.3153352612087537 1.3716969062824633
Ni 3.3956588895079807 2.071941533216535 11.590913342502644 -0.324415369133151 -0.13633891577477167 0.440230453922958
Ni 5.219431728788788 0.690891905150159 12.485317165657179 -1.1583236260305083 0.47962052568480623 -1.1924367656641335
Ni 0.1769558482802719 4.533613041748745 4.111562061918283 -0.9552059620682903 -1.741481190468717 0.3957745376024281
Ni 9.162971751178375 7.549582700117322 4.905140393529071 -0.6421713239682554 -0.7231754717264641 -0.4564937098593558
Ni 5.894501912429606 4.435762969978286 4.239831625091201 1.0376087899462387 -0.8488162843574414 -0.00373298467987099
Ni 5.8167993865391665 2.3832800969980976 8.592394195535158 -0.1134239588498111 0.9522365950273214 0.44028367575839655
Ni 3.1196422293465194 2.6663743493890744 9.24878047936902 0.76717141769144 -0.22664634321177743 1.5297960965524622
Ni 5.544255464964987 -0.00605275687468157 9.37732654047837 -1.5046414516637057 0.06080581843346302 0.18078043391759835
P 5.4743949112648504 7.28103997735023 9.403844863043918 0.03200329237947392 -0.7674928055866008 -0.9111537089440824
P 7.516487878852109 3.637250141065079 9.917101471059771 0.09940013376689333 -0.6193499551983657 -1.1202394175642771
P 7.2482565701431145 7.752605792418382 3.5566222103864393 2.1533981421589625 0.39662685830039435 2.4019906506245277
P 4.416615723800036 6.304964514582942 1.105717135153768 0.14589390645305841 0.6986247789702936 0.33225466267191167
P 5.523975804030016 2.1056119986497497 10.922398896624284 -1.1517493152471003 0.7950313773265018 -0.7869547709659543
P 4.722933915493462 2.931359402462131 6.105115014637597 0.386946654898153 -0.20395867180627456 -0.88524367394654
P 7.242056599350059 6.198272170920406 5.415275311532226 -1.1153214114373693 -0.21653136626496258 0.35151016846741395
P 0.17602349346390375 7.699778644017279 9.464036482079573 -1.6536772461798555 -0.1239845079744768 -0.2386127715450342
Ni 7.361431988287886 -0.009564186299485146 5.293290650259119 1.0833381736625536 -1.2507177607932138 -0.4999232417979003
Ni 2.4126002024075706 4.123565658339541 5.265750323375627 -1.163505427341764 1.0439370461571116 2.466110363922572
Ni 0.619691327321234 0.5804229582739547 7.264468031064561 -0.03533158542175851 0.3003094772238828 -0.048983628987554345
Ni 9.124884868193943 4.666284867288421 1.8807804854921437 -0.11258372233670288 -0.9793540200694036 -1.3234169882301532
Ni 8.073617065580283 4.333251124125984 12.053038593215584 -0.28525258289076033 -0.1504848682578505 -0.28177773696828246
Ni 0.760307986058282 2.902246906424724 6.565071691091416 0.7599425040431687 -0.9800299630905057 -0.8167978224693159
Ni 2.549282663543972 8.24717850062728 1.3249545194131649 0.8621132585766637 0.7838391081551082 -0.9736981073352071
Ni 5.936599431010763 3.633362183733665 13.215334000652101 -0.41925462300223926 0.5870545854997696 -0.6916159517526281
Ni 2.535806927938974 8.749338387706215 3.707072947606658 -1.3703856436702078 -1.9803374454831248 1.652959137066908
Ni 8.366704878199334 6.769811335427875 1.5420893869409136 -1.1062955537896753 0.15294027177687855 0.19944355754474039
Ni 4.77992268812552 9.092403438255287 3.003090327868788 -1.7102178615790609 -3.228429338617717 1.6388754052803325
Ni 0.12379369384697189 8.124415304208924 0.09724234251768586 2.1447052423706547 -1.8362746787015345 -1.6885627452031309
Ni 6.678038556185157 6.441996136935999 13.266658812142616 1.9795285764285844 0.5669459876753526 3.1288181172812823
Ni 5.840174314475846 7.612979052914502 7.196073010795415 -0.280293182002956 0.25360435985786 0.15966576342617017
Ni 6.8041801232944 0.34449944257425225 2.8528613552050937 2.6743571215812394 0.8664802772961078 -0.4177492421013063
Ni 6.156986216248234 7.6535761219430025 11.438694150904007 -0.6167307724079637 1.1487781484339183 -0.8835670575750654
Ni 3.9955556068817057 5.678116325999222 3.6911200547213303 -1.0277162134228752 0.6577236698805576 -0.7877800950807271
Ni 2.3273010608574505 7.91241782496084 9.537542467617392 -1.274586082770379 -1.370914262480168 -1.3331570983360523
Ni 4.595546692151825 9.113192685830784 0.7351646037431876 1.51357629225949 0.3058265503873701 -0.2467009478698074
Ni 5.167199098134964 5.639114074419772 6.102407599690067 -1.9834543938455516 1.427551037137606 -1.8782605362150169
Ni 1.039264206192402 1.253215100895833 13.593567135150149 0.8026616401782499 -0.13080024534472956 -0.20832877584951218
Ni 8.423703087621032 0.17649061455105178 1.0825790706370362 -1.1331188446301066 1.0598724864404456 1.6977037882724504
Ni 2.87281355953958 1.0907230200957987 2.535426625316508 -0.0786976111122193 1.5387689894750338 -1.5601333140834228
Ni 8.650912671767756 7.58615025996982 11.571576416852643 0.0800124732689009 -0.47551344549496816 0.08531794464221436
P 4.136852658151751 7.7138394605799165 4.8193835676814425 0.2534485510062861 -0.49398502193659444 0.7540181681389336
P 4.993590479139771 1.668084683810747 2.5951482922281235 -1.1036776565508541 2.0069537625190725 1.4668300372428869
P 5.4602019796472625 5.468204377261434 12.062015811199503 -1.4674949245203952 -1.3143865025967685 -2.2407212901566633
P 0.5362248103190769 1.7950378148289745 11.362232562851144 0.04070364836694926 0.1371503559324735 0.6162782582515773
P 1.3121101050350403 8.84101679905254 5.497855713987248 0.09908748762248096 0.8414619008748991 0.4452662165746525
P 6.876182828242671 9.269560290154876 13.269269028156863 0.4633986645093051 -2.642808657350997 0.913628138626504
P 7.96426354723945 1.3036075575699826 7.006935210769702 0.09305876492989779 0.14520407947488542 -0.058561245373660434
P 1.537705998153434 5.599045465611075 3.045658742252949 1.9123006565188614 0.5853625425093273 -0.9600460637694112
