# total energy = -381166.98577754677 ev
CRYSTAL
PRIMVEC
9.27600104883821 0.00000000000000 0.00000000000000
0.00000000000000 9.27600104883821 0.00000000000000
0.00000000000000 0.00000000000000 13.57636516752854
PRIMCOORD
 96 1
Ni 3.2162308133270567 6.873220102586257 3.2678313531434418 0.41687532413678524 1.4140409184663132 -0.44921877346449735
Ni 4.9746545444287635 6.819808887323666 9.705078468848262 -1.0725930193309074 -0.2792521423329513 -0.7181276248899116
Ni 5.213659992927534 1.6063251384200965 8.649746877749527 0.21947913603937685 -1.9450112593780053 -2.1980700311450403
Ni 3.3192871873401497 5.882673031896598 5.391514330711281 -1.3060779827310731 -0.7562786820383363 0.20785723552973237
Ni 5.043426817780075 1.972068592152071 5.109125951913517 -0.23360914768285576 -1.637393164307851 2.3687205757174885
Ni 1.7623474796352379 2.9325614187551046 12.721774146643524 -0.9698447950273877 0.19072340406292315 -1.171983382905788
Ni 4.5631896804798195 5.952827429435843 7.308849877421026 1.0537679162046045 -0.1320264044423468 1.3520246246645167
Ni 4.547364822328034 3.086774939724292 3.240067353768231 -1.3836476508864364 0.03403035011183172 1.060127539874045
Ni 1.3627373452982412 4.656469149163496 10.895834112761289 1.015441252710264 -1.333157869667001 -0.4836957241954444
Ni 5.875447026914042 2.9927162869346637 10.164149626470472 0.558983024074534 0.1868909176907104 1.1014191995339806
Ni 4.904759874924833 4.04822319445724 6.161837072655934 -0.46268106961699024 -0.06059550219486983 -0.7567977877665999
Ni 6.9023652985492765 5.4381948794586705 7.130700562797168 1.7058942945030426 -0.828352874296767 0.8949038227441233
Ni 1.3528305759511678 7.716056129190904 8.776631443802657 1.2364296263053158 0.7141868950746088 0.06769688912634148
Ni 1.8629457133140852 7.5900138240523 -0.05837480353751522 0.4582711134747527 1.9885426070017362 0.8298088900170032
Ni 5.7952467200088025 -0.22617581115426097 13.03230591326809 -0.8886352161265921 0.5101528899457086 -0.7127046541021275
Ni 4.6081411825921 0.8238907216285594 10.918859930692223 0.8224817602279707 0.8780566692797975 0.17460207302102831
Ni 6.526919147497978 2.0284202998144956 12.734060210314123 -4.104688806787776 0.19356730126962146 0.2929206409589794
Ni 0.5378782091380016 7.968177843473161 2.511994014768442 2.0141433382889766 -0.23264446977674128 1.3589426919405885
Ni 7.326454800214855 8.448210908745668 4.983978780896626 0.3430856918491446 2.7254619106768545 0.8225043859357899
Ni 7.6616523817933535 1.3321636451409815 10.94768232181135 -0.8122318003651883 -1.1413705431159376 -0.5762158430130527
Ni 3.8393925780614917 3.300855772833938 8.341318908211026 2.3439634233774664 1.4326629044428747 0.11182190447001387
Ni 0.7040800341372984 2.1249556449408913 4.6563810271515145 1.3760502981551528 0.6027658255874394 -0.470408520168235
Ni 1.746838005526337 2.91965850100063 8.784016996006908 -2.38459173842179 -0.0940290992629671 -0.3534402956105913
Ni 6.833926961243372 3.038539733165508 6.953488124300704 0.057836708502810065 -0.625829135164806 0.8435516935243924
P 6.4928112908601605 4.070949397547436 12.888641060933256 0.4658018746341591 1.3244899095793576 0.4576424787518183
Ni 4.328896440621791 5.959932846402003 1.1748473017498882 -1.0587270599820928 -0.44567039399160663 0.6945382676057458
P 1.8432063826300291 6.354496836052849 1.6492702414595581 0.06669672999660126 -1.4983286220718004 0.5924986393334764
Ni 2.986557022097158 0.8581896638923587 12.867652252879305 1.7709087517012145 0.5387749245577754 -0.9008433281570098
P 4.932699190723882 5.255587518628631 4.143194605770979 0.637390100529528 -0.6540102255847123 -0.8426638916028003
P 5.152503316611754 1.456629030065165 1.2508316660818637 -0.5586397818025025 -0.36526582749060965 -0.1743609035444997
P 3.1065142704083475 3.1223205765576103 10.420960359390318 -0.16510416083292212 -0.9414490174935142 0.36925360849376404
Ni 6.687579489343771 9.236012419866997 9.403166890195829 -1.3430854131933578 -1.8733947234822834 0.1618090350214181
Ni 8.836253869509818 4.274001065157391 5.365460825968656 -0.026190799462754894 -0.9626824729509935 0.5919196269015548
Ni 0.45857025355410047 9.148836560013256 5.6983811492375045 -0.7787148995546653 0.02565189624014937 0.1380787812840138
Ni 2.885986616422095 7.679944656280647 6.978590838914046 0.448046350422951 -0.1285474447548109 -0.8494024958782146
Ni 9.036698980765346 4.05939149997585 7.697432701458584 -0.33304964776938123 0.7843736405023395 -0.16400038624578206
Ni 8.873079594517197 7.994994763119593 10.153261456189954 -0.752243335626698 -0.17990934416655466 2.477726608005262
Ni 6.399346302151256 6.200422455102582 13.632843510926202 1.6943847512015464 -0.735645579169017 -0.06318357463702022
Ni 6.784430218513052 3.904166894869181 4.370055913418451 -1.0325334323058604 -0.9547351930794589 -0.2539835975741497
Ni 0.4483416069632601 4.01345674172987 2.7729186542476763 -1.0878010945299137 -1.7068209200823699 -1.2022748348004777
Ni 1.4783905290241852 5.341640982329753 13.299014139533746 -0.4388065769922378 -1.4756190962894262 0.8914186924090003
Ni 8.36695313769664 4.046423650212546 10.25930655780944 -1.5571297513704085 -0.8236960922510459 -1.3927079613164919
Ni -0.11466992759224597 1.9992101718426478 6.948424355212157 1.9924131457007361 -1.3834818147325334 -0.25577565647756595
Ni 0.5657331133255727 5.766741568132814 3.931687863011345 0.797607108473478 3.465398403911742 0.7264173757025295
Ni 8.848841403221408 0.4770396996654839 3.4693181593406144 -1.2452387399565137 0.7945487812631284 -0.6990819211123702
Ni 0.8558150075694648 2.3207905835695515 1.1305757305300603 -0.9468161953426985 1.3404502895633559 1.4099227825328815
Ni 3.9755271725723964 3.4544014217123107 12.307532047916945 1.3888160824612532 -0.7214574605940929 0.32571583311212937
Ni 6.996405399336381 0.1600880125679711 1.3263670719527925 1.4177083400155712 0.1329653713168484 0.2820639007501336
Ni 4.269966004608723 0.14659606873340372 3.197736322012268 -1.2497430555847702 0.6899771305976246 0.1441041615424873
Ni 8.172092179200417 8.29385824775756 12.60342906735155 1.1358778954324824 0.7080216468041612 0.8964143458513788
Ni 5.7036462075534216 3.6616551178936367 1.561010944658498 1.303316360825536 0.392211245731202 -2.7282988659050176
Ni 1.993969231130011 0.4492348858847237 7.656771349929656 -0.6782356737909804 1.1392684091712704 -0.011989568261708383
Ni 6.766666676097653 6.29227341959202 5.170463510253891 -1.8003327133892864 -1.234232875764313 -0.5864521760290803
Ni 3.9409833438752986 8.833907041190708 8.900040292183178 0.1763311398969931 -0.46431474856567134 0.36951586101621525
Ni 4.9477819687747635 8.173910275447632 5.0964864725948615 -0.49303294243597023 -0.1213766380379845 0.8989576810985227
Ni 7.909952383555952 2.611231459062256 2.2942018535541484 0.20702342677452734 0.18491939578663635 -0.4645466620708193
P 2.3098912820875186 1.4072528753512414 3.258707478302822 0.45576351656155056 0.20354369575604297 -0.5612715629983946
Ni 3.9869181021212783 8.530489039933437 1.0500043835743695 0.9091096819308602 -0.5177091050264115 0.05206278213351034
P 1.8549498002268408 4.0329085163748255 5.183958236888838 -0.680290242327164 0.7228314581234841 -0.18146254758628746
Ni 2.7697861486217334 0.30530845031432335 5.259959298023084 0.8289640255182046 0.33030370959312794 -0.4088519396116765
P 4.63480041021709 7.221747297977251 12.99532435143952 -0.37507355760965083 0.5171781722236061 -0.9136278815161878
P 7.939459343568162 7.039362561177482 3.6533317619618684 2.368977686033617 -0.08036240040915192 -2.3225625891041872
P 8.152807372578165 2.39587053777855 8.763204431976918 -0.8376759514699056 -0.3563986069079668 1.4909978927383418
Ni 2.6344029102129944 2.46015322651939 6.501368402023714 -0.11125831865706 0.5559362668284102 -0.569980146515986
Ni 8.83526133737486 0.3161372541867702 8.728353567638072 1.611325777796838 1.4414200818102143 -0.8686505454745491
Ni 8.555775419371754 5.822082191657757 11.455533187266383 -1.5605783720406414 1.0407051694833753 1.6191650713355987
Ni 1.1338334621730304 0.039254182137588293 11.777455883439828 -1.784781653028565 0.200570472060332 0.44997107824948956
Ni 2.6611827258543808 4.496402471398427 3.0735260271227705 0.6434694739543886 0.464809943034535 0.18129054078479745
Ni 8.622683216469543 4.213150496883233 0.3182364132722034 -0.7130527814701655 0.16959742071758535 -0.03248126045715696
Ni 7.426830409863431 6.575256390070635 9.276879698623924 -1.1902245885041631 -0.8411716233279901 -0.053195353076056766
Ni 0.8697800274683587 6.022425266899411 6.537942747396912 0.2753998584663967 0.002262827892247716 -1.3796547276769595
Ni 1.2094235964514006 6.8717266663831875 11.54141782774455 0.21104823166320427 0.939067404635215 -1.557570181341937
Ni 3.5260770834584103 5.7141651929837405 11.98006972379025 -0.43190984987240455 0.5910025144039242 -0.6315979193277833
Ni 7.126788873065276 0.40662093609029093 7.002553532972374 -0.6495462762760879 0.36726357464692877 0.8733129839472249
Ni 6.407703979287692 7.480464249156294 11.422407659162138 -0.09226249428084755 -0.017373972502073304 -0.5689694458632846
Ni 3.200276091157613 8.22849954287041 11.372908133631439 0.9953629939031503 -0.9745745964028892 -0.38116141567494355
Ni 0.3107284178513036 5.71166994864445 8.917554310164647 0.48211141042746003 1.0359987651466416 1.3663664952084855
Ni 8.67250461924401 6.889351068779666 1.0384696760059375 -0.9599645597991984 -1.350001680697217 -1.545111386753294
Ni 0.3393031397367521 2.2124654408400377 10.71837771543165 2.068655096183611 -0.31968222532353974 0.36888156986632603
Ni 2.5705283655276516 5.218121749534222 7.831567390097552 -1.1995754335914437 -0.2749360314561007 1.2245521581414394
Ni 3.1010878096704846 2.9099001476737376 1.1899477042031656 1.103227456387313 -0.5450849259362032 0.11554280496502682
Ni 5.789310079201568 5.106522178359468 11.124174942609937 0.8711031207800997 0.6411413400418442 0.8429847652773288
Ni 7.740516944516965 1.6979998588855687 5.26594602923713 -0.8910299416110138 0.03953071110477063 -2.573347477235381
Ni 6.241385276672503 1.3354380735862221 3.298853084161622 0.8233039990189497 -0.431754812351779 -0.03437153550133435
Ni 2.312729738473478 0.8740024632425045 10.010464837573181 0.10966603446927566 0.6221506578719542 0.14550746964791716
Ni 7.181656420525893 5.414327728213334 2.4940189795242866 -0.011064999564909977 -0.23310186902913402 -0.49309670579437015
Ni 8.64249675516369 7.5849027473573205 7.1531150922449855 -1.3805301883033771 0.17348004360144317 0.6854046807355938
Ni 6.068295093136562 7.800950092734364 2.815249686003639 -0.501612199464549 -0.5780829781287786 -0.2585442203616386
P -0.07828388504465301 9.585726943419436 1.0711109968443417 -0.9361456030027298 -0.8391990729826514 0.14822409724813182
Ni 2.0345610126494793 0.43511959476539663 1.1911387427651172 -0.007398092236284033 -0.6341397119130304 2.239900336917265
P 5.968605907581321 4.733997967705481 8.868883131546584 -0.9643554897780424 0.5069004444466819 0.5305368529186992
Ni 6.000255623884893 7.6301418055087025 7.519731417695648 0.45927667192113164 1.4841513021301536 -0.32950563917186476
P 4.593614964616898 0.21553067210678797 6.94448762027686 0.15722527230547761 -0.08270776071287692 -0.9671613346579536
P 1.7750927053682704 7.565488076717411 4.939800897289538 -0.046519740828094076 -0.24982818064487938 0.23649315409887015
P 2.6752080397614733 6.322383319686214 9.89703511134957 0.21107214292260426 0.0962181364944859 -0.1623798199232236
Ni 8.503041352201238 1.737339380234761 13.199648686422526 2.778789418455401 -0.47550753195769724 -0.21131022707533928
