# total energy = -340871.24625181 ev
CRYSTAL
PRIMVEC
9.19114470064613 0.00000000000000 0.00000000000000

0.00000000000000 9.19114470064613 0.00000000000000

0.00000000000000 0.00000000000000 13.45216932454282

PRIMCOORD
 96 1
Ni 1.816831919731735 5.172316579126198 12.479698346760689 0.6212376591393817 -0.4989837607027664 1.4378279935835818
Ni 2.4597157143893296 1.9740004910388127 4.000621203574126 -0.21356894120252895 0.6490472251524823 0.32571223356770357
Ni 1.7524755257965212 9.064361873360697 0.5869299450433703 0.6549939296542204 -0.13176132370641827 0.939445356799924
Ni 6.175484047857836 1.0074597332228892 8.306633808800232 -1.0679223533281157 -1.006585344981531 -1.135876866991218
Ni 2.23248304839957 0.4408219970527216 6.299220750084658 0.4654182660424952 -3.072441538263767 0.26782744543577747
Ni 3.0493368265484135 5.228538810160432 3.374113271109387 -0.6350352271441063 -0.3291544264800331 -0.620948410033737
Ni 8.763177258555922 0.3548066710540499 3.5421577237280237 -1.8537944327528526 0.2743356788679404 -0.47882194104291087
Ni 8.030229438738209 1.7297642076854225 1.7100666658627208 0.5503145497662587 0.2775631846663026 -1.9625636664394714
Ni 4.070132910471102 8.428242761070472 8.45584468718113 1.2982530873700158 0.5599780409979517 0.4126836546529409
Ni 9.164324761169807 7.059718106489264 3.2316817809270906 0.010215764190737246 0.9613845800751766 0.6945053574852813
Ni 0.837089921040469 8.860254126985476 11.585667447184454 -1.5690498998467621 5.380623690276566 -1.1319801030399732
Ni 1.8162161130488361 7.025269696824999 11.08340356812409 2.396712175834408 -0.7862999109907749 -1.4689481120271541
Ni 0.4346097024710576 3.4861459699033186 7.161181908198634 0.7408926865005693 0.7662473632152739 1.11677382761318
Ni 3.676577293231467 7.0554534154315744 6.636546783374444 1.5538677927896851 0.25103145692436124 0.018997881258741477
Ni 3.9041224581349363 8.672837499060176 4.791313307958731 -0.67315645949586 -0.7451964560822456 0.03889487729298463
Ni 5.4603210926880275 4.862051113534794 1.3569879299785965 0.4315879477566116 1.0780162472290078 0.4224597602030982
Ni 8.774914350109087 8.50056787730529 1.318913613800844 -0.8478855450130559 -0.4008054151581162 -1.0867029763697285
Ni 1.8702876162651834 8.788756213757535 8.892179567478758 -1.5665132494678375 0.8919190290841865 0.7185801390462979
Ni 3.8521833004474337 4.521123989821728 5.552598345448777 -0.2993787378794973 1.1339639662392211 -1.4851026102998295
Ni 1.379664321740516 2.0882188439998104 13.022049402648879 -1.0499138325658368 0.2907017789307897 -0.7197445916680443
Ni 3.551605301181038 0.7557354244283364 2.4474878157187483 -1.192499757691585 0.25099880391421286 -0.9259848604196439
Ni 6.033646305611589 3.859913052989495 6.092312461973925 1.182500223276712 -2.6196594729280434 0.10838356821242623
Ni 0.11367883277762161 2.6986027516315665 3.530629271155482 1.4604930392812654 0.2750776992402876 -0.8774259776743341
Ni 6.1846200455115925 8.300715630843237 9.834046697828374 0.9986370366687317 -0.33121876520822957 0.26637271526712186
P 8.17400651247836 0.956568366010767 13.106206279225429 0.16224303723504316 1.0401135586459636 0.4745161145787054
P 3.3035638839960026 8.605328542554298 10.668201886423326 0.08712054506859189 0.6274296468827065 0.199692697441069
P 0.9632043723548436 8.689197736307346 4.724764826055287 2.5014699743687885 -0.23215570306578082 1.7843965017750043
P 4.424359620305885 3.038886495228171 3.5326200730587045 0.09613483275206024 0.42518924331911934 -0.0778738296593433
P 0.6420611872229752 5.033153459935528 3.004152240969307 1.423988002376696 -0.4774152905033714 0.11200625256667807
P 3.474050423713838 5.423161295390103 0.5748206121371087 -0.8760823191622461 0.760151277619865 0.19054651216542667
P 0.35249785555040436 3.660649039776779 11.825546208920494 -0.9933955857641343 -0.9752343414740752 1.2893077052512698
P 6.147800320560941 6.623184697469986 11.96581226545367 -0.060038601250135305 0.582774470067177 0.6067528352596454
Ni 5.906109984239834 4.737593825577535 3.95909469351433 -2.3269946567336115 -0.509364075495826 -1.2255541170433928
Ni 4.123919488207302 3.7512553424636312 7.638760211304813 0.6688778867251641 0.1213262444160233 1.3101457250425435
Ni 3.372001146098488 0.8033106266973244 12.5665454713385 0.8783430901719648 -0.38201322215227757 -0.3775495299539692
Ni 2.0541380801163807 1.5310332808549174 10.723719156672809 -0.16801644938371066 -0.12697238695820712 -1.4064463939485066
Ni 0.20678236943079736 6.890748105617375 9.003455835078622 -2.4472862892375336 1.3553416048528917 0.3986850263810037
Ni 3.6254285739727603 3.242746080701328 11.170815948089936 -0.5045689681000278 -2.0023507165294223 -1.125093660332785
Ni 8.099392801257844 5.2806985553164365 4.379636430181726 0.7056855424718169 -1.0184216754948268 0.7407790437408402
Ni 8.039659553016634 6.337781277807566 7.212017209429178 -0.044499110853639494 -1.0897900999354844 2.0313715292418046
Ni 5.711294484975225 1.0205754964541873 12.912885260059914 1.0756228072961669 -0.7464822647732048 0.2382448466826542
Ni 3.324133665433736 1.6491946348153732 8.333712758787655 0.973872171019226 -1.497394540293305 1.0332728815750463
Ni 7.32673923710992 8.55894083615741 12.108377946345973 -0.0960445870310991 -1.0910185730259467 -0.5814017580893664
Ni 2.1088621545937105 8.030431643917668 3.0260253267001014 -0.06523582918035861 0.8958862412620507 0.11926781922509783
Ni 6.057580045943965 4.790415333139041 8.204343723198436 1.32173163010793 1.0670643762031946 0.5536636687441496
Ni 7.885652735424738 5.133493184669994 12.608704332141334 0.6732191944129954 0.2715558021299581 0.11949536185487161
Ni 1.0464945240030739 7.411224237545865 7.063182248859184 0.6213294475222395 0.7512920274570222 -0.7923980534687127
Ni 7.063661107488723 2.828115169075311 3.4141333525822097 -1.3512602356946664 0.23997725599272868 1.660711527318817
Ni 6.532265895869424 3.2655401191131146 12.277780850124795 -0.37638687710443564 -0.3303031953724957 -0.04377663086531816
Ni 7.097365034446796 1.3855926099564848 10.577238967329064 0.6783698853759994 0.15824959980493392 0.22441822521220706
Ni 0.11785345061900611 1.3408593095733532 5.938890201173559 -0.028923367902569545 0.26114386276801477 -0.5515756758668694
Ni 7.603990111582317 2.732058517687576 8.133773196452653 -0.14811199715029977 0.7066080542860862 -0.2900410054183392
Ni 2.707692793562719 2.5442099059697947 6.298440421914835 -0.7022932289608163 1.6524053214459669 -0.6318030933600539
Ni 6.495924110433857 8.3709911218499 6.659119315203276 -0.5001315011539644 1.1070889962252481 -0.5990186998401812
Ni 8.492847315907749 7.571260445943458 5.445922245681615 -0.660161847008405 0.8525816649371446 -0.9369148770685863
Ni 8.456082737824222 -0.048145053229282725 7.7248812354654754 0.7407286501188791 0.05431969648848709 0.9294453081644187
P 1.4443975526010864 1.91726355591141 1.7306217414692207 0.28926118982952115 -0.3238821223375003 0.998347787563087
P 4.463578233976487 6.534131698207163 4.495136028688934 -0.2859526942815785 0.23881280337098226 -0.42027895050169556
P 1.1980105414298092 1.640499812098619 8.094129951905186 -0.9218250726149996 -0.9310805297749964 -0.15144748928143595
P 8.564933462385024 4.7549099418548755 8.729476088941205 -1.6822524867143867 -0.010385456999382113 -1.0463178876844625
P 6.842807095796455 8.752340899165803 4.544115637840713 -0.22230297864141713 0.5150243591053969 -1.273904483322322
P 4.419230961663232 2.7759462327747864 13.16764264654636 -0.027999056316087262 -0.11746136214397836 -1.3007501427602566
P 0.7466104561480049 7.408310644732746 12.89097173329323 -1.1886587866789398 -1.9781355527357993 2.078051192686531
P 8.475191127283136 8.794151415591294 9.92241403770994 -0.6504790725030023 0.07995925143346229 0.188017832206302
Ni 2.0950294820897835 3.5260814928465494 8.934123355499802 1.646780776170338 1.4436399722796687 -0.02276814693445111
Ni 0.7804485738160832 4.997841082686301 10.250929439862007 -0.4426606606310054 0.4836281041823026 0.9680177691209779
Ni 4.586123763873403 4.977556226728715 12.109736397506158 0.9737919526005938 1.8882796110139155 1.251709949503154
Ni 3.4102546895943977 3.4800798145195366 1.5281527761620732 -1.9681912970388942 -0.38601771532598034 0.46659377440783517
Ni 5.2700092542386505 0.9999597592938497 3.8619966854523793 1.219586843716364 1.2210996808164647 0.7912238306549535
Ni 6.280658314610286 6.039951430752914 5.891000661761956 -1.5766500807915234 1.671036049173277 -0.4140584235132804
Ni 1.906372049654165 6.664921684739309 5.148938903037337 0.2494898234688542 -0.74041446131257 -2.0579397666486363
Ni 2.284881763313117 6.338645245392529 8.89656466252967 2.650295452646345 0.209634124924497 -2.0068779149758145
Ni 4.663448862727581 1.128865561199216 10.175517018182626 -0.24537220175605484 -0.2211539526386385 1.6594223761937485
Ni 5.529171956293953 2.469660532760923 1.5685763488793631 1.0751978039436063 -1.176475871459503 0.49223564334565545
Ni 3.662128814044641 7.349579231244311 12.769242377029766 0.4272890632709415 0.4364527320480806 0.3391418767100482
Ni 6.538607785588832 7.1505358055000965 0.8022996008000274 -0.8904447585315051 -0.27693300728147147 -1.618474473026477
Ni 1.2749496122141104 4.174820046563945 5.061459427716488 0.8258139099249971 1.3568595841593147 -0.6672604057263992
Ni 6.841722540742991 1.536033263474277 5.891848085286782 -0.13664847659539048 -0.3609080647425462 -0.3747951071372836
Ni 8.656183145188338 6.820307174009336 11.107011941940428 -0.7781960509367178 0.9095583394325046 1.7074624103211111
Ni 4.520443845127182 6.548984587752908 10.099471326645755 0.5674550661012873 0.48727829934038025 0.10885896518694801
Ni 1.3202159989794529 6.566567247221354 1.2056520589844704 1.1736826249850818 -0.9899773041112047 0.9299140202707211
Ni 3.8888743493747935 7.025931459230502 1.9426816660839084 1.2489827803799782 0.13494383519945793 -0.21110890969781063
Ni 6.911418989644837 5.551451290612571 10.312702203072401 -0.19124508089434808 -0.9015465248716215 -0.7153441486075035
Ni 0.10553731696102457 2.8403118178545212 9.780897066407473 -1.017638517471899 -1.7747787761795821 0.5828487749485382
Ni 0.6238231991501895 4.004480565158444 1.0041601123398927 0.013256350789273945 -0.5982211436395504 0.2703550969536376
Ni 6.47594256224546 6.846768479084955 3.2943286219814207 -0.009589186350331872 1.1794534660305882 0.0978171055504896
Ni 8.156543337888685 5.718077549631635 1.659742392267537 -0.5256640982074302 -0.3719740927487206 -0.13967209391306268
Ni 6.460041882224335 9.00009739087069 2.118380503859536 0.8582185515079478 1.0926172849716345 1.0987671066231142
P 4.690654650509392 1.6012444338499332 6.597939380814479 0.5397087492259544 -0.09864320099621075 -0.41450785234587323
P 8.469474235391147 3.325604248557077 5.430627262084416 -2.5403627947792446 -0.2417713717786739 -0.3494995657952884
P 4.636252266090293 8.908167563372832 1.0795973501094815 -0.007624092204161063 -0.7109771298880594 -2.7658192314479786
P 7.378218837571379 3.9208043854403365 0.8651403750037481 -0.07239095216790113 -1.6924070586498854 0.31353497477522135
P 2.4636679065333085 5.389916925658073 7.01979912760617 -1.5023449423200448 -2.1114557362889057 -0.8946549399581109
P 5.7401087230481895 7.015830391402054 7.998471277075206 -0.7565260221624519 -1.7251672838000418 1.173056818475625
P 5.687875448736018 2.8929678848146523 9.335630231864453 -0.059517181529026526 0.4439384989021645 0.3440853367582526
P 2.9176736812867827 5.165643808204038 10.504677638680059 1.2860156647635594 -1.6228126953905149 0.7343813677446127
