# total energy = -381165.2253585646 ev
CRYSTAL
PRIMVEC
9.28991446955015 0.00000000000000 0.00000000000000

0.00000000000000 9.28991446955015 0.00000000000000

0.00000000000000 0.00000000000000 13.59672886512927

PRIMCOORD
 96 1
Ni 4.0610767850037455 4.457152284956015 2.530174142091012 -0.4831840746663485 1.843240054275774 -0.7339715339007037
Ni 4.720456328468321 3.3594374209860356 4.294852835632311 -0.17398577959326808 -0.2901482204201648 1.6987504843694097
Ni 3.378203048050738 0.7821225373221896 11.923135047928708 -1.4110977766775892 -1.21613565194297 0.8055068229365289
Ni 8.391719015817623 4.790065656981101 5.500624267803178 0.02012119622990728 0.09118185962215909 -0.1374529747745568
Ni 3.507342147964811 7.30154756233108 9.305464776161362 -0.7144848859310018 0.11011546330186842 1.1158073499348524
Ni 2.7003644446962793 1.5536267024983619 4.631113363811561 -0.38484477806380174 1.107102623072003 1.66022918836576
Ni 0.5184654770631216 5.747577133000344 7.547286235717673 0.20843959039576357 0.40257099169897126 -0.6660429883795302
Ni 8.04158214251632 4.312146011266441 7.851920179352828 -1.102298002594508 0.06631852072157611 1.8759889665720209
Ni 3.126975893243438 8.487981108710914 5.370436336554647 -1.3954508141689517 0.747888401092112 -0.7986772016092052
Ni 2.412683665828637 3.4493637922663916 1.1871981063340056 2.486205592010551 -1.617706741622517 2.223398739717816
Ni 2.9643652317877205 0.9803646654148707 7.392881355641288 -0.8517082611932557 -0.2369490106893661 -2.2256852217591474
Ni 9.179903222278288 2.9134565009389237 4.449135088838768 -0.4087074436140123 -1.5966110972944825 -1.2766406513065625
Ni 6.630118999904663 2.053247588224479 9.876663523259175 -0.368927592612913 1.465866901998669 -0.448996373041046
Ni 4.717279177747466 0.45059057556666876 8.644922135415351 1.5590912459721535 -0.6485101217020895 1.2203628026504403
Ni 5.246070394653368 9.071554950765604 10.89841754424898 0.7117605450213031 0.5691404242235102 -1.114448779024429
Ni 3.5425787932402644 7.054612347971251 3.5672509478731538 0.08164846621042712 0.15370620340862562 -0.9074096685206178
Ni 0.3047435646249388 8.443389519646274 10.289446934239102 -0.6893382114620451 -0.6659278029579047 -0.7765821694823787
Ni 1.2100670885840936 3.900110438394786 6.085745809594986 2.1180855829005973 0.8651587302712068 -0.16566800375619212
Ni 6.745323228236036 5.345110171948809 12.549698897807463 -0.8547514188949538 1.0511631315919059 -0.5677635984806416
Ni 2.3882140313294165 0.07213618522644244 3.0105333193240824 2.9859144038047996 -1.4700045783161264 -1.4291047547779712
Ni 5.708039257363031 4.6960795931129855 9.135832797410842 -0.2570645504923186 -1.043667594545809 1.971182004236102
Ni 6.490807443735219 5.160723951166526 1.3515524847204385 0.963530936994218 -0.6350149154291321 0.7526523981396587
Ni 7.872728658591554 2.5869345900131036 1.776616233530479 -0.6685973793702679 1.4705383393324094 1.144076629193191
Ni 5.265096139320947 5.552767628274202 7.184253103262301 -0.8409579646552872 0.6368758798972709 0.4468824120218369
P 8.330275522052306 6.746902513682075 9.37210319005271 0.007950365195328244 -0.33256216661000143 0.09524703083046822
Ni 8.58275681530205 1.268686448375317 11.119567672232181 -0.32406544199289994 1.0533133451656893 0.1339724724251241
P 2.2323106880621713 3.534979643270499 3.8913565520665347 -0.16918604421177957 0.6624308455482397 -0.1538159895136125
Ni 6.7190606402598405 1.474848228484166 4.67913757624274 1.2485662616678497 0.5442338907898177 -1.2229647590496615
P 1.064345491486608 0.30210429994717547 6.409388776051821 0.18064827921510826 0.36961150605381504 -1.3642648754844504
P 2.0237149503835443 6.63873075054277 2.0110509390891864 0.05255180595478692 0.0013886528174105117 -0.34379891586608535
P 8.464291827020325 0.7216907152337761 2.9651474425792292 0.4376935464337171 0.8042202429146214 0.0948881048291527
Ni 0.537855386374729 4.117866031660442 2.533546381014025 -0.4732249065711076 0.10585951623899188 -1.1553627436299716
Ni 5.881193971649658 3.0772934310939193 11.79758278396002 -1.4217675976866095 0.25571420711201126 -0.7559536945987497
Ni 4.319791610808149 8.064444621826338 7.163735398343934 1.2557082720292696 -1.2640671855169263 0.39108124589181675
Ni 0.09114892401387799 6.695938043346948 12.116819544022405 -0.3908513892691979 0.06643190637098882 0.4313745461942248
Ni 7.66483895440645 6.54925958506745 6.808222451586025 -1.5192522595983449 0.0354943362518679 1.4640843561769494
Ni 3.1527739855002097 3.3090953749149357 12.569292256244179 -0.08198476650392332 0.018292627661600752 -0.86565726717418
Ni 2.012279065771342 7.596279386219567 13.354027117492405 -0.708944929949379 -0.9589248056807743 0.07617150225625591
Ni 7.015213821049764 4.220872602399758 3.6893770914153734 -0.7658023052580553 -0.24003896246859951 -0.2372837683209655
Ni 8.793312724916643 2.6005628944209835 6.726274258782484 -0.6525688651524955 -2.364836410171734 0.16168870739346994
Ni 0.5733502912701818 4.358920730212371 11.809071621084238 -0.9105163324703995 -1.3297527006401937 -0.09389771589142538
Ni 4.200211832799808 6.312283158932058 -0.22781006760829225 -0.633113070420729 -0.33683816827753604 -0.7799621416982052
Ni 0.2848724377480089 7.133483721129331 5.620031253403893 0.5276798430858783 0.37056230000285856 0.24476979228536558
Ni 4.998391987142463 5.8142880082239214 5.0399671410051665 0.30415044823652776 -1.4466121675341153 -1.8369135978371138
Ni 6.140289683943989 3.669525473358659 6.097399078203878 1.0353181941398493 -0.6918992873210019 0.5677659124734867
Ni 4.4415823884409456 1.6472597496197159 2.8708538825448553 -0.2413437973229521 -1.955218024707678 -0.4816146732966996
Ni 7.466220584781037 7.615853235836067 13.733647392088383 0.6144576601030708 -0.3061649075633953 0.07248222633012678
Ni 6.08479173538729 7.7902992482226905 5.376704241792545 -2.3678497430767607 2.643679489991724 0.8712365610341705
Ni 2.8147790303046327 5.923277283829411 5.82626642383641 -0.6347027835053521 1.3551336026071434 0.29338806751370117
Ni 2.2131641745075417 2.744482248127107 8.607925980354722 -0.9048694185972674 1.08100335488179 -0.49556959281489493
Ni 0.8577693811960334 0.10941754065879739 12.332368782620799 0.8381636897396015 0.7708810053325433 1.1616825152004122
Ni 2.5339263385125133 0.33379498490055126 9.606292641871562 0.3406912234750391 -0.5213811545613602 1.378921963275993
Ni 2.7250012976544924 5.352337725343037 8.141408775560466 0.6376400117568051 0.1737268695049266 -1.0159801559328696
Ni 7.117746606155269 7.398933734865374 11.115448524192336 0.23565985956429736 0.2493065038134545 0.1415186602034982
Ni 1.8098146715891028 5.145572100798938 0.03423983746157101 -0.8855756033646619 1.8351917300500007 0.5454369099589832
Ni 8.997198476000317 8.29705478819915 7.850424503136284 -3.0720139638080446 -1.8162900080494913 0.9697208678550138
P 5.613189231456787 3.0943404239967554 1.7978957114287004 1.3643330097182245 -0.692667275835278 0.6550978022219363
Ni 0.5510442778320348 2.7881541356672876 0.29667155801280026 -0.3943041237044887 -0.5764117610739428 -1.4690985215620895
P 7.417234866210652 6.552743302963125 4.582450934261896 1.796846554612899 -2.267607573024546 -1.411769348823317
Ni 1.024463889016921 5.631378883829405 9.79867283398512 -1.6096134230914216 -0.020477808238377637 -0.7187138364106848
P 6.658936314337685 8.451146598160644 7.378442041707294 -0.8398562469506762 0.9095344281731046 0.928875808814194
P 0.11138700250915229 3.4285543840362265 9.622880713003608 0.14758569233318453 -0.205719106140807 0.22601359472378493
P 4.7330720322078585 5.265411996410155 11.467590161018668 -0.1617421863392247 -0.9568890061976681 -0.4918913726323594
Ni 7.755768636440761 3.1420812940390848 12.851288536497517 1.5532301592056863 -0.2946221970311184 0.7147376253717561
Ni 0.6188448600133799 0.871178443624346 8.44063134406434 -0.44126172340094977 2.674132921385575 0.8948318318556073
Ni 4.8793603140830415 1.3610932267973936 5.901442269050759 -1.3934111580311033 0.025200924745659825 0.5794826866897826
Ni 7.042461139951136 8.473015056631095 3.3628514645237972 4.845581236178029 -1.3399352976001504 -0.5275037225193303
Ni 1.8060522562617738 2.4298792973616883 10.955047933369634 -1.4346933046093422 -0.9555047242556317 -0.7365567781293766
Ni 1.7899807043697267 7.920711066407983 7.565696059061297 2.9127588055567317 -1.2361483476194712 -0.1316412531887862
Ni 4.3294159621146004 2.1324069487286024 10.365860196049994 -0.886577305156299 0.03640039300590505 -0.017421023689924837
Ni 3.622193359549422 3.874210157079742 6.446222357610651 0.2235245097533441 -1.1311668631100582 -0.5394248994369484
Ni 6.287776364775283 0.6115615671328222 1.394996769358102 0.2170718121494649 -0.7271090024529154 1.0133938832629321
Ni 5.810256185379328 7.032297973610155 9.00659522440425 1.1038848874656537 1.0656222444400294 -0.27665147148531066
Ni 5.406312127940027 8.327785824996198 12.996201911043208 2.1585336636133152 0.09158835103195839 -1.1311370383133874
Ni 0.19363897551319592 7.76934120136231 1.5088288773342986 -0.19974900460030115 0.13827341379332317 -1.4676787583964273
Ni 1.0614656180261832 1.7262240219216813 2.4901726997257136 -0.6743736197324127 0.7795993590421477 -0.23732901973660417
Ni 3.1775408972598616 4.245537325101137 10.031857117067142 1.493223439634751 -0.2829208494337902 1.0579063638530104
Ni 7.680538909722959 4.858049250475899 10.435189898139681 0.8891000715781526 -0.3396262725456345 -0.5947537539162402
Ni 7.405399515279746 0.041790679876516586 9.42954923365667 -0.08768001711648771 -1.663813820393225 -0.5958284750376577
Ni 4.997760272964047 4.108919844104348 0.05485044152382281 -1.4730544208860439 -0.5666194575738693 0.14560645711962666
Ni 3.7263425897585205 8.637195713618462 0.5673397166608439 -1.4233030604945294 1.5409066046433268 3.043938031507435
Ni 8.53706901633957 0.7033784359912308 0.693176252009817 0.7628542783733249 -1.124782299739953 -1.3324068504335893
Ni 6.576051698163787 1.3890094195347356 7.575975349332135 1.2539462950328406 0.2752093397221454 -1.1414847000962987
Ni 8.186393328003737 -0.02580366620540457 5.9055623460820446 -0.03004539732215471 0.7137822034370223 -0.8177000225686111
Ni 5.372478259737232 7.1010154703416415 1.5548399653174958 0.053500028800669154 1.4283938447538755 1.4375821961213628
Ni 4.723261882613638 1.5128253985042168 13.682251869725631 -0.33299102661730395 1.589796131255178 -0.4521984249181116
Ni 2.443080265707699 5.889898621431651 11.420354662319072 1.9171494999707304 0.675763558101404 1.7548624968716293
Ni 1.2915767974284986 5.781671118806016 3.9698098790771343 0.585383882665566 -0.5695389452135095 -0.021774158452297986
P 5.161151287228395 8.739329032405264 3.2617326043882167 -5.055452673924313 0.6586654649685366 -0.48817304324050764
Ni 8.294239944139445 6.0204776580759365 2.5929916141943834 0.23436865155669961 0.5092095521958326 0.30981613116273743
P 8.441159940193042 5.431524955590325 0.23640509640050147 1.3486030005774774 0.13337674782265418 0.31869209349612854
Ni 0.800069722929268 8.085774265262256 3.621678698292301 -1.2134673610821876 0.17338182746068204 0.6661054661863497
P 2.4194467235034405 1.260520613627855 0.6028132547532032 -0.026222938252270966 -0.07478233521821315 -0.4931627831456152
P 6.960784212647739 0.6690066817453437 12.560453831694991 -0.09081444898041134 0.05605519112235508 0.30043468994783745
P 2.217827711530552 7.980993320874743 11.172554556929677 0.4079327702315168 0.98044673891295 -0.2407773832965208
Ni 4.671693567843262 2.76378669022634 8.192912989921563 0.41055658100760906 0.5789221862006223 -0.6710872356716571
