# total energy = -340862.65289664926 ev
CRYSTAL
PRIMVEC
9.34056834352057 0.00000000000000 0.00000000000000
0.00000000000000 9.34056834352057 0.00000000000000
0.00000000000000 0.00000000000000 13.67086592986311
PRIMCOORD
 96 1
Ni 3.5932138746058 7.884214903256624 4.601449760651799 -0.011647868651573488 -0.2001747792838101 -0.6722059226571325
Ni 8.206072205366034 8.079330034249818 5.458640250949902 -1.2473035929053422 3.3726458573683527 -0.26980230977396114
Ni 1.857101127827933 5.012550588423585 6.258454432417907 1.1114207908313827 -0.3468248471766027 0.09423093086112803
Ni 8.639689407055776 3.906403129342828 0.6138752247621263 -0.1585409057931076 0.35991870424608335 0.2881247622322328
Ni 4.517108165227598 0.49167070172080574 3.6875657570655416 0.07868089894167095 -0.6200433817209644 0.5810824270767347
Ni 7.880516038214099 4.281567054678728 8.197365861663666 -1.4348025764936967 -1.3365386132137758 0.0182957129853943
Ni 1.2710925544998197 7.915300314523097 5.110402381821292 1.02540273479835 0.8052977922495163 1.3904307352465408
Ni 3.4417378786597705 6.474377547388961 7.965890700491086 -0.8361019221145666 1.903546564475315 -0.19350610901438287
Ni 0.8003167040419644 3.74481129793959 10.122647533661818 -0.5565723577505123 0.7697741454216097 2.378131070398111
Ni 9.176024838221899 6.211935600167181 5.617181452749886 1.2566174141071003 -3.8321310457558644 1.193085969212358
Ni 2.792932664723335 4.440328693890337 8.839308560078024 0.3734972142614664 -0.678505125402283 0.5234238960230018
Ni 4.772815562712862 8.218709994261326 9.329504386065963 0.4917497048481725 -0.6990523534260155 -0.13548993751091504
Ni 0.19884949019521733 1.4159180658239356 3.0972848078019464 2.2776916967334255 1.3933090852356005 0.027709035879494213
Ni 5.783334283648743 6.471080326782872 11.91403682951837 0.36753842557487026 1.2187458358723076 0.20415690386000968
Ni 4.440608910939013 0.24559249608488354 0.8228302757894341 -0.0004959657998120491 0.37835557079503224 -0.32805707965079633
Ni 4.1982772072438905 1.8731015213073403 5.75097762103811 0.07326049925704803 1.1879895285260573 0.7545889530407391
Ni 2.7289871342154406 1.2693085059565816 2.301052734272851 -1.0182602102162979 -0.5630368824289335 -0.4616690834127081
Ni 1.8549341159848376 7.11550481419167 9.694544069433196 1.0081200364585026 0.15678767054742676 -0.7739563018237574
Ni 2.367208243237971 0.7159732405041054 4.710611114134075 -0.2922508685854644 -0.6646656484160295 -1.0194974250575086
Ni 4.159233631795016 4.753312456125003 1.9405114685937006 -0.6902573808422048 0.3797573362385654 -0.4885378827790941
Ni 3.5398418674012855 5.559693057100318 13.283952596517974 0.05267161936210283 -1.0762758674991333 0.7323116296997775
Ni 0.31455671393456736 6.80057821375285 3.395268551420978 -1.1242912190361476 -0.8029817425218301 -1.2725029749891053
Ni 5.360738952540261 2.746510040325988 9.679383393042988 -0.8336773718334738 1.8489720716635445 -0.422979123041678
Ni 8.403914782299674 1.8406337059340656 6.974151192100652 -1.4252424436090874 1.0313772072142302 -0.7803647764532625
P 3.8437652783954226 4.154245768328581 5.038931155442785 0.09793460496496037 0.12486562502784945 0.18810396416220507
P 3.8202644085797837 6.940004876605806 11.054166530178096 -0.046575276656377854 -0.13514669523888337 -0.002796846018846796
P 4.973955360252591 7.061581713458093 0.21277160723027666 1.3362449932327567 0.9687914140622088 0.927828598496602
P 0.3049882357791062 0.986961807710507 5.391885077500614 -0.9089944965092345 -2.2630654621798185 -1.2424843171398279
P 8.877677746496419 2.8349465408881764 12.278665527880873 -1.9932567246479544 1.00087261086747 0.8135420345361796
P 5.043477210029141 3.388982348962343 0.5637238455037294 0.6378824667849143 -0.05298040885177327 -0.0814090965061114
P 2.350002916449256 1.1718303352904431 0.0914161418464447 0.04117236047325168 0.4404999055342607 0.31632025082984233
P 0.6020584718194536 4.645484935794425 2.9968045784876574 1.1444877485886806 -1.0781843973757559 -0.4826698540340914
Ni 4.759243716988647 8.306109691743414 6.592091125196832 0.7776502057355769 0.04739083057913774 0.13996057168775894
Ni 7.707014982242125 1.3954528807022886 4.504522683514724 -1.8930515784812625 -2.0961057361953963 0.1465881043066056
Ni 7.438744520407882 2.1408395707490993 2.0166716602533876 -0.25656138560365493 0.3036773652548512 -0.0011238291917980644
Ni 6.154696597690935 2.276894288449652 12.088804466550359 1.6259476414750706 0.5696790703357996 0.14629139900179322
Ni 7.065112448271412 5.735650682532353 6.679379669916277 -0.27297967906067827 -0.07558271963232145 0.035586895965674194
Ni 6.366746178992456 5.181063780929123 0.44724228865320437 -0.1731666261260824 -0.3627142647133495 -0.22381144486614357
Ni 2.0697111432268067 7.058303173988582 12.509744648957993 0.7225802613446266 -0.7817169196057827 -0.05131433400326002
Ni 2.153570765327285 3.051983985656133 3.7883747743836107 -0.12094957780289492 1.5393428597006327 0.030513595207824873
Ni 4.497866594551836 2.677408516122453 3.0081785884934216 0.27008281712885746 0.658958056508291 -0.2250869691444575
Ni 6.387528943435937 0.7563777367527174 9.869230443521069 -0.4500741794862571 -1.0640680125790318 0.41092270609777615
Ni 8.110294018128531 0.2710875772302673 11.772487989550106 0.12670370667785275 1.7958800769345717 -0.48847360520006206
Ni 0.7203016598493227 8.988933255389133 7.216808881629066 0.8090875983092518 1.7165209209789534 -1.236056302126297
Ni 3.615360362019504 7.589417227481039 1.8290112368118083 0.5279261547687294 0.32434234980337046 0.8818475037807973
Ni 2.9914384220055092 0.4971078465219516 8.726565098656838 -0.4377974190014331 0.0016946140936035332 -0.1812118650280621
Ni 8.05756651013597 5.955424913809046 9.798620417538828 -1.1079677992857757 -1.7678889910382847 1.5402401747039216
Ni 1.5114066954444738 8.824361782701638 1.034003711785428 -0.4039426752355172 -1.1848748941564755 -0.15285876780666577
Ni 8.063170851109493 7.180571212894268 12.533695734165171 0.17187079013279433 0.9727791950653634 -0.015136855641438447
Ni 9.067207217652667 3.2235889062653986 4.906145636643453 -0.09584686919799622 1.0239911991628043 -2.1072627812534805
Ni 6.797748021561222 9.196107060043689 7.572210966635496 0.15232063591500866 0.005320897992281159 -0.26374787604976513
Ni 3.0251111706880915 2.3055418113926422 10.189634353204678 -0.09152304501166172 0.8356841178508576 -1.2722615484022606
Ni 8.069260901634056 4.959869783272471 11.949034070784359 -0.36802899205804357 -1.4435055035843334 0.5423636703502982
Ni 6.3060324851126275 9.192548303525502 2.544490361253415 0.5179703291075983 -0.015962951087159605 -0.03579052733604804
Ni 5.135528510519252 6.116942020665971 5.282654603812999 -0.7551965047177511 -0.42039465014395344 -0.9433233516980915
Ni 4.875076104343072 5.557899667988791 9.812619127233859 0.42430889759669504 -0.3515430785878784 -0.8356458084137545
P 6.697271528474248 7.001792735838895 8.27534466196926 -1.1499971084426839 1.362142686935125 0.7266217784038518
P 0.07165710368746145 6.6662701823223784 0.5876683923131053 -2.4969962548681512 0.9568578958494166 -1.4102230873821198
P 6.73130855932011 4.262876577532029 10.396652170368805 -0.6094951738914729 0.4432173044654238 0.3580790799341833
P 6.256546154316422 8.941249654272744 4.92651554796855 -1.033856264882342 0.488401871421862 -0.06677309176049145
P 2.747061133855051 8.358323468480068 7.245380745968915 -0.5330385362946304 -0.9635363363108566 -0.9272171901648483
P -0.03733425145195049 4.06548234787627 6.744084588626084 1.2033117607054242 0.9806233737001306 0.8859561266325324
P 0.7929563362300712 0.6132624834823546 10.510626718690508 -0.2430039586341944 -1.352009455155865 -1.0155034734067672
P 7.225396600114161 6.291750756198434 4.641053770198027 -0.5410179549556812 -0.21278295496612387 -2.2584490464537295
Ni 7.176526746825043 7.461161884301973 1.1123589369930778 0.9167458583198792 0.20295337047021178 -1.022725445076503
Ni 8.97216693531001 7.484466602183539 8.347827471893488 -0.6272419563519326 -0.14149654871631115 -0.6682880756599652
Ni 1.7740447946003264 6.251231370959864 1.5123939935126425 1.1381232398232335 -1.7490985978046587 0.18624582790754377
Ni 4.819546425863751 4.944308396502656 7.344385165493509 0.426810066751994 -1.8623983723717794 -0.29807775967988664
Ni 2.9262599364834396 8.825818911354755 11.018034409864963 -0.17132314515944042 2.1117244165692597 0.1288289805509717
Ni 1.3941545417100891 2.201553264628928 11.696778947338787 0.6644293640355073 -0.817232081793257 3.136930461975772
Ni 1.7119673777502733 3.3768115884815093 1.0188374310542463 0.5615806095983812 0.16679337560988694 0.7467290906766881
Ni 3.713464350761019 2.4839373251481596 12.716529885971717 -0.9401061303123746 0.2179922670812052 0.9120831627368873
Ni 0.5394626534293496 5.360299945830668 8.730966374434711 1.7564838345251361 0.6554736975041162 -2.6648440398844815
Ni 1.6181787315583707 2.3517496027193374 6.1581096413438114 0.5803648321844199 2.0342390805975867 0.8955489125272899
Ni 7.998384669455572 2.5426241157092315 9.629702778426365 -1.2617621915328334 0.7169665147022749 1.7928011808989317
Ni 8.674109401201493 8.887905668773097 2.4439951870298633 -0.06466838671266281 -1.0408959453379427 -0.9143107665158254
Ni 5.594682825911678 6.508134361186146 2.492854765693863 0.48144652314995146 0.16301719639690634 1.5132734163070907
Ni 0.7074116756102204 8.706175572138333 12.461513690539856 -0.25145414628407664 1.5369612468423337 -0.38992270680734137
Ni 5.954388110728945 0.060988306587532036 12.472053587797395 -1.100902150688246 -2.2690332497274794 0.18438512054972114
Ni 0.14982551752932738 1.5194862870146355 0.3318059413942413 -0.8014251966679875 -0.35469962193898913 0.05843731820128645
Ni 1.0087907158023781 4.871975035671056 12.743407371223904 0.07896989093699948 0.0014966391501845192 0.05654961426027035
Ni 0.7081010095499637 2.2463506301439535 8.53006009110221 3.176425948967233 0.5330706750841464 -0.9836673027327768
Ni 7.758322723854726 4.714203496698103 3.0247338117292077 -0.5823299263305907 0.027034378409972797 0.22527723077839265
Ni 2.905374425788779 5.755023021164163 3.7080309421871886 -0.3457426698560174 -0.5098875520994638 0.7451419486952263
Ni 5.03221248467236 4.279633557042862 12.0176480173232 0.3270499785425206 0.2310673550976085 -0.8531912734966854
Ni 8.700842107645197 0.5803827490475257 8.848016771894049 -0.8376679810501058 -3.2381409094785263 1.9327131587369422
Ni 6.239032588774164 3.475886996325102 6.027389322193223 0.37437781709420687 -0.5413252017834548 -0.27036358159406987
Ni 7.421492490777721 8.013469687242637 10.071723689405903 -0.7474243169714999 1.8199977959183817 1.107714545624389
P 6.427291742643081 2.9899812933523933 3.8753354651561045 0.5183511094857847 0.8272095047209431 -0.25148319974979916
P 6.150624109916842 2.0686089561686805 7.788907480660897 0.6930737672450773 -0.5684377417295307 -0.9374326972452693
P 1.8266602157734158 8.375052426286032 3.0597861623481055 0.7386941361873536 0.18070767169813393 0.8299639275376286
P 7.20744402786231 0.5607199187419213 0.5095420110285408 0.4583482465695913 -0.9140827096654193 0.3613119850491842
P 2.9841247570350617 2.564509067210838 7.7620169186131065 0.7603549089902389 -0.2171926539980453 0.7585227408775066
P 0.3440999973764923 6.814822580393887 11.073961996553406 -1.1716388550821757 -0.3115598533267215 0.7673259409914333
P 2.626633186902337 4.186564134609228 11.386491807169214 0.7784210224633303 0.25262091289866817 -0.15303385993194935
P 4.491533689251756 1.2123684016655907 11.193800553647073 1.382263626054716 -2.06956372404081 -0.869582056149883
