# total energy = -340891.1841636551 ev
CRYSTAL
PRIMVEC
9.07824838353215 0.00000000000000 0.00000000000000

0.00000000000000 9.07824838353215 0.00000000000000

0.00000000000000 0.00000000000000 13.28693415270831

PRIMCOORD
 96 1
Ni 6.250337619332127 2.5090008649911058 11.857273457010963 -0.415755094489413 -0.7877003908827274 -1.7160807481177414
Ni 4.700444605577367 0.5265883298932306 6.120041153244848 -0.45286254086467165 0.12588995252730578 -0.33964632715029247
Ni 2.655859687218012 1.5540054602200364 4.863270250857539 0.24278130110042706 0.8138878479113725 -0.7063548006246997
Ni 3.561859786088197 4.27615451628894 4.8864824238532725 -0.15321332293260712 0.7471047288485521 -0.4958133333945848
Ni 5.079770131195779 4.461831928108616 2.6414161942240697 -0.03075605023593413 0.6529208491752756 0.0375303928452902
Ni 6.8949567940781185 6.106011628371915 2.743074418325998 0.4308616111135483 0.8924113953395728 -1.2125589903353053
Ni 5.024084156321584 4.673600225449719 11.196168183410792 0.3487665442840058 0.2083030648178993 0.002018315981609427
Ni 5.570894284231161 7.934379907738983 12.145745689615687 0.0460829104009916 -0.19367708737460837 1.2398360808837035
Ni 1.8969090537883548 6.615183338963525 0.30758194520827375 -0.03943223785369338 -0.5974832370322612 -1.128913034078875
Ni 2.9880418695821533 1.610680964155412 0.5058073117835928 0.7852470442462283 -1.078402426923833 0.4437009289700617
Ni 0.42139866721515934 8.656418383712092 4.488246907093201 0.12815226619892126 0.7869198039629609 -0.15314081782345884
Ni 8.679849342491076 2.3863537308942093 1.285410052197486 -0.45167957630016403 -0.769356855378533 0.5896442006038167
Ni 7.001063359831229 0.6661754752576928 4.862739173333878 -0.511815365249796 -0.6330297666783034 0.10123641564468372
Ni 0.9071820867946421 7.328207114406786 2.2205658532042807 -0.8957263186454187 0.31195426055166275 1.5478498687303794
Ni 7.561336529921834 3.992314005950407 3.6274129090045757 -0.16729525494696995 -1.116666355501038 1.0842334317833133
Ni 7.839149083410601 3.835968414283734 12.707091908651536 1.0285286820218418 1.0704659456855756 0.17479310598591186
Ni 8.160782341287652 8.845781564328462 7.106875790340466 -0.6070271719669547 0.4658715515298299 -0.10041391974338834
Ni 6.860722719860546 0.6145674495053584 0.23482795576593918 0.08030583613960364 0.3859069007797289 0.12711919694871654
Ni 2.124872946039071 6.188015444974229 9.259810509599887 -0.043869961910072836 0.5173298673101219 0.020498119953351795
Ni 9.134079494566446 4.696913167001224 1.5541861173605638 -0.7315899210424046 1.2907526652279124 -0.6518620688934581
Ni 6.490366503530643 2.021426307028402 6.972929868449565 0.5598219750360616 -0.1624484683776299 1.210988817634708
Ni 3.6667044753320948 4.3864189197486665 0.37052325609802983 -0.6345510884188362 -0.8998953624214437 0.7284603742744874
Ni 5.807609607811959 5.439550188293788 4.8489865350331085 -0.3124180875619587 0.5871399461247243 0.2757754966382605
Ni 5.610257568719995 3.0552662980046197 9.18481873195956 -0.5108851401260427 -0.43267012507719677 -0.004039460176696269
P 0.23371587035314348 5.566173595131947 12.55677699730911 -0.20192981430170384 -0.7066345366486476 1.0830710360440958
P 4.112074257098168 6.182414165793046 12.538654090292258 -0.513814912178328 0.821238888959805 -0.41596206829389654
P 2.4358664969463537 8.598680724729393 1.2712153032060791 0.8135674884574764 0.06820648177290833 -0.12427324285948922
P 6.316481736210735 7.995903196249322 6.107006604382057 -0.41952818837860006 0.3576674463180614 -0.6599186206493474
P 4.823718138804737 0.9655352510098925 12.560470936529244 -0.6006724333935204 0.364154853814618 0.34085860229083875
P 4.112319369801397 5.926779772822319 8.14635246566611 -1.0155443539470317 1.836984046063733 1.299341435338188
P 4.737347684785649 1.0620733430888267 3.849822728965101 0.11385384729837812 -0.8032684205243134 -0.46259673743330004
P 9.043505811599402 5.612853947724563 3.6039873971745515 -0.5269169967779248 0.45834670390769455 -0.5956994056589611
Ni 1.4635679509770099 1.1494696391621668 2.446934697234358 -0.1601463026070145 0.4449350584874789 1.0446448708574139
Ni 1.6428996672575502 6.487298055616153 4.464130540570003 1.2653874469902466 0.3604092707292567 1.8507214502544838
Ni 6.128979596489246 5.9062901664820755 9.175013316005595 -0.21265774224216924 -0.8469689467360575 -0.1644978947074909
Ni 8.631925269885784 2.6742249834636094 10.33593244188301 0.10837611201325852 -1.0150296190941421 -0.10819690612291688
Ni 2.3246942686598553 5.4314160778459115 6.917323782160127 0.17001496787097817 -0.4247105039104879 -0.07541354104430883
Ni 0.7519458570662843 0.12081877489577796 9.042090512694465 -0.5659080333291415 -0.5076278095310096 -0.18239740069573102
Ni 1.2333435749076316 0.8299824791756052 11.281297640891681 -0.6955926770121891 0.2425491304849629 0.9657788524881301
Ni 3.8515648448076765 6.627457130621482 1.55320294307317 1.7619152899533526 1.5935221739565137 0.3994987805315507
Ni 5.404117785304877 8.242441184455792 8.047497604629255 0.8740956277495203 -0.19458571523180682 0.6973777939370699
Ni 5.4331409450167785 2.7527064397380485 4.931299012076526 -0.0640171262819091 0.7838151968957081 -0.34423574629318776
Ni 0.9497481772723275 7.383466411612398 6.78177101032584 -0.7749880855223814 0.07084906160207798 0.2565955812757
Ni 5.096891707428699 4.522756052233285 7.054445275295076 0.025949887096542404 -1.1962684807053978 -0.36593457142286007
Ni 8.191385116198136 7.064865288656765 9.307231647251148 0.8139084167366627 2.17219239204733 1.1361414335065143
Ni 4.852968254723331 0.4982070023338577 10.332145904530543 0.4251349930424162 -0.2661919667148835 1.0590700451438084
Ni 7.777262664969554 7.026518767973916 4.831568100081834 0.7293584606087244 0.21322672737176182 -0.5427182254762395
Ni 7.277595880314248 6.3296905874402665 7.068595540869971 0.07523870602934139 -0.918077175536793 0.1677634528326401
Ni 2.2501164591405356 5.230042374771347 2.5365288372133135 0.7358332696997908 -0.006071145894744383 0.17670394985537954
Ni 2.431427233543439 5.219865658463233 11.537616533781796 -0.5595761775738427 -0.32898833321581405 0.06520369039084255
Ni 0.9317460109574389 3.5253379933071596 3.7205139762893515 0.2507486355766198 -0.9162956581563381 0.6911050735544808
Ni 3.5932796033427756 2.743455704753242 2.852505438594748 -0.18313967817839427 -0.7240113373641983 -0.07547987550587
Ni 1.4171236328393546 3.4773957642053306 8.224186642839062 -2.1774618679763855 -0.12847313987344972 0.23223155060903874
Ni 3.339796755211499 2.6620056612952583 7.175609023625027 1.3724646376864233 0.16854712507620007 -0.2544574518867747
Ni 3.9490016834651147 7.15542989337554 6.081934298316268 0.4378082176347105 -0.5784390759166167 -0.7750829592290329
Ni 0.788335107422613 7.275616822191884 11.479778106243325 0.3574265339518489 0.3377887051162634 -0.8747980531331838
P 0.21470238718123077 5.744470391109967 8.207777709095158 1.2235373437236798 -1.2735676688081936 -2.408777591639374
P 8.613069748233729 1.7674078422493296 8.083265902804072 -0.0024610599459828583 -0.0820071351014265 -0.2908593875545765
P 1.7241045980123053 3.2343438233336634 10.75166719000394 -0.04031721156180799 -0.0158387668044695 -0.9931636722589864
P 3.877483243612017 6.245843886439605 3.767682738638771 0.12081768021072094 -0.6280143157415828 0.4952569466704826
P 7.065301044573617 4.22757680980837 10.274134990274987 -0.32158587010415585 0.40048711258674896 1.5650842303307948
P 6.466363615110791 7.987178999664043 10.1649027836433 -0.43712481841444073 -0.9053972660762794 -0.30774562178695386
P 2.2979406710148846 8.67824249254769 5.652341604214665 0.5665919467700435 -1.0323583401805771 0.2964011433084121
P 6.901329724362058 3.851383279842322 1.569758036614184 0.6447547684247154 0.5352139466793944 -0.6267197652998755
Ni 5.400096121322278 2.5617636439230944 0.8702626667394786 -1.5293042445177083 0.22230503552394615 -0.4701799490971966
Ni 1.4499324220788945 1.081028725471826 6.911623550072826 -0.9713866855932107 0.6028663557210455 0.8258069679464616
Ni 7.02276037319108 0.8511420602380068 9.42043649532479 1.1557049574607385 0.45921162301115104 -0.753217012393877
Ni 2.8916217947306997 1.5397162974466452 9.896002346478953 -0.7073122794419625 -0.0790483095834187 -2.954539231927628
Ni 6.736768318013098 1.6520323850148766 2.5997878867924396 -0.9195745860179261 0.8634833994513129 0.7413459719879039
Ni 4.334972486815497 7.17999563318799 10.073994113315178 -1.0987442238049785 -0.42135624272627437 0.5755458135292216
Ni 8.106249303943459 7.087996665242915 0.6977251114625 1.1273528886806068 -0.292623935654167 -1.4243831809325858
Ni 7.828563845930439 3.9618110917708678 8.123831147363552 0.5042038714511253 0.02948746793615567 0.22814375369291032
Ni 3.1016289119078655 8.367058298426786 12.206361153299254 0.7047098088221089 0.22097243275545167 1.4299696738814276
Ni 0.17285075484221496 4.972201967471564 10.275636532538467 -0.02309673391846345 0.16680725956695788 0.7052913923571917
Ni 8.619778573703574 2.369477267364518 5.602966827536188 0.48256341036321415 0.6593717470069418 1.0657412865163969
Ni 3.6115450388574284 2.6884778332439296 11.741357844004579 0.8140128035250109 0.627678529668719 0.5784285343936555
Ni 1.2257995505971564 2.7947568857141274 12.898796369496152 -0.32058493964346724 0.9161851007204027 -0.8421548131768659
Ni 2.987134044755381 8.377534596927735 7.9933267893909425 -0.6049911153735323 0.4987531327491992 0.6975703695638502
Ni 5.4159467427977175 7.852439638874543 3.9248145066054283 0.3498363803094169 0.6276798152202997 0.019080156559902625
Ni 2.97563190420018 8.387874721704668 3.4692316955381695 0.43343348560578254 -0.022155710161432807 0.17946351487838771
Ni 3.3622472631775704 4.015581556260573 9.418895008768931 0.6656429247276343 0.46098105620674806 -0.016269683694301013
Ni 7.289978610951417 6.189640451414151 11.78144466488035 0.18855262166384948 -0.8435807469901149 -1.5426071322742014
Ni 0.6237727932488264 0.3322157718827319 0.2979299516500339 -0.5536978644161948 -1.3117449512088635 0.08381513484444275
Ni 4.821049133814028 0.24161122287157955 1.7386878960295709 -1.2444365557701922 0.09553705126706127 0.09333001631341345
Ni 5.87951841234057 5.619363051732518 0.38639203407000433 0.8225933461051704 0.08328008827657916 0.25847454346596777
Ni 8.041839132483984 8.613251313199083 11.565532147205033 -0.6123457559663906 -0.0751147788569674 -0.3431993346088734
Ni 0.01096652390740572 4.902517333768546 5.856096531809852 -0.18350194661381944 0.15388438085770273 0.18221896613633778
Ni 8.029202210895319 8.797911961212774 2.328707762219014 0.2645351478377509 -0.3072334580372257 0.7952584057356433
P 8.67131578911942 1.4876525436312709 3.662210742439574 0.20188224889322007 0.04528046910435427 -1.0031747766380854
P 1.8661882616503906 3.3506271053948886 1.6770366042186575 0.07789696958779488 -1.3343776010067148 -1.2025622841339094
P 4.5131421873177695 1.2618583527165401 8.345324064249036 0.535317305026478 -0.21626217176397594 -0.8712370752548028
P 8.404696715744752 1.5031581916725367 12.220923571345502 -0.32652778749046346 1.3567623964598183 0.47432662427571853
P 6.201823460589431 7.840746855105721 1.1471301745835756 0.20283689949700548 -1.9155469313703009 1.3617922455742417
P 1.8316727617365192 3.56714332658001 5.887041556680029 -1.0849901074436796 -1.3151287800794318 -0.21646528891371752
P 6.966947302841138 4.033983165499242 6.101838357643244 0.4897547859053307 -0.03187653699362253 -1.0774238650606476
P 2.3246942686598553 8.2338894745876 10.27467968517105 0.05459326186484791 0.15868463045982348 -1.8269713990227376
