# total energy = -381174.4365250663 ev
CRYSTAL
PRIMVEC
9.14816022409735 0.00000000000000 0.00000000000000

0.00000000000000 9.14816022409735 0.00000000000000

0.00000000000000 0.00000000000000 13.38925719817317

PRIMCOORD
 96 1
Ni 2.176383853172404 3.617310532476599 0.7283298424235642 0.30258901728667886 -0.008767976000617158 1.67966749959603
Ni 3.4983204155461842 1.676116724369471 1.6565725953766106 -0.3738324861136981 -1.6369239379809164 -0.5334249730997717
Ni -0.00038971161537907896 2.479938097808756 10.24454866335753 -1.18324481475222 -0.8776213815145917 1.3012990732851912
Ni 4.495232001797822 3.814901640001781 9.772483482157664 -1.0600918015401033 -1.2382221994293643 -0.08513333943523402
Ni 2.943328993710443 2.1365802090758224 12.481184127825937 -0.4721381012648321 1.1420164042300525 -0.25157575946360544
Ni 7.045473709094564 5.678171421353063 2.656964141686703 1.189328559052455 -1.706080956592552 -0.7306766651995158
Ni 9.11261023572103 2.856741659448401 8.0164026913556 -0.7068296833785892 1.1208495403444503 0.0001437246667158815
Ni 4.876792606629887 8.630941316168466 3.32741814996248 0.9117517475393975 0.932355282722362 -0.7907026680441608
Ni 6.615308930259939 7.861233431314828 10.173171059887256 -1.7811479129307195 2.8325948943116313 -0.10858051471458076
Ni 6.045881711967197 1.1790697478814078 5.750605637301656 0.6497771613399712 0.44873900561460134 -0.5583191652382901
Ni 5.8055778454700695 5.6913264754121045 9.678116552644019 -1.1374760931575378 -0.3682002275285852 -1.5093542837583425
Ni 3.597111395228782 4.694122148040933 12.398639365461456 0.9868564990940359 -1.4176481762015973 1.7314567163531793
Ni 2.104890982886312 1.5400012519463415 9.773300412844364 1.0800307065558754 -2.5408029676404564 0.3031402618044586
Ni 2.1693214736636564 3.995339947554291 7.020027187279108 0.8681252690986985 -0.1677721945833885 0.9268734336721843
Ni 4.981529890303011 5.583286705984243 6.678508078703244 -0.21294210625180748 0.16448941006705864 0.14260083752408342
Ni 3.3117985816033664 7.744338243021075 1.7449547986277925 1.3153923181534637 -1.2621383439253295 2.4414637690184855
Ni 3.238732227799782 1.0092616022319603 4.493648455304345 -0.19587203814339815 -0.7098445589455129 -0.7330960732742858
Ni 6.083837427746723 2.7222088187027498 8.031264792067919 0.497431328613982 0.06434519904528918 -0.5855240077878562
Ni 7.572718761694514 2.941609139633183 12.36764356979884 1.2856557103209794 -1.1406557764371 0.16293003599973876
Ni 8.112048533635209 6.115188172016772 10.001386911680955 0.26211856797645827 -0.46345394322727285 0.17937249782647818
Ni 0.9467247805715991 7.466307364744057 9.671863785293981 0.42615057879112417 -0.04051492939491087 1.6133584919561503
Ni 6.989422932863868 3.5535295610582205 10.136711983081344 0.23187339593867165 -0.0034429642432779414 -0.791346986496379
Ni 9.17898928457527 0.7796226606458402 1.9218399608419643 1.073005167167662 0.5708023853069654 -0.118162501976061
Ni 5.210050926738912 1.9966225094588146 3.4493000002642877 -0.03867581930364307 0.863305479112552 -0.3006504055030693
P 6.06814833337172 0.7477980416885458 1.8646548127730764 0.8031434649106749 1.2213382791898322 0.6314228272024996
Ni 7.313414166907658 6.102399044357149 5.7851225597426605 -0.051859664983768754 0.18740410988170306 0.6822576504661799
P 6.97478587688719 6.982461183114961 8.32941613341688 0.6838399073516351 -0.7637698482090588 -2.4604850473159945
Ni 6.366122200416964 3.715945993439445 5.898529554633971 -0.07587171162764997 0.8638351263637767 -0.41750190197719067
P 4.98614971109565 2.5802019312490074 11.545355720612976 -1.5103511004539731 1.759580214062273 -1.2131907103820332
P 7.312572536188999 1.5093640641551553 9.450686891694378 -0.1787718881280018 -1.066241108970951 -0.39549942956417045
P 2.8499354284192453 5.648110567640959 1.270664784919471 0.4829156514963102 -0.16394793574129182 -0.1215491590601068
Ni 1.3913436521831954 3.069326601189693 5.1842128636760805 0.4827647277407428 0.14411830260987435 -1.2054195510770465
Ni 1.45503314200172 8.515024980993152 5.829843339831408 0.3996137088428602 1.0951446793791786 0.8389843858686842
Ni 3.6982991928275615 7.207231473956838 12.9229359660981 -0.2644636711698671 -1.6550000787563366 -1.086563879688703
Ni 7.671354222657358 8.320800396342607 2.0892860515831755 -0.8056315214398512 -1.6495213150299526 -1.2095405152239556
Ni 0.41285463051020554 1.2840357355541674 12.337102437687498 0.4522768435645307 0.1756773083630781 0.8718986200982015
Ni 2.909883320803731 5.709137942903726 10.624214684256616 -0.7915197646288175 0.5817881948945076 0.32730426064517176
Ni 3.3332784612491433 4.8047965875445975 4.738524572162188 -0.448534345802963 2.340365678723879 0.9133599725667819
Ni 2.944518254508548 7.5684191265013645 4.2006383798671925 -0.4413445129227431 0.5583129945907029 0.7406790278278663
Ni 3.0137149366382983 3.1663611341550895 3.1947570227498465 -0.4350049438579605 0.7032730763755823 0.45174385387919613
Ni 2.4445987557850613 -0.19713095507791453 0.1841945420425259 -2.1678012049581694 2.2715516452739593 -0.38863047035847903
Ni 4.927272153429459 7.96789182858489 5.582610656961319 1.4874723960835865 0.3006655750117209 -0.478542205018963
Ni 1.872125200217174 5.751374997556431 3.3096908455427245 -0.21393995138870253 -0.7753187293889229 -0.8758974568449495
Ni 0.05866806480252514 7.8476941545364 12.358257557653795 1.2209335875522458 -0.7467113500648753 0.4694186454511399
Ni 0.6698237000527811 3.0985000833832115 2.9529199246391618 -0.13356109591931836 -1.4965969840926743 -0.11739605612368169
Ni 7.650340899170839 0.13954786204966071 -0.12094233427130459 0.16851987138269045 0.5948617402490142 1.1314075183659549
Ni 9.150904433420015 7.278230343603717 7.316733119350371 -1.624118301575816 0.5569060869408474 0.4225284086575045
Ni 4.867315112884988 4.131208419657814 1.6313739886967589 -0.9015059014416732 0.21208104380309278 0.34364644944862105
Ni 4.9081250545799655 7.802410762608549 8.073587839424487 -0.47464029886139547 -0.3547703272759245 0.5493298172554861
Ni 0.9078332080255644 7.363582676267726 1.6326858348386688 -0.8087032183866394 0.587737213389091 -0.35331868243106246
Ni 8.750580952457845 4.961193530655413 4.010497533834141 0.4571603969090772 0.698961336374106 0.5461087392150272
Ni 6.293321143252956 1.04353060953736 11.743020928234039 0.7319393339620233 -1.6730584789199443 -1.877691293975108
Ni 2.2360481525973417 8.611940587878738 8.149933808582846 1.498324251196426 -0.029054494163795123 -1.175210117373202
Ni 9.138883751199169 4.535163720134199 6.242848000165374 -0.9970666068578182 0.022854278890354192 0.6320797440602083
Ni 4.164132647445356 3.006917853769128 5.443870577438371 0.5001772667902354 -1.1234612669356847 0.6108977106659543
Ni 8.082646347442054 2.870125417507077 4.7884131478267005 0.9559752361341471 -0.2783553415502948 -0.1652265453433993
P 9.125252992820887 2.5620885744778668 0.7321363917934993 0.5692347837095293 1.4141617603148935 -0.49825356740496124
Ni 1.7116298814328885 1.669713012379674 7.034876480567449 1.4698731949445847 -0.6256026209762968 0.3051027848474681
P 7.73841023535052 8.620622191704905 5.3419253121927985 0.8034234580449389 0.8361111780859471 1.4008483310354392
Ni 7.48243557079836 4.838626483170697 7.860136566932575 -0.45021456171886337 0.25503132211237367 0.4514607754211386
P 3.3514650033001665 7.275055932088774 6.7035456777673526 -1.1817499753742486 -0.4997802884621328 0.21460715265905617
P 0.7411162256351919 5.315693878250594 10.888666033851269 1.8785595555126746 0.9043318009262425 -1.6730777621936541
P 8.03892729087171 6.516197764977851 0.7041274703661254 0.4641792514290715 0.42103588327237806 0.6687125647918934
Ni 8.473208741699779 0.025316617943663456 10.657741775787198 -0.862157738661354 0.48450150792619145 0.11089784999384772
Ni 5.1761844384728715 2.198220511057612 0.2140477325229613 1.3631235627911555 0.08358887776624958 0.5444701751703398
Ni 0.2614708790714028 0.43366669447704603 8.657064801822843 -0.741648076609355 0.5430694381680713 -0.7942052818807807
Ni 1.8094786006369878 3.6962225605108703 9.764450482874462 1.445903828613181 1.6142738046815681 -0.33371324949530917
Ni 6.112882835700446 4.768176503122944 11.873525834138109 -1.9746385953261345 0.22535719208670865 0.2651236733513692
Ni 1.636642414032365 6.163389826979974 6.088375829915492 0.5347539763238404 -0.4431010906025337 -0.8622546692505344
Ni 3.967776541518208 0.33168758103952767 11.755714000213816 1.735694665693927 -1.0415950282874966 -0.3650272291172423
Ni 3.453778024577153 7.892364619745227 10.028914639893097 0.34953247591575287 0.47227591239427696 0.6561159590738055
Ni 5.076076123752372 0.8286412462957397 9.222091755162594 -0.3548659723135243 0.1889010061422037 0.6682461666784362
Ni 0.2820121575026747 7.477715120245882 4.017111653503602 -0.588053459077929 0.24201742635120896 0.43828052928543876
Ni 3.093313076671476 5.4885941019751145 8.448968862186398 1.651090973509918 1.3490511438584896 -1.2319142549334656
Ni 0.8711994013639325 1.0586799624732228 4.286369446354599 -1.3886124510908795 -0.8496608917459237 -0.47581169346167734
Ni 6.8979138885296685 7.381933885198487 3.937204305662918 -0.9521592048221666 1.191374128727574 1.2804757087819367
Ni 8.354575403008793 5.3151632849714385 12.245050907466164 -0.6142391163343616 -0.027477636594978486 0.4146919433322213
Ni 3.940432691321774 0.9720011466113267 6.706731981890275 0.16331338748108648 -2.101415064223452 1.4515972794535321
Ni 4.869071559602189 6.1918040118947015 3.5683175616746587 -0.37865844674743177 -0.7063321749168803 0.027455525107791423
Ni 6.854149091159398 -0.06304820380354635 7.606356545960918 1.0176709133717312 0.08496827461227947 0.2542386510077493
Ni 7.406460102119411 2.998666213462275 2.074209883927196 -0.348636960684677 -1.9664020663489554 2.0561685336808266
Ni 8.770990497385327 1.128910386681326 6.485835936802226 -1.7035263084914984 -0.8535247455767042 -1.5689308577703946
Ni 1.0059499683172366 3.635387296607798 12.162318607821978 -0.5043103151220024 -0.8355409074047738 -0.144433519857448
Ni 5.33145615790548 8.635277544001555 0.467907342486491 -0.49372894006173035 0.7762001035526116 -1.1848599817581402
Ni 6.805279620517261 7.196262830134314 12.318678958292853 0.5643638287704731 -0.13043489158551083 1.5183392608657722
Ni 7.358084632116486 1.0373738978671694 3.6931588417317514 0.7691077154822045 -1.4483654027797959 -0.09928983344127416
Ni 7.078599196401786 4.450305388109403 0.5677393827754302 -0.810477793788559 1.9772138122524787 -0.1262337090199697
Ni 5.542769505408797 6.465242513859036 1.1672805141081914 -0.5779199701883531 -0.03687450442884617 -0.8148579251341257
P 2.0541278431271923 0.258457475172204 2.629677010082179 0.4148654927956081 -0.6129908457495572 0.13007005204692437
Ni 1.349673783449587 5.932224972308284 13.022538387571407 1.0840555114445525 -0.0009014287683468346 0.12363715193738707
P 5.006092699863876 6.7016675605223455 11.355656730707222 -1.1209413287273082 0.08675750530221833 -0.46480222972505114
Ni 0.7865542214667962 5.341811875008981 8.556792735038606 -0.9945386982296419 -0.004434124511953654 -0.8214265794905788
P 1.894455858741595 9.085229792884656 11.511654814042672 -0.6347143534695778 -0.6377706237973984 -1.7934033332593047
P 5.841987522212058 4.108795427693525 3.6235074960507254 -0.019222338564721733 0.10398286804156931 0.9996474802111172
P 3.9517215207437877 2.8551132869709956 7.6228122561427005 -0.20673572033077942 0.5922664687180123 1.2885546291353294
Ni 0.31950955046693075 4.876015013031126 1.754286836628924 -1.2951978454834596 1.3176764862019499 -2.0234111367441474
