# total energy = -381165.23962984694 ev
CRYSTAL
PRIMVEC
9.26906127842985 0.00000000000000 0.00000000000000
0.00000000000000 9.26906127842985 0.00000000000000
0.00000000000000 0.00000000000000 13.56620811206315
PRIMCOORD
 96 1
Ni 6.2335177437296965 3.6444465204140575 9.030495861380281 -2.094462801275335 1.2564423219818168 -2.664922715641217
Ni 4.374820728085444 1.7432972049216515 11.954745603213187 -0.5768506483835744 -0.36583918349557637 -0.544706716661178
Ni 8.111550020833173 3.7220285618396134 12.70459040063589 0.39458643083159783 0.5699418370788829 0.22161597987672155
Ni 8.856207851663076 1.3329466008654063 11.038904898135321 -0.22586627051264327 0.348526917469374 -0.7651865260509274
Ni 7.308089266370806 5.798390939347225 2.733387723958826 2.5639578084903647 2.2428902727835243 0.06597527844954444
Ni 1.3907299277766267 6.039553371104705 4.004161170575002 -0.08964922502771656 -0.14807651592667403 -0.6096396698891371
Ni 2.6540658797643837 3.7793113594513135 4.627976398003082 -0.657968181791196 0.1306323523082976 1.2223024428753142
Ni 8.74195740451715 0.1542779606097393 7.174705623297684 0.2445193668374563 1.831067166358666 0.806626538363269
Ni 6.181240239113193 4.78546794209696 0.5591709414889993 1.407936091120156 -0.19577382200263702 -2.382488576035858
Ni 8.297441041238134 2.206342421344 8.820992834723533 1.986617879175198 1.0022980304600868 0.5532574344446665
Ni 3.2730630492315322 5.449559093826394 2.6910744600272056 1.009361107954455 -0.27905776693395806 0.5041444789680994
Ni 5.868752382174154 3.6882799103664414 11.610313780997577 -1.2630438864587346 0.5391906719389552 1.5607609203650925
Ni 1.7861758815805073 6.841151044285527 1.708311133791334 1.3636670939994515 0.014635233414671567 -1.1007576546905817
Ni 4.993734476002673 0.4428785201822551 3.0016185948531096 1.7090734635619727 0.9449935403116627 -0.7444446655178857
Ni 7.112132045608838 2.891149924636889 6.746190440199425 0.5276613311431171 -0.1310126184658518 -1.0373498798578973
Ni 5.820951834070021 7.973190745760381 12.647341898550268 -0.3433361172970539 -0.4231303039075616 -0.4658360703062042
Ni 8.827677681590453 6.472131183684066 9.604359191622406 2.762315589170094 0.16688567821337708 1.4629615554264157
Ni 1.197655385017448 3.06709524247917 11.973508036696295 -0.8588423011348757 0.03233085092222174 0.0990445501996875
Ni 0.2866735217693649 5.821878740180243 12.017191267858822 -0.6263400133629536 -0.08974538428594867 0.02088275698628016
Ni 6.657975858783516 0.8118631583515267 12.069231484511109 0.5432998090113225 0.17340728138197878 -0.38916628825729105
Ni 2.5376835485649485 5.600579906364814 8.51024478055338 0.3454022557974632 -0.6768382792228214 -2.3007079551229412
Ni 8.876266099888273 1.1160691091957349 1.89560641695328 -1.1826876566971698 -1.1952287265869739 -1.7956381361270946
Ni 7.040287553005554 8.067457097169928 8.022295450761595 1.345045622243522 1.5762531024634208 0.31928858942954685
Ni 5.420407896659921 2.4235999445188625 4.477241999452721 -0.47233710464951556 -0.2885716199616643 0.04682184544954517
P 3.01985083804117 0.6113381442783864 9.38822322484091 0.9703078507067353 -0.1492725931173042 0.42210109131209883
Ni 8.610095741277012 1.7361229516285357 4.847803304915479 -0.20257361853328984 1.4837638368837478 2.5717539074960163
P 0.8677324241451392 4.474027489062472 10.222245927569508 -1.490394197716072 -0.5685500989376789 -0.11169797729763989
Ni 6.647010559499593 2.3186927109639712 0.309745141758893 0.2706332903156887 -0.010971925630471427 1.263446778324108
P 3.410393458521978 1.940515017993521 6.021741016384575 2.000578455120348 -0.28599511748373974 -0.8634363482634614
P 1.3520130595526665 7.787642680616203 11.612606019808156 -0.30631403154674985 0.07092593758660043 -0.4963764049869064
P 7.195155025901395 7.88433752603453 3.7329595655974575 0.42402401936642453 -0.7173159276218937 1.822399977601971
Ni 2.357261274210296 4.652531067768965 0.6958664200939433 -0.4010730669972061 -0.9928345710543418 -0.11009746557973944
Ni 6.805279777819947 6.2250087456378616 9.100266865014998 -1.6190259746545732 -1.9833600343595326 0.4245300124685656
Ni 4.941670159791521 7.2535686489675655 7.85030338747941 -0.7986682027481407 -2.7057680317923527 3.2117058552154494
Ni 0.8717969074384613 2.3089231205622345 3.34685126394795 1.731963480786269 -0.4776340913823968 0.5517803356785078
Ni 2.4035231581714607 5.838461090492109 10.599277964587724 -0.7711234603606526 1.5777356005462184 2.938120424249972
Ni 6.711254421999059 6.067573742816707 11.603204411132177 2.2760055672802544 -0.19163974522960545 -0.08246273458160637
Ni 1.2900493860843465 9.220333648002565 2.9718000252872776 1.023296744198941 -0.3356978840255057 0.6453456079311789
Ni 2.43717911903361 1.8796543627963647 0.28402720482468197 0.9980307705433005 -0.5988433506045816 -0.4833524819234127
Ni 3.1181585000912833 3.0774209765470397 2.5529700841347243 0.060664407759592295 -0.6025223421180655 -1.515323871078216
Ni 7.246032902291464 0.8864068015477756 3.4046429330141628 -1.2087344743828923 -0.6924214783730591 -0.10703322483211888
Ni 5.144078647080631 6.446771032508401 3.7176563457176974 0.7348246259296183 0.7891772325385699 1.1805086467679797
Ni 4.700285270567587 8.33263566624325 5.173392052816392 -2.39174968962281 1.5635274273666362 -1.1750756486778666
Ni 8.668277637815628 4.744007431786744 8.034220097869598 0.6445953600287156 -0.6178772273075811 -0.28152191220373446
Ni 8.514225842296783 8.429404664150397 12.36600550216356 0.09241058982293764 -0.10792128386402704 -1.1801093544470322
Ni 8.91885743565296 8.7321321997488 5.073965615091242 0.2619691868827876 -1.3155039040306635 -1.7935324026380015
Ni 9.191933244785373 7.626435169926446 2.1752734554354793 -3.783284456566807 0.30830303695232064 0.24170606575837728
Ni 7.512472063674689 6.9245262488999675 0.2956357769490984 0.1513490160303587 -0.3458164605167463 0.12217676534177668
Ni 4.687429082818812 9.259106130593139 7.538782293613332 -1.3373695937555032 1.464756956763942 -1.334847855774914
Ni 7.785056612568685 4.117326210665858 10.401944288252077 3.7797571601398388 1.2807094220592976 0.6054048058721833
Ni 6.673056621196823 8.432574683047354 1.7899530239796604 0.708081039287187 -0.616909464077673 -0.29991764110210284
Ni 0.06091997718821048 7.131383885518143 7.284389204038548 -1.9048650261764224 -1.652424347609361 0.31734277855708576
Ni 4.318919020577973 3.2616435659536007 0.17557548230430312 0.2941185179218225 0.5981458103169247 0.3446355528347677
Ni 5.02106893719311 6.662712349006749 1.178823433576074 -0.6396958658445693 0.556465656969319 -0.2051357228335112
Ni 9.000017334663971 5.341027657380535 0.8473330744713802 0.8753539256366538 -0.7688526620486049 0.909974858144633
Ni 5.7053388349420695 4.489553166408685 2.6579459087417723 -3.162692144320908 -2.2422924912985254 1.3178672620565173
P 4.829968704448704 5.856832369596703 12.552554625906776 -1.170559763085384 -0.4356788299965335 0.7205989692485396
Ni 7.759538887354282 3.242864448160509 2.7002313654900854 0.3761621626881393 0.24301629992936855 0.11100043700998302
P 4.659158446457051 5.030115540828874 8.043621706545576 -1.3452086301839477 -0.2834965194316021 1.3937106915493933
Ni 8.58190852646517 6.42218021340422 5.098072589205887 -1.271176542868198 -0.3649138434678296 -0.08531434509778854
P 3.1182141144578965 9.120459514626178 0.7505232926953858 0.19810324146676203 -0.862951695317559 1.2208896216881877
P 6.514898631609695 2.1181565740175086 10.34940261539416 0.21331234510703262 -2.259563362563831 0.07857934036680016
P 8.836854052081646 1.6627583330044888 13.104400228406694 -0.30095739522052684 -0.9719631269219713 0.9990892937148018
Ni 6.15931890960645 7.112289619647576 6.1092835908705725 2.6677527288908442 -0.8817991670413652 -2.333736860553452
Ni 4.847357463076463 5.790345394310501 10.194462843821722 -1.2550192163820448 -0.9259095270970182 0.08037859835906802
Ni 2.37743075116872 3.1629095270927863 7.307383890820927 -0.07813428240958156 2.723297298925368 -1.1936161306842152
Ni 3.4823955251639993 6.415905059038019 6.3947984800021604 0.1281448099997535 0.3832710058187786 -1.454993706729591
Ni 5.209499680340078 9.106018317428925 10.266309190237227 0.1930119429867837 0.9179689320937029 -0.367413984181864
Ni 0.6235881354310762 2.9797436106518775 0.9553213439366481 -0.6217714201556647 0.5459668143205243 -1.11272331169289
Ni 1.4727240422868375 5.4136044058108945 6.384433815877661 -1.5547825912944706 -0.8554687566769525 -0.333255078911968
Ni 3.5805363441142717 8.634862672542136 12.238157342380681 1.0656893502325389 -1.141967039049356 0.3178148330974978
Ni 3.149497195677878 0.936351283484851 4.058805993397011 0.8703672710553397 0.9296589668371216 -0.40094913982483205
Ni 2.545608595807344 3.1748017324869306 9.626051575319924 -0.02525491791204683 -0.2755332987204674 0.65729249588041
Ni 6.510328984486303 5.096074179632249 7.0721184357366775 0.9960978151866458 0.49322526095243446 -0.3398365887842276
Ni 2.5256245000709643 6.574776766330016 13.054829289632037 0.895604962576206 0.24613299118147933 -0.5860523694875004
Ni 5.252925231603964 0.3907483936372769 0.5503226957608229 -1.5871838904433118 1.0870392766632246 -0.3412581517221026
Ni 1.6028245839175541 8.57095249624235 7.332073888878903 3.1192063052231314 0.47272199879276006 0.6101541476317105
Ni 1.450348528786086 1.4927174070843194 8.315271007174358 -2.103425409785261 -1.389975135766361 0.5837530319303624
Ni 4.529688200981284 4.10278305379648 6.1587460816303325 -0.2147375075893334 -0.9047292934749772 -0.8157045894051371
Ni 4.568590450427289 2.0673065048107464 8.274355517656952 -1.3169303520645448 1.3038624631369933 0.27233047551245354
Ni 6.7661736090296944 4.316119764125104 4.925347343190516 0.17837285291737023 0.8564187792950477 -1.1732622496182117
Ni 6.710151403727894 1.0688617810021441 7.944099797491074 -1.7529570523188005 -0.6804324243319829 1.1059952489404372
Ni 1.53298220851235 0.9025451638328454 5.492089253787806 -1.4895799293448928 0.1692287245242569 1.404538892513149
Ni 1.9791113884231524 0.6981206557540025 11.650726887403241 -1.0849235158718025 0.9997608658605296 -1.4497124037259936
Ni 6.693708089332563 0.2657152477111422 5.7768978404634055 -0.23398375741345512 0.1974838627152083 -0.5099852540195926
Ni 0.31698335157361424 8.738898614353419 9.554992172191996 0.045197679582560865 0.09885480278638459 0.38118481271371124
Ni 0.9837254547782818 9.079990793853899 0.34932588647757973 0.08945099297398143 -0.27938198304259626 -0.01604008418199818
Ni 3.2172818395183906 4.030039462266282 11.689580937731515 1.7544945720092495 0.495017834076483 1.4267964183597688
P 1.8833249109928427 7.740444621483715 5.306314096646624 -0.005689594185609556 0.30947854531766056 0.05596263140854878
Ni 9.16800052901945 4.127939285627897 4.865479404437407 0.32662677496217296 -0.004289885624605515 -0.5639547662575126
P 0.6371691637580443 4.220184981717159 2.627272731742316 -0.05023369934457155 2.8442584466924887 0.9055487040524792
Ni 3.61251460491692 8.013186744416448 2.8007163299931093 -1.333322420269323 -0.49045772550962624 -0.5569330835240409
P 7.164845196097146 8.132896668551579 10.451080508061038 0.607405895462612 -0.46623484840651963 0.32580479328150985
P 0.14586721456558768 3.0620621423006664 6.750829605281084 -0.0489085527752448 -0.5771054447068578 0.3824881049061671
P 5.141705767438463 2.521416346330558 2.076742409012803 0.84508664211168 -1.5218891830005596 0.09556276229867414
Ni 3.4125531497587946 7.663214804380043 9.686774121506657 -0.8178072375704367 1.5077704842109902 -0.428449659237946
