# total energy = -340867.41707770946 ev
CRYSTAL
PRIMVEC
9.27643175315081 0.00000000000000 0.00000000000000

0.00000000000000 9.27643175315081 0.00000000000000

0.00000000000000 0.00000000000000 13.57699554682748

PRIMCOORD
 96 1
Ni 0.5016647763510917 0.6602342408245112 12.788158200641222 0.1951307891019994 0.12289693133725287 0.6495398485181846
Ni 7.819614300225308 0.8764734245375589 8.62879092493083 0.7787097573483427 -0.4022732579528943 0.23486873112156967
Ni 0.34350533014919316 4.137056530352132 9.959554390238992 -0.2328247041083474 -0.6486093662841151 -0.5822396806096295
Ni 1.1890900931367403 1.7286630067405568 3.313180472319639 -0.2579549235170719 -1.1139278735239526 2.209411424299789
Ni 7.095616652320397 6.817824635149199 11.530249972909337 -3.529144278810135 -1.5210895699173999 1.618895876834612
Ni 1.5285982089601782 8.509168558036162 11.118785505720265 -2.4080581969748462 0.5751478067598547 -0.6182101851669676
Ni 9.185680153182796 6.506934310448887 11.03838203584678 1.4396791878597077 -0.02242773287589686 -0.5322456080796899
Ni 9.181858263412058 4.991582845645541 1.3992587800877219 -1.605037630795281 1.1040067577554988 -0.8528583156372989
Ni 3.6683462768421777 1.105490892617578 10.72054459160932 -0.8644845870223178 -0.6934265225988058 0.03550359222324853
Ni 1.1357598885445672 6.257834295852675 2.9481899992141174 0.009836783584763703 -0.6909171259133907 0.5317673828916907
Ni 5.979522798518464 8.185634457225373 13.533101103190187 0.3860151442228191 0.20548179331902028 -0.023367471081346854
Ni 8.309270736022466 8.401895904373978 4.0408803440291665 1.5619508269081357 0.16623287512072663 0.033721046401529016
Ni 3.5141348798791774 3.59699196587975 11.103728002138073 -0.5865370224334027 0.6907834285490039 -0.15128499556164268
Ni 3.468615430595164 2.890257756963538 4.647473619806846 -0.1508661628566692 0.17058703832436425 -1.702243585124333
Ni 1.6242660468379102 5.339875742082787 12.169671612059991 -0.470246540669074 -1.3795801656852822 0.4691743906508178
Ni 1.6326890466239066 3.7463981713348797 1.9120348660684023 3.204694199784307 0.936807919177077 0.21088188128866905
Ni 2.050601561336377 8.235597317189445 0.9233240417392932 0.19312815684967383 1.0218803234673886 0.7659889673475646
Ni 6.763269941601352 4.1644220032251384 1.8284681330594281 0.3282254869078605 -1.2566737212663326 2.057002085325715
Ni 0.23678647944650796 1.888894807735618 7.218603580913723 0.6213808695854653 0.9123027349468612 -0.12349985502857443
Ni 8.084910964189747 -0.6607435169128937 11.109946921803857 1.5304571271752287 3.3228741852618646 -0.643312379551234
Ni 8.246460018455306 1.3869842059502435 5.301165193506837 -0.31838896043341297 -2.208592270832603 -0.8582321783547026
Ni 4.863679408366556 5.661526727302654 11.964916650522124 0.7551563955084349 -1.0324778964775767 -1.755917677609021
Ni 5.71475489114852 4.625868810884394 8.351739166991926 0.7560660518068979 1.8219150675457525 -0.5840967884230263
Ni 4.803568132360766 0.9427730079852403 12.931313946563527 -0.15316755729633622 0.008666674536062494 0.16527848162725728
P 2.9753875686772924 8.838908591508659 12.500814241972623 1.658673413842866 0.7354614881826689 1.6270599007026432
P 7.958389715201636 1.2232459138548446 3.157683361953182 -0.2935392483795848 0.0854164178932916 -0.42162080924157064
P 5.069180194995607 3.038309603422241 0.5448094591756173 0.5402965034086242 0.8862119513970801 0.04394915188744044
P 1.9296461712376909 5.610469248423663 0.6799049137828873 0.09211362740780911 1.5253457740905922 0.9237809107897897
P 5.330450887696695 6.763297770895799 9.721536000691625 0.5990323266869361 -0.7659907671197776 0.14003770478259753
P 1.3231716337829864 2.0476238268305345 10.813872913467197 0.7539153240124823 0.9415104668590689 2.113830150058353
P 8.816311204417593 8.166218886132762 8.875906710832963 -0.32705692052105606 0.03481865034108197 1.0099786869337959
P 5.651257717651665 3.572298105273668 10.888871934359047 0.2759513600944925 0.26040621327104185 -0.22747243865749858
Ni 3.969607665663784 6.7162662632801595 0.44845052715244826 -0.7149942214672526 0.2878224005004656 0.09463510827808218
Ni 4.766369642116444 2.615332157120394 9.11821452229778 -0.23652400733680554 -0.2849677046604899 -0.18818726790463072
Ni 7.2792899956714185 3.1367139885872737 9.21036195442795 0.9105798387184834 0.20135517274515644 -0.29979988457731593
Ni 6.0614800706652465 5.563864456656211 0.29908513799584113 0.05212037484432314 0.08031972009667458 -1.5242651394319038
Ni 7.595607032788919 4.461675973646359 11.280228808666923 -0.30312586362675537 0.5381527175927442 0.0075847543257933905
Ni 4.253086135333677 4.630135969366286 2.0658074878222856 0.30829043854683036 0.27353246624035477 0.5872970405278788
Ni 5.2893006376408795 3.462799108055715 6.058489349155328 1.086948516721631 -0.4243001558459467 0.9917117703038081
Ni 8.159474920445076 8.408138942761617 6.427716368518851 3.358981986728015 0.8900948313912541 0.9301485048790302
Ni 3.398541267177304 4.213113992076124 13.518926715885119 0.24776924123332167 0.9224778757076502 -0.763362071247679
Ni 6.296526291565661 1.4175778769791156 10.863741153830146 0.5222144490959328 2.056999514222554 0.29975257627914825
Ni 2.953764206891876 6.135107107340855 6.76462893881352 -1.2319975586758911 0.20493620522819544 0.4447298844552083
Ni 6.64943885088113 7.822656969751527 8.198210515386029 0.30537120801750633 -0.9530104970788685 0.21223582421340223
Ni 2.95940427723316 1.9303882857562809 6.740692962659549 -1.052139379462246 0.10082966712456828 0.32099168816358264
Ni 1.0821699438708876 0.6734800573381944 9.221495527493097 -1.082167293282904 -1.5038950604159842 -0.4488004549801561
Ni 8.841988366760807 2.689367356781228 1.5273848517222834 -1.673637491351866 -1.6491117382963598 1.3472613989479185
Ni 3.6316116081719727 5.4387717781163865 9.275124433179004 0.11577060470511674 0.2068514199730373 -0.18471807840910767
Ni 6.370338856870918 2.754311653589334 3.979919346899592 -0.9032072004034961 -1.46034262974633 -1.7109832789901755
Ni 1.1181439451595374 0.3452149764713949 5.425733753667908 -0.2430265843420137 0.07227396697406263 0.26772434419900987
Ni 7.677146865518995 6.957416376095975 1.3728923788853675 0.9220040213950251 0.2657433092132391 0.5253265123623534
Ni 7.573213727190467 3.346760226642688 13.257079956788974 -1.4633359080466992 -0.5883457935073674 0.4779261687015188
Ni 7.610718339673709 6.0358956726368564 6.319018854980976 -0.8162836018370587 -0.29125430900015004 -0.5761258544024078
Ni 5.5490314427158935 0.44050062537205303 8.58941803914704 -1.0704132380707694 0.9673132868547858 1.2498322728644669
Ni 5.632231756681314 8.664539508934459 10.701672619401576 -1.1542818518609668 -2.4978228645345046 0.9571702848835126
Ni 0.40181790609054985 6.416878713617993 7.847028010542021 0.3881363043308799 0.577409863321154 0.9716710496028491
P 1.7046648784956533 5.719680676265662 10.049081230475393 0.18816772752060495 1.208247507444145 -0.8788714518716089
P 7.271609110404013 0.9512980485175428 12.853762051727726 0.5592784438277658 -0.6552402413370716 -0.19986881800761705
P 8.65888088573021 4.569625806806755 7.501303757982245 -0.8753169017511311 -1.9410129368518891 0.7420692233071736
P 6.33425353840448 1.8989504594625124 7.352336327736232 0.9657526272358852 1.5437142492954512 -0.9010333326806289
P 1.5103329153713818 7.887258038594785 6.6730111909209935 1.1598089523267832 -0.4697973689467974 -0.5658707523333029
P 3.8713145976765393 3.9808970827778336 7.559223013228749 -2.1770258088802317 0.6399799727438914 -0.4798046166711543
P 5.638001697063351 6.591331284075534 2.1266599507035164 -1.0353701304237073 0.2876668487592078 -0.7649425283609214
P 3.287901268887019 0.7402397517874016 8.534471880190635 0.10648583696908114 -1.379150020126399 0.18709274928887132
Ni 2.2212229655916977 2.647326569303105 8.966057854908126 1.1488655659414022 0.6579131601835444 0.9256423894785607
Ni 3.5053872049912984 2.138300944570749 1.848575725940624 0.643468188402808 -0.42578548214222156 0.4962488782701066
Ni 8.41381611882883 0.1676399591768857 1.1646485514669789 0.3046340727411657 -0.36627755658457567 -0.04005367348777618
Ni 5.103716349404488 6.148752738051429 6.191652523084819 1.073851574328357 0.6148507817764314 0.3223224911598642
Ni 7.510412286054788 5.903678694718567 9.368207857245745 0.47437418968420236 -0.33540092161037716 -1.2921287196398328
Ni 0.6414030849152904 5.605580569032451 5.575229940508417 0.5409909583724877 -0.13359863402547315 -0.7110491207765754
Ni 9.366783925013202 3.8869453847243416 3.636014202553508 -0.7851148895437382 -0.3463291384871068 0.9356102993245499
Ni 9.776616667904522 7.376173046073342 13.361392501165133 -2.208782275356222 -1.2923912292726 -1.402299461659669
Ni 2.303365766368127 7.797545669728738 8.94220258370805 0.19451706677740047 -0.4650243730381862 -0.9404213475599481
Ni 6.365004908768552 1.5550638679793938 1.301256064405876 0.27729193328278695 -0.24129211814941026 0.2908547595688862
Ni 0.6241396459265907 3.1978363956246416 12.990333386583842 0.11585725088165208 0.7498673791953537 -0.31295107724729326
Ni 4.058874765818677 7.0147076169311235 3.635416800366043 -0.8876417418650714 -1.3379064400955796 -0.6023580486260594
Ni 8.54662678836199 2.1853602814808366 11.194218663605493 -0.7388517448111405 -0.7318123214658558 0.09948909393627382
Ni 6.571989924434782 8.716608118845029 2.5933692779427235 -1.4316295780823538 1.089805269444136 -1.2189039587167267
Ni 7.715003982398567 3.4214540529387705 5.559819932529896 0.7329438639671377 3.4352067108197093 2.1605851468257047
Ni 4.774041250952368 1.0775317281297 5.595975751875599 3.085885065363182 -0.21516148250062944 1.7135314993333262
Ni 4.322770688629277 8.27831528416578 7.4479726257469245 -1.0930818833128788 -0.9658724406432011 -1.5966596911442308
Ni 3.1155730012389413 6.927945153276471 11.418565448434135 1.508910768463021 0.35479243876311156 -0.6450211347122247
Ni 5.272102133672557 4.89099849908215 4.269815251868992 -0.46788755351859423 -0.3628268790318138 -1.1124116939897424
Ni 3.313550601935786 8.74638546390345 5.010684873354046 -0.9397490040832719 -0.512981360533439 0.04178736834943126
Ni 6.3761737322733305 7.000895010453866 4.084571408668004 1.5434550820967934 -1.2717331867026165 1.7759907942098123
Ni 1.5561770397572785 3.984208768817042 7.308659177744618 -0.4427030838331666 1.3650835147310039 -1.2566513526688294
Ni 4.086073262925 8.835235124641638 1.733334617635081 1.5821352722758106 0.6856268240487289 1.268095589950029
Ni 2.672818203016671 2.227939101984937 12.883115463867405 -0.1873310905519225 -2.4527748231559308 -0.27106857808089446
P 6.240774938356588 8.177563961835707 5.991080304502355 -3.1752188160330093 -0.37715769383218917 -0.21906698820262271
P 1.4243496719612492 1.71230865803713 1.3192022487516786 0.5116672697077058 -1.985852204653767 -4.398057591027768
P 2.886575013665035 4.788484654770425 3.7972682662979267 0.15879775899892007 1.2991576014621562 -0.018829988222309507
P 8.35464176240276 5.6807660461971 3.9703210232447783 -0.7079925933384387 1.6316326076749899 0.39822762712861093
P 8.220374693126868 5.650506326701593 13.201930643983108 -0.6670493181568576 0.321912143095323 -1.5665728990611796
P 2.151371436529415 8.056951799701869 3.130420857469631 0.8296649082399711 1.8210115818948767 0.6758085524067263
P 1.3289786798909533 2.957753072429298 5.220219052391634 -0.6994907265150146 -0.4384587067345158 1.4747292374853054
P 4.223280960980807 1.038849008848197 3.6338555769475596 0.05727517957238523 -0.7884606660875195 -1.8670147880978682
