# total energy = -340896.68520844576 ev
CRYSTAL
PRIMVEC
9.02924444612051 0.00000000000000 0.00000000000000
0.00000000000000 9.02924444612051 0.00000000000000
0.00000000000000 0.00000000000000 13.21521193691888
PRIMCOORD
 96 1
Ni 6.381599023254391 1.8969629729537731 11.372363947572172 -0.19056553832882023 0.5250953701881538 -0.37052347634512317
Ni 4.634711120500981 0.26742003258716074 5.88415267059603 -0.27218983616953124 -0.11875745524758258 0.5106912789476817
Ni 2.841765042361491 1.6881797560448617 4.766422513559567 -0.1683038987171424 0.25429367261540076 1.0011497757882564
Ni 3.695209217521734 4.269414982176205 5.020816055335221 -0.32470204713563433 -0.2483245995161594 -0.777218517514797
Ni 5.072512090888146 4.723585972554539 2.5367652948249337 -0.292274008513916 -0.008830453807436406 0.42138375353010005
Ni 7.263367937913975 6.136265425251016 2.413401438160082 -0.6410199839726315 -0.18721359113745178 0.23368036724042335
Ni 5.063031384329552 4.853661266538442 11.413581545066766 -0.7122423697537281 -0.5603881319521767 -0.35609264563177384
Ni 5.392490451862845 7.780716550949909 12.475067636175481 1.4106401203148802 0.46484876669227043 0.18991967721470518
Ni 1.7751404082980176 6.465769639006017 0.4255076542161874 -0.07264626271181682 -0.3258158490251034 -0.2238145301899371
Ni 2.6846471615747434 1.6065553871975427 0.3735253916176365 0.4962146825980615 -0.25181435783697276 -0.919002772674856
Ni 0.5725507041666698 0.07547003590414067 4.972858126939683 -0.48024787485616005 -0.3131253980416284 -1.2472344302303038
Ni 8.705916130892192 2.3287865835868518 1.4065350519220743 -0.09997348977186007 -0.2812501465995866 0.29925326804522656
Ni 6.970811392004463 0.7905852848279001 4.798073626674323 -0.033777353560761184 -0.5907639160305568 -0.1824169410797568
Ni 0.5512371728985175 7.341534106178492 2.5662620302398036 0.2156834164423705 0.5222661282694748 -0.06816534412232778
Ni 7.833068109642027 3.892940639356628 3.676061801971112 -0.5668125474212818 -0.48040214104583717 0.32730786018959757
Ni 7.648889583563751 3.797293854046932 12.675701057141739 -0.4727487382656374 -0.12478232128542381 -0.6838962145108675
Ni 8.057869206012791 8.723848210154445 7.0487166151075105 -1.0438601701725896 1.9957951747990916 0.18584653558659606
Ni 6.935407724941372 0.6750904146066802 0.34080431304841086 -1.0201142327059012 -0.2145837556202885 0.09786878472403146
Ni 1.9392288657164167 6.4039464029996465 9.139917595260446 -0.4344513853473357 -0.34595298609461067 -0.3063091464507434
Ni 0.04291238665749652 4.744849842978813 1.3352383327525827 0.03948674524071264 0.21153494149163565 0.3447635937721998
Ni 6.25307675929723 1.9369715546310373 6.860386442481005 0.8385030753568915 0.03835366007753395 1.170623526443784
Ni 3.4506250467987054 4.2179753771625785 0.3832525965467534 -0.18120492304952662 0.8015480953990969 0.07224748461150139
Ni 5.871211957605768 5.684965734573283 4.8714443632690605 0.6935201107538767 -0.49937019750790773 -0.5297678359631586
Ni 5.424697766429039 2.9236151423173484 9.130033281479784 -0.5722638003438402 -0.8683525546181561 -0.2438079425927285
P 0.13670637102831298 5.41935245377886 12.440152451231269 0.728665805417074 0.7383197835670704 0.9949243637038347
P 3.8747376827641284 6.277148724711715 12.683695550081719 0.2197403601205635 -1.3684825131102238 0.6192879916121786
P 2.2049414681985966 8.340403290703218 1.5306781323735994 0.6454903610391592 0.894849058246788 -0.04966599976655963
P 6.451223526371833 7.938665122216076 5.905098711619483 -1.2775104555060257 -0.2363319459306575 -0.5027851367267275
P 4.733337556443378 0.9684586895824943 12.497507114213022 -0.7132762103348813 0.3403127570896977 0.395462405678648
P 4.124567844449579 5.851681702095065 8.100766242954906 -0.6629764336390646 1.54050062745416 0.3923662832518275
P 4.712570294457888 1.050949865886599 3.7242183737421617 0.45202204724124734 0.49415394341429086 0.8218793507572812
P 0.2191686537505249 5.556858815855832 3.719553866115334 -0.04273456275404898 -0.46786724180362005 -0.19639937140177788
Ni 1.6724056661802305 1.21058690584463 2.5904721430927147 -0.5824134871833325 -0.36983544913916305 0.03660865236196921
Ni 1.8690987249158497 6.531710210432121 4.73482557591086 0.6986664308415065 0.15094766682688196 0.5325299720893281
Ni 5.983138470463219 5.642564403145516 9.133112253800244 0.42491002151580365 0.07385313853572442 0.30809709158910165
Ni 8.580870126006515 2.135894836719012 10.274312125653612 -0.07390018972357595 1.6396958442990985 -1.493213155222106
Ni 2.4775704718463794 5.1857659026638006 6.903679863249713 -1.3091381097136356 -0.31206121844317225 0.6391124825372735
Ni 0.6136626595024676 -0.0403860040907399 8.97439709968948 -0.5212536278445603 -0.12583210270617687 0.3023177659031632
Ni 1.3105045237278636 1.0452795004401259 11.297499773963347 1.0384605964235727 -0.4981427528587099 0.4633788670149633
Ni 3.9929575789276184 6.926513919264978 1.7193387753430047 0.4543095577238434 -0.0059215076907575435 -0.2849322234368641
Ni 5.576533539275999 7.813465620176592 8.046914023853228 -0.27766808567528306 0.430810960381271 -0.3164351791411518
Ni 5.702654024238317 2.866947604829984 4.690594016655068 -0.9338231255171402 0.7364220523237253 -0.32244641833223825
Ni 0.669829976853312 7.349741689284931 6.685641670890747 1.1316432885258445 -1.9177241415272779 0.938451368317771
Ni 5.274740076405115 4.359860922745186 6.993872984977132 0.1262347374612342 0.12247218509500844 -0.024790062460486338
Ni 8.006610185885995 7.194709563941074 9.102597922548084 0.5917998134942388 0.13659191232584217 0.7506891037657007
Ni 4.654042732636171 0.23064662915746204 10.26929005995086 -0.3711657379148124 0.6336676573726184 0.36386817581213465
Ni 7.895667860661768 7.0520023571233885 4.5216776222872594 0.591510050167962 1.158304856977431 0.6296641926401801
Ni 7.252126528708785 6.274205191056381 7.013273219369318 0.3095201971888734 -1.4958737327734044 -0.6385581526957004
Ni 2.082766763013522 5.228356848222739 2.6462800965187667 1.8480037942130043 0.5272671810284919 -0.6244363685823374
Ni 2.5221929973821586 5.27257305776315 11.412828506088683 -1.4023843080639913 -0.4190538198453428 -0.11218777244986486
Ni 1.183616552996517 3.364422851070237 3.790929139710596 -0.13643970301869404 -0.3943858847850175 0.4179533876923125
Ni 3.7137011099331625 2.784176521951292 2.7678074048845547 0.13855674936169685 0.22243976132959753 -0.598896315329704
Ni 1.0769992358118772 3.302021743426009 8.258145971827558 -0.23340963007753995 0.6586909188898333 0.2370644532213079
Ni 3.5313103742345064 2.7845467209692942 7.196092844174196 0.38885724165730445 -0.5249776136633668 0.30575250261632503
Ni 4.139818238142402 6.757323938793621 6.089213130062934 -0.06550605212260976 1.0706718910487947 -0.04853522859622609
Ni 0.6254367941238066 7.149771014853342 11.251577037242388 0.21697822399439404 0.7652024668905273 0.06188542465088698
P 0.15134006733261057 5.5864476495629845 8.154222078229992 0.5330825021586884 -0.17999907566688356 -0.7405129345636473
P 8.434289373366317 1.7119176394187112 8.011603358006854 -0.2721507554014797 0.06827538733763079 -0.2102121089151541
P 1.9096219735205806 3.244667983368689 10.431057098649056 -1.4672920644809697 -0.8503895423818323 -0.13986801197395266
P 3.9237213333168617 6.154332943178392 3.878506489352278 -0.41622843458140574 0.020388590958681018 -0.6135911983377175
P 6.749522671682549 4.035638816929972 10.362470055706453 1.6463999957921518 -0.5399761439547281 1.181518576089733
P 6.264083408149539 7.73396312374953 10.306107706677833 -0.41775104187351925 -0.7257041516855889 -0.2831753886467575
P 2.4169210376044052 8.461647983721116 5.9726013423166675 0.25836192914750344 0.021806811462446316 0.10827301077649096
P 6.921629098076217 3.9040104929193284 1.693476310775596 -0.0242303333022744 0.2939945907494485 -0.9596030626947215
Ni 5.385709489362365 2.9202923803996694 0.2862234339283712 0.0555787657065688 -0.7351555269064758 0.08326543298855982
Ni 1.3391994622452066 1.181557885286651 6.9967542168465116 0.8632365735478296 0.12510473762184907 -0.10254613559504276
Ni 6.946992245431539 0.5251245982628486 9.179471103022896 -0.35587795851780646 0.8746648699894292 -0.2250391466256576
Ni 2.7176851666203565 1.475658431978562 9.259859368319862 -0.20060055396731905 0.2779231391088826 -0.08264965378143185
Ni 6.284444354139661 1.9436351369550775 2.4754865222523565 0.6578555674727316 0.3104637920490653 0.0584422032972929
Ni 4.125019306666655 6.8914623927312055 10.185981737033849 -0.29341197877310116 0.051286823199434256 0.45237711658782087
Ni 8.148324175826113 7.215368474994467 0.4325233770695466 -0.42565307032941535 -0.24916535024989991 -0.4329609168447382
Ni 7.594316830763619 3.916958429305065 8.26178024267502 0.5561733225398809 -0.4421808927811095 -0.5601117383623386
Ni 3.0337448355508383 8.24574972227109 12.389855948551277 -0.8147005736206551 1.3517685427896526 -0.2202296410521562
Ni 0.06080022262247702 4.839286709546745 10.327912428838163 0.1174374508845784 -1.0580806846473454 -0.6960896712532657
Ni 8.63772727762505 2.4646496231936674 5.73912855968031 -0.07941289201168904 -0.3392310939897448 0.23284655848521835
Ni 3.814196599454253 2.7058387980442853 11.309155625483811 0.30536375181833864 -0.5749675724282485 0.6472687930958207
Ni 1.0675727047193329 3.2622750098346485 12.470812153317326 0.12403593003770251 0.6241296359751961 0.40577458623793344
Ni 3.1730931634734794 8.331807450090093 8.07108531095547 -0.24501147598252643 0.018638441036793706 -0.22015739305332407
Ni 5.473148691565622 7.976091340011665 3.770154654329633 0.22666202694106127 -0.5560324260866424 -0.46444201817215497
Ni 3.018647939011821 8.601754768168444 3.8710654890904332 0.27855485915561057 -1.6478251582744525 -1.1351358750601355
Ni 3.4193116274223225 4.24791635139905 9.382496370815222 0.7001237321133233 0.39323094524496793 -0.9126493196530023
Ni 7.274970516892824 6.110315377013495 11.524034485247682 -0.5015978012868457 -0.11041551104079049 -0.5435977998677154
Ni 0.5627937027312259 9.097415136296052 0.24094899695113364 -0.023171038799824614 0.08930366876283975 0.1583334177679918
Ni 4.454081087448921 0.45523644121063406 1.6284052555795812 -0.13842485176952288 -0.8017625254027483 -0.5413588832348676
Ni 5.95547286580081 5.334766492787524 0.2983316505903463 -0.3005146512561534 1.607097598648103 0.8566015847298151
Ni 7.820219494944047 8.735107677848317 11.385896076066805 0.7135492614906098 0.255012038838664 0.49668493736626074
Ni 0.1912502302465525 4.83717386637083 5.9356780534309 -0.08993950257462575 0.24378146023016728 0.0008170965846566573
Ni 7.76008472762954 8.93395872598156 2.5518974054168835 0.26918550212556863 -0.531808006321639 -0.12670833466354306
P 8.699713040029568 1.573418060464173 3.606669350433247 -0.018507057665251996 0.42696433294167113 0.0061117693246927
P 1.9136851334742635 3.2848842376658087 1.578450961260135 -0.8637219978246803 -0.34557760503306295 -0.25516296259423155
P 4.622765430237154 1.0611619412368554 8.138271015176269 0.6142635418143937 -0.24483818362945575 -0.18771521336421862
P 8.40901651845441 1.7473935404365342 12.358138921952829 0.4747927652788597 -1.2601984465901395 0.9337213098319531
P 6.126008203679052 7.873654562957149 1.4431405114070204 0.6240321911653833 -0.7294780169057243 0.23917404336514292
P 1.8697939767301466 3.187232960112296 5.94722826279257 -0.969099432220931 0.8496518928848592 0.29690147998359834
P 7.093943197089738 4.091593044114357 5.908032313106042 -0.04334545686517051 0.13799444910032366 0.09061467426477943
P 2.208101703718128 8.325468920562347 10.21560939649167 1.425533749597261 0.28861044361939975 0.4602925147801557
