# total energy = -340874.52143084316 ev
CRYSTAL
PRIMVEC
9.25174982958145 0.00000000000000 0.00000000000000

0.00000000000000 9.25174982958145 0.00000000000000

0.00000000000000 0.00000000000000 13.54087105679536

PRIMCOORD
 96 1
Ni 5.526005273249151 0.03672482003332118 6.096059226192623 -1.833033546056417 -0.7067227254870796 -0.14361616616247525
Ni 3.9837848738400385 1.515889920050294 7.236728713280227 -0.7636654614207106 -0.46267387052813874 -1.784755684886636
Ni 5.186336538470627 0.9351020872220359 9.126776965439245 -0.43475786084416096 -1.9217985687069676 0.2325205426043673
Ni 7.032967254936389 0.934759772486872 7.560545500295786 0.505912883722432 1.271070870528269 0.6260322523145476
Ni 2.6105846878554737 7.189164543416691 1.7057978085445562 0.5100785850643473 0.40262807018915175 0.6138413666753106
Ni 6.315484821782568 8.259527209776442 0.3066177845109755 -3.329079285631312 -0.41343724498951384 1.7677290684216524
Ni 0.39943411201325235 8.985160434327 10.008531614123394 0.1698848700510171 -0.49507979766266996 -0.514640750513733
Ni 8.803409813454197 4.363393411637545 11.341684676793628 -0.2416957813457321 0.9211067063917362 -1.3528959715258764
Ni 5.715027769306788 0.3078029336346103 11.492583488278571 0.06883768759900404 0.61382414028413 -0.4555017782597317
Ni 6.610578626993 6.9588422371490175 6.581107178645314 -0.5302681726383449 0.6738835674698718 0.588079170109542
Ni 8.645408433802086 7.13804862688209 5.301873312638184 1.2556193118598893 -0.7654559776622301 0.13889484942740596
Ni 8.970089334230192 1.1902375859142889 -0.03027172468800275 0.24948211015937033 -0.09501434599437185 0.12637563391447268
Ni 3.452891726599311 8.92316446026395 3.6107811600812747 -0.503217596278456 -1.9640551633833334 -0.08593989449692942
Ni 2.149357215095388 3.6329585290450925 1.1234982398318178 0.08514799472325336 1.2083737486093642 -0.4738622830447904
Ni 7.369619919345632 3.664914072160117 7.476646009057048 -0.18324920717306506 -0.11209495562574243 0.31507892222357353
Ni 2.0424347449794813 5.897314991656334 13.20933629352333 0.5074282919256938 -0.2767550869427105 -0.11030289672232615
Ni 2.0237184555406578 7.269987827913755 6.214663880527216 0.02155252935979514 0.22692299391193177 -0.6332508815501738
Ni 4.469825539024703 6.822998797786565 5.155185897570718 0.609775167025737 1.0661624332142154 0.5208743901282706
Ni 0.7018118196829957 0.6027866430248146 2.076397917757494 -0.8470653631046056 -1.194549441131762 0.7440546291683185
Ni 6.412267374337946 5.768179070753174 3.6690616315053592 -0.3819517727867228 -0.13306255901634503 -1.2626253108640773
Ni 9.07018401314202 2.8225237676698893 1.793122297484853 0.19114352231947723 0.9489052166612433 0.3038773970807992
Ni 2.687161419286586 3.4339626469197104 3.3848793397720143 0.61567173501583 -0.9766918998562082 -0.2970377484511465
Ni 8.414697554051253 8.23945091314656 8.03371698178821 -0.3559908299465869 -0.20711367249548848 -0.205683110696549
Ni 4.62276621164615 3.131782001516426 1.8761687774105618 -0.13961938629825632 -0.3608728406292366 -0.07157514113482513
P 7.9637672785948785 8.946922953234239 1.2567798697303008 1.149515540820575 0.657226675639481 1.1527420181776729
P 1.0034355097604186 6.992916430922218 8.283979583966659 0.17293599817251507 0.4256222170914799 0.26028177187803564
P 7.333362312667061 0.23228830305746606 9.931091694454691 0.8894875368245584 0.9949248779244673 -0.899452104236438
P 0.9933603544470827 2.074769609828066 3.584674573062752 -0.059984093863116046 -1.7455484185595551 0.6441539016159228
P 3.2077943762219974 9.027903517474487 5.746935203323897 0.13343202654062183 0.7353205917294304 0.8711843676399964
P 5.596642381437691 7.395265769234123 11.972444909906047 -0.9268214973883264 -0.11434235689902243 -1.0091757314165264
P 5.310596787335103 7.368343177900966 2.5964618920925653 -1.041016272965891 0.5640822929743123 -0.5158903066501179
P 4.910671407418143 7.228808290448503 8.247026245718242 0.9151445752710304 0.9222274502597408 -0.42976812093905337
Ni 6.829271484014703 1.725386537970567 1.2956122383222792 -0.13118488237765794 0.759627029685279 -1.3797845683866041
Ni 6.035332592174557 2.400486706211264 5.728587133519115 0.22656509635188077 0.3100670708312789 -0.22161366588387638
Ni 4.020671599491343 5.688974842435939 11.643063195506677 -0.1943139496276589 0.25758597021342733 1.3575710084040424
Ni 5.210039520943323 5.2021847855337535 7.407425343732118 0.5464596947965427 -1.1225618950498666 -3.0540216409956824
Ni 4.734592109049539 3.921511347289016 4.184534887689396 1.274661673203321 0.8804128282167998 0.9530657757968362
Ni 8.809044128960002 6.401979428783832 9.868464751068988 -0.1899351038336729 -0.36978891217194376 0.11963317298431654
Ni 7.7384316653610785 8.45826404291305 12.21320226454646 2.722481745002608 0.5007133417993634 -1.8740189873298438
Ni 5.194505833366565 0.3269827357283446 2.2487321078884124 0.30632920105540146 -0.5743790469146302 0.17139873559238222
Ni 7.68889779800791 0.7992179401613478 3.272855454927206 0.7232155809357802 -0.2285708139279999 0.941116830965076
Ni 1.4631549473358638 2.2417729418400274 10.616922967055297 1.1930463742236743 2.148164918784481 0.4559990296111244
Ni 0.6608487731583621 4.010291136441239 4.140392014827578 -0.9588019069496648 1.0989319143357525 1.6919321758959958
Ni 3.3747421977363645 7.717624480512876 12.28790644185873 1.7706102466241895 1.4453387001383302 2.964127132726379
Ni 3.2678012241212597 3.7885914607998545 7.6340312221858655 0.11922642446420112 0.4836504727798057 0.5233457344868987
Ni 0.8728729690690884 0.2822690299162672 6.629961967577914 -0.18187572386430612 0.46347734026604054 0.9713792293940432
Ni 0.9923981724887844 8.93196287413262 4.398318766373856 -0.01533688746738649 0.0219847318012073 -0.7518723254405245
Ni 1.2088521061075228 5.081319928772119 6.322747445217801 0.044757506721348726 -1.7440834039782545 0.03494591994756562
Ni 2.0014494942558096 2.5917018669238683 5.842141257747602 -0.5649695806752723 -0.124348833292431 -0.5690206108161942
Ni 4.105547150312779 3.6390276767820513 13.106479967356192 -0.4924485306874099 0.19347088490107325 -0.46578824778740424
Ni 6.597006310331234 7.459916995432094 9.83588564003099 -0.5346117943190212 -0.3187221754031156 0.18770184362777997
Ni 5.860733573741798 4.961787323952744 0.7239392291989786 0.06385051879705778 -0.005068672772159013 0.42947038719297653
Ni 7.147624187717079 6.117377107618692 12.646658760535159 0.18820937939181778 -0.39514950242391944 -0.45881618734494534
Ni 7.666351284235091 3.6652933938936774 3.654748249700711 -1.573256481728942 -0.9617000544330665 1.4297220766469956
Ni 1.865411768151778 2.067858552877596 8.28880067068271 0.3797758481813266 -1.3497394281747659 0.8262391703878739
Ni 6.466695417228997 2.59755822442005 10.14414375974587 1.0856611653687753 -0.8139482688356627 -0.16153161299031538
P 7.404341735590764 5.196929791761508 5.4489955599368045 0.4524881882443884 -0.9607901410242872 1.5313708972387496
P 3.300681942196187 5.153862897378057 5.966527330406625 0.9371190226595926 0.1373043650118345 -0.3991902481521964
P 9.226205518379942 6.798268871108378 11.977590733033026 1.0823418711875552 0.04026707505016291 0.4224214507659951
P 2.7406920424665326 9.117303173849844 0.3565605791964206 -0.2144194621282823 0.35403422044084837 0.5846547178090253
P 7.683763076980453 8.966592172881763 5.900177482982272 1.106668620858378 1.0142243495840275 0.1084236774217423
P 5.2214376764493196 2.9395954070959243 8.246931877872331 0.897966520829847 0.44498853743323363 -0.6300714553809278
P 1.2125713094463302 6.71595605492587 3.8143955156064893 -1.6695234691834928 2.715098822274976 1.148225361254242
P 2.9688679428272327 4.3345834633861875 10.498412680566613 -0.7168703554440429 -0.7409227684075562 -1.1248082678818823
Ni 3.0263675665851593 6.1619705406859815 8.291739026355359 -0.5669621856252687 0.14236995246019998 0.026276931418657973
Ni 5.7878205351519 4.333815568169469 11.525176476940969 1.7813173486290486 -0.3179629286395879 0.621338446383304
Ni 8.438409788273548 7.4943427556900595 2.941117319904963 0.7321699619155906 0.1875198095239609 -1.2229506179822744
Ni 7.750412681091813 3.5121306792818543 13.328184268872377 -1.8422172694382144 -0.30387816841174764 0.21336762382500027
Ni 6.4751330128633064 8.119067147364076 4.230655784615484 0.13092700073058097 0.22632932619199084 -0.024965668806402164
Ni 0.6725420594765671 5.402059583871043 2.3290974307803243 0.4581888381735915 -0.03403343543562526 -0.04287134544222939
Ni 0.6456120667437314 8.095947025116118 0.576764246927643 -0.514202891645366 -1.5082042293142992 -0.7616504878732108
Ni 4.076413390825455 8.071642678919485 10.186133750475996 0.47061086598702817 -0.17216646699634222 -1.0713935997061677
Ni 2.971097614480597 5.721596511522094 3.811375744537368 0.6266053512091984 -0.8279106445530258 -0.7937895344996007
Ni 5.004863470085794 5.426447195814068 9.56244092888227 0.1991044290377668 -0.37839722266624515 1.3070722283235423
Ni 8.640884328248163 5.751655445969319 7.455386413653454 -1.4116747322269818 0.0492664503352958 0.41665035261017275
Ni 8.819544864754892 1.7600158367197096 9.048605232377259 -0.41067588019429274 0.512703167171388 -1.2296254588992885
Ni 8.540512096848364 1.8732017413141553 5.504593949152133 0.26187071363171033 -0.1499310526369095 -0.46808707112390996
Ni 9.124093958055527 5.387756378990954 0.27157123185491705 -0.10813468542641377 0.4921135159454944 -1.6296027217291549
Ni 1.2345442147440093 4.50537076098415 9.157135656573477 -0.07862587733401943 0.002018573091925556 -0.15027969422557988
Ni 2.670156703523582 8.80158721878319 8.181678362775463 0.2194667947442027 -0.3283018486717507 0.2945710320782088
Ni 1.5071192614304203 8.882863839010605 12.035951694678621 -0.9739757864766259 1.1723744476966196 -0.21372192184062547
Ni 2.8027157717783813 1.334093040429495 2.02502387740908 1.4586120202084687 0.6065432903520005 -0.6468525314940086
Ni 8.747519994126499 1.7064297030421693 11.324216448375713 -2.4962326372292494 -0.34108280248650286 0.9256243917564317
Ni 2.0182599232772347 6.704530144171078 10.797896440961782 -1.9463232933212091 -0.7480614363348665 -1.369356431074745
Ni 3.9993093096671988 2.261488420235545 10.7895828187721 0.010175140760788928 0.8204428754210709 0.6685611268156938
Ni 3.9274139635331924 1.71030618612416 4.708025710075946 0.4764318435441795 -0.5409639617892942 -0.4903263421380846
Ni 4.707262440734026 1.2893145723702246 13.468318669698856 -1.3805047343820804 -0.9179046545146707 1.2976925868808555
Ni 2.2084296362851488 1.9745546581714506 12.996622842267477 0.008851022632726692 -0.9186289342752051 -0.1711133431414795
P 7.164490127236097 4.6438787042311205 9.637972212608691 0.7234752623550702 1.1181989900954805 -0.2265771805367388
P 3.752065553382913 5.3703353344959925 1.0277278286825728 -0.7614941648010046 -0.6998080006451174 -0.07166512974547012
P 5.89186571114251 2.0564789008707978 3.379530903328819 -0.3578368820163902 0.9718697958772167 0.9837688613076478
P 0.30530681159279394 2.8475312468360476 7.18993151345845 -1.1139726107189587 1.006839369973866 -0.12800391354651505
P 7.7836172104027055 4.7166067078290395 1.8201235286896011 -0.6225581777230182 0.6226206555298374 0.24375677763981893
P 2.6513386448391696 0.5845495942152208 10.255164754934144 0.5389176207832267 -1.5913912436564401 -0.6982684240721394
P 6.117460373365082 2.3997095592449464 12.470546155867998 0.06197952702659003 -0.02241076359503237 -0.4981352966595421
P 0.5540909841853178 3.441956158573266 12.954131406709083 2.2631672778650054 -1.3767542662007128 0.4886039601303392
