# total energy = -381168.5815271116 ev
CRYSTAL
PRIMVEC
9.18290122115487 0.00000000000000 0.00000000000000
0.00000000000000 9.18290122115487 0.00000000000000
0.00000000000000 0.00000000000000 13.44010415903744
PRIMCOORD
 96 1
Ni 1.3437247201846312 7.090457628147535 6.007753195680036 1.6501085549919903 -0.33983144657790504 -1.0189495229738386
Ni 7.654085725623035 7.427387448677261 6.082883100197872 -1.153740120424884 -0.4289122006966613 2.541445743430778
Ni 3.6728665465000554 3.1051520580802996 1.4015476111909158 -0.25710928768732494 -0.2999050426966125 -0.8252433821335077
Ni 1.3029434568510476 0.9469040193437969 2.947750706938225 0.28976461182850094 -0.43464087565032244 -0.3730048480060802
Ni 9.222020156582891 7.464247613284558 9.583788806023001 -0.7379850259354709 -1.4901831101465304 0.15396639904854775
Ni 2.669625429531504 2.5694950770457137 12.177352266585336 -0.9317328186470147 1.015322981964845 0.5303818153980736
Ni 3.373549888459489 0.027203425917452808 10.706991668473336 1.4465489183963476 -0.23280516372432167 0.34846675365539986
Ni 6.984156366190867 6.799561690322437 0.19054886887574693 -0.05240293908174846 0.09372185243519342 -0.1756953060852071
Ni 7.253095987728958 4.37772766132987 8.953756396558278 0.4213279605915002 1.062142513421545 -1.780072934698986
Ni 2.039292739204136 5.633581201861482 4.146917281317045 0.17106963438773765 -0.03643458867795016 0.2727279680611883
Ni 4.437425700720014 4.436911458264107 10.94060742474115 -0.7246728822075972 0.005243764897442582 0.34286637674948695
Ni 4.78826761626221 7.997195638524636 8.767248922411895 0.0805655175588935 -2.0132485943888487 0.14906227687871101
Ni 5.8950092103829395 4.58607850208098 1.1568168715547222 0.26996943147944474 0.017352118125202376 1.466636433174842
Ni 9.162230288182764 5.998445407228128 7.656840595922533 -0.622643795458289 -0.7540261385587337 -0.05443462479979657
Ni 8.69062404161153 6.380793856095594 4.506090842935026 1.1020226374459343 -2.0603514614139224 -1.2261354434681595
Ni 6.649366161593752 2.2212151908820514 9.841112976088302 0.5775466460093344 -0.6873373789819324 -0.03364185642416142
Ni 3.0096223389946726 4.643958327073453 8.04325706993226 -0.9382171408197777 -2.180324020015529 1.6133114407682991
Ni 7.198512824194885 6.028354115779688 2.44925692624388 0.26058619049233184 -1.2800381070238858 -0.00014038223260620986
Ni 3.4088856915010632 4.122222623952336 5.784446164072946 -0.9911137317084933 1.7770313196591847 -2.0410653594908013
Ni 0.6811141328481332 1.2252377486031791 7.38818656260549 0.2230246872987901 2.4903108724281755 1.202567426340232
Ni 0.9245436554128633 5.25324380831265 2.1718534248556285 -0.7465300872920047 2.3085855580988053 0.34933630074454675
Ni 8.24384835933978 1.6031600391894505 3.223944820264996 -0.9648694532999834 -1.4424084138654125 -2.0210855739347644
Ni 0.7554754285524099 3.645235197396081 8.277854478316796 1.2146881208631661 1.398617384822391 -1.0489483833287743
Ni 1.9696955325377927 7.38972837168311 8.462360080045542 0.18555960047379652 0.12889891455695865 -0.132218722958811
P 7.221488442492706 3.3745875562723002 2.839464101785717 -0.6389304484334545 1.752782474414149 -1.243977870966219
Ni 1.7421248799971787 0.7481043139210504 5.332670392207605 -0.43940204448439163 0.5363316052236053 0.34026493457089785
P 4.508473805744093 4.601303751936211 13.037384205904733 -0.9844085517741756 -0.22846411314680656 0.8308805258146271
Ni 8.756428710165563 8.74456440207572 4.536410945451312 0.9820433939761086 0.9983956100818868 -0.180301951619283
P 2.0953176181949473 1.205999571011678 0.8039841030760881 -0.3507838318243507 0.5553868220828435 0.3390125502210355
P 3.9207222273459807 4.585986673070996 3.3571501455665715 -0.1718167969664073 0.4653136221438309 0.7962670495058157
P 1.4058194967353388 7.859452123549686 3.8160490937363165 1.0660325925045704 -0.1903948170789108 -0.017609485551647094
Ni 3.0937377121393754 0.1188249023381906 7.4282644157226025 -0.3513649011388013 -0.47388028076691935 -0.6288684362117621
Ni 7.869479851439864 2.8185353521204237 7.421276228062873 1.5338245009855647 -1.0462168433302241 0.6554014495052841
Ni 6.800966674175182 4.339269671948864 11.11161967174295 -0.9852320761167355 -1.2653038861375048 0.23502891084851782
Ni 5.247476946485698 8.275015125328112 6.197567432475916 0.4649516108187219 0.012606890130733127 0.7679262935795936
Ni 2.706549874445789 2.4856368251289642 7.138388698198418 -0.5472474808051607 -0.715862997225451 0.7757581309191866
Ni 4.0613767219374015 0.9273811718213472 13.31079681851911 -0.3085454919804299 1.0648246882393984 -0.10525247878261228
Ni 8.083808760740885 4.398747321715048 5.872774652195682 1.4161875324956708 3.008747342538915 0.5190522493178674
Ni 2.1244182314586553 8.555460921817112 12.624007652854008 0.4823597789928402 -0.1567035954740527 0.9335698718557536
Ni 1.6968623609764102 4.496021791990358 0.2756578319084691 1.8339560578706866 1.1905449479580592 -3.3222455505389297
Ni 2.7146583760273146 2.7125463087976986 3.8371633380017767 -1.9436349478557688 0.3282360284308218 0.3305860167202371
Ni 1.11305943000758 0.9297503602789164 11.312897842145146 -0.25138086984398 0.6675347424337084 -0.06522323077486832
Ni 4.174960024385745 6.3719690882362 5.014825394822708 0.5552929768174565 -0.42317838353667764 -1.7365618987902285
Ni 5.199514654571421 5.545875314426432 9.034679793315961 -0.027061632103482426 -0.0005162775147862077 -1.0630951071428014
Ni 5.9557541004868915 1.645575858900737 1.8349777834417924 0.3849784754281886 -1.1922976689831077 -0.8842067480415933
Ni 3.5923784192496933 6.404862239612218 7.1648923870597985 1.2097647154196198 2.477402906117256 -0.703482107062595
Ni 3.316698548378828 8.530106932160722 4.919776859749394 0.5626519882856891 -0.5974109890334292 -0.8751366674195251
Ni 6.514873393572211 7.439720084718019 4.124754349757576 -0.8442955136689524 -1.7688366996635343 0.32663937336766324
Ni 5.638393041984606 0.30347375732251053 4.066989311027581 -0.8485257497002161 1.8919573169758188 1.3637534830656708
Ni 4.813695069126585 3.1757134693514675 8.681782744530338 -0.40075553575678724 1.310948166339181 1.0763614852344043
Ni 8.374080261298097 4.434725927826505 0.7210175108462764 -2.347529286351854 2.3328642281405116 1.0833440871998246
Ni 3.262216396755736 6.324364929460856 12.354278301830062 1.5158049244796927 -0.21600660410974415 1.0223984007543876
Ni 8.959728955367591 8.799138382708795 0.7184196681538488 -0.5613538382995558 1.4119063886218135 -2.641925226304779
Ni 7.046747019395484 9.048509242219446 8.00855488705957 -1.0618090413415262 -1.212996592093356 1.2440066673216252
Ni 0.7091651405277318 3.0286401269622143 1.4215599073365763 0.6972003878189412 -3.899884756262071 1.7670652095854082
Ni 7.3816474188045795 0.6378957275895929 5.929142053393732 -0.016562532344371474 0.2962692457162382 -0.7478858299889507
P 4.546215528847229 8.16467338693218 12.475735941884473 -0.07897220492984464 -0.33376929954422513 -2.825122497193986
Ni 5.3782690054049125 3.5501829891623666 6.535304430003395 0.9955044045770208 0.35879461794396916 -0.22719964461208614
P 6.190193562974257 1.7703255689630502 7.224404931849776 -3.1045679864846663 -1.655974012633832 0.8866109866077119
Ni 2.540752596920941 2.2168808616108397 9.572606787477335 0.22183272387321798 1.0873925462375853 0.3934217210995353
P 1.8052205927567042 0.2172132585045978 9.327767689609361 -1.3100040572583567 -0.6146931731526446 -1.3927208168322982
P 1.1510307256356747 3.838636275321909 6.13777297262529 0.01134319292696111 0.047752841904246786 -0.5676460990661708
P 6.7373567189597505 6.71426172294895 8.185265124130835 0.9109418500435926 0.6469697737981631 -0.5418193678110539
Ni 4.7728219767830184 0.9936449854252966 8.86313034660576 0.46349996597385984 0.2889927666594829 -0.19027731766444006
Ni 3.8630903406804613 0.8477883774183219 2.6096647591728086 -2.1395825764321086 -1.2870255940853126 -1.1170947012877084
Ni 6.039887839433591 4.823695248313767 4.246360752808161 -0.562115913276561 0.2062526100467738 -1.4731019862945274
Ni 8.737796604039952 0.34393178254095286 9.511762722042599 -0.17109843074314401 2.041290845238046 0.5203660830332845
Ni 1.940282700640142 8.149585880591923 1.461718569982473 1.302968233457498 -0.12510036674647487 2.1496970391582915
Ni 6.410867856865124 9.065561889373345 10.461185611130238 -0.40730542106016304 0.069363478195487 0.4239746541857279
Ni 8.887799291847672 2.7393328310098273 9.915047266896156 0.12745601146284502 -0.5993532003614646 1.3988863222130619
Ni 5.993716213213987 5.711387922020332 6.31741347340512 0.04782226168960151 1.3440490626582078 1.700862131395774
Ni 0.013042474287928107 5.186787153787735 10.098894454623323 0.07075727321922008 -0.45567558483343457 0.049068218281560654
Ni 4.207081812077904 1.6264019616162237 5.63974935646206 0.6508621668740339 -0.892362030158876 -0.3428836031406675
Ni 6.98128211817839 2.828149849465675 4.945232779606863 -2.164242026852002 -2.3144078212075363 -0.9152643886783463
Ni 6.4346515704508 0.6306540918623098 13.08683045462034 0.27584131687918945 -2.1823076261044605 -1.8168985881677677
Ni 9.100199791939046 3.745879792337777 12.224567070358349 0.6375384531819343 -1.1920184471797923 -1.7648031530241088
Ni 3.1363371898706283 6.047959609411123 9.934683064100888 -1.0508324877253643 0.7531205960253288 0.46339172253076966
Ni 3.4833773843995157 5.5527441243731825 1.5269300231320138 0.06741586755081291 0.8426677482575423 -0.5253185419425533
Ni 9.10199045763372 2.1376599746982468 5.178176347521601 1.8971028657325004 -0.2133498832131874 2.2162749841888414
Ni 4.058181072389982 7.605544910945862 2.7806770061746082 -0.6104935332490002 -0.7957659414996812 2.1812575875733917
Ni 4.889931513214721 2.6090917461505128 3.442736619451207 1.5370934015448237 2.244304893742864 2.268382760627674
Ni 5.584048633876489 6.762178100358236 11.105356014971989 0.10606571871252701 0.22868085714330294 0.5360377281322705
Ni 8.134792227083613 7.910435589892415 11.716074947057024 0.2824716777115135 0.39711742478356765 0.18476178716284955
Ni 8.778164636828611 7.624939197854335 2.4723069260397885 0.2900320065572747 -0.6141511846062455 0.6945079285884427
Ni 4.656823571372114 2.204750249392046 11.052442302839413 0.45789573241320486 -1.794421490111174 -0.3736568797677823
Ni 7.763582637127122 2.0796607719927946 0.5876119983029374 3.34583927869847 0.9655641653741629 -0.3239165751198615
Ni 4.99051182784943 8.225032595194202 0.9753884599505167 1.8153088750831445 0.05890680163853725 1.3750766213879737
Ni 1.198295117074079 6.648080555453986 11.608714896615249 -1.8658647336538254 -0.32012136974348737 -0.36620505147542737
P 1.9191528454429845 4.283400902275024 10.771114029564474 0.03223931964967996 -0.34654845358676445 -0.05953055126546522
Ni 5.934660976893728 2.913330439126184 12.970721854397457 -0.8223547477318031 0.2243410921173685 -0.611191073536657
P 0.9403841596349825 6.641634158953158 0.372997500780867 0.08606047923519372 0.05602382366378739 -0.3998556496503372
Ni 0.11958891970125166 8.426643186612539 7.2152661087762375 -0.6932450027156191 -0.6692170152321378 1.089912741556278
P 8.267026001459566 1.4567570485730754 11.660836124391672 -1.8827627949607446 -0.3816774360794136 0.5915591582383425
P 6.773436336982188 8.799423052639744 2.506686789087436 1.3613831830612813 -0.36616339960421457 -2.1721232293722914
P 7.985138489513829 5.701020426793217 11.985871333258258 0.8329492354181978 1.8260483729878358 0.7851112899993123
Ni 0.16293129412326945 3.954010243464927 3.8428080672454503 -0.36095614437166224 -0.06441076217590198 -0.33420741552290834
