# total energy = -340889.95397739945 ev
CRYSTAL
PRIMVEC
9.09477445941998 0.00000000000000 0.00000000000000
0.00000000000000 9.09477445941998 0.00000000000000
0.00000000000000 0.00000000000000 13.31112173525138
PRIMCOORD
 96 1
Ni 6.147867457990928 2.1104242266640023 11.383378063190355 1.3869834001278887 -0.26129427230295 0.7954309267577656
Ni 4.682799333081093 0.5499328185171583 6.168120611262484 -0.9395451156025818 -1.584743142212303 -0.4129541347055082
Ni 2.817752121669947 1.670891965984238 4.862232867070277 0.09064218506860519 -1.090877162352076 -1.8099311557109992
Ni 3.627550840651204 4.279145957693119 5.0624324996112335 -0.9420539980673646 0.6135860561313949 0.1483135716381446
Ni 5.041615470322417 4.678070050355685 3.049497888944264 -0.5369795232202493 -1.4986371544511545 -1.5392857812104523
Ni 7.066612480371517 5.9764218644204465 2.603389196843842 0.2764686660505432 0.23198935269124563 1.137592049910112
Ni 4.938926371759778 4.756867176380546 11.312230551973842 1.494999300588251 -0.9004170392528686 0.6064563870651491
Ni 6.28574423898549 7.623822027943672 12.597459515953044 -2.144260184413436 1.1188710764618408 -0.25001689961691775
Ni 1.764095214772647 6.734307610715888 0.2924570247842845 1.2525548140019525 -0.6713944824994308 0.17762286212522313
Ni 2.759509185951663 1.692646666521111 0.5449516105388785 0.7572330755318056 -0.7012555317249213 -0.6295466932257093
Ni 0.5379349920337791 9.244383512000212 4.6246164228743245 -0.0073214733620777135 -0.6340389246691079 0.6626090229973169
Ni 8.96573781172901 2.31664823781517 1.411311641438558 -1.6653945346167836 0.7181471652739374 -0.5225420076386806
Ni 6.893939092247323 0.6604488799903462 4.893727161589147 -0.31692137474895093 0.05335450436174037 -0.03497111675854623
Ni 0.9037450108440233 7.563532767969202 2.398318403095716 -0.07474402578110999 -0.6604806638004044 0.8359692531914441
Ni 7.491502154151462 3.770866296779985 3.8984550688918924 -0.8364112258248692 0.669383622716989 -0.3716110529823471
Ni 7.856020714986691 3.7432818458066004 12.606644328692251 -0.32351496880606867 -0.16184734445852128 0.2052164554727756
Ni 7.8870793698083554 -0.3034917146510855 6.984572157769963 0.43611437487205534 0.6999496684293042 0.329260098819962
Ni 6.96130408676096 0.7046149237809658 0.45069063947938337 -1.2442604352036442 -0.19152918779367015 -0.3490892177307472
Ni 1.8527692658740313 6.6954820184951895 9.18568583755833 1.0040368675280642 -0.09688585198547184 -0.053104593134463376
Ni -0.38918449868056887 4.978370408644568 1.360490041689375 1.2492491466674873 -1.3304093603875864 0.16443387423877487
Ni 6.35406418481868 1.9838795346614728 6.985064185068894 0.5987975849683107 0.4884638350080491 0.560168559742203
Ni 3.23117328484078 4.496874858551288 0.6715545090980283 1.7471512442703006 -0.1345892800735166 -1.9643346422969654
Ni 6.070452737685802 5.711800306384972 4.806207237368251 -0.40025725596413003 1.6092287860584928 1.0301009116049678
Ni 5.458547216439418 3.0291965333680064 9.269425973508689 0.007038137793704009 0.240091927193722 0.16312081185430619
P 0.35504089635802355 5.367408481456139 12.5891932754355 0.044367213261465525 0.5653339059932263 -0.6575300658125127
P 3.946304496343646 6.254558257321219 12.844820101518229 0.14219948832060672 -0.06083770011266297 -0.8014041136220649
P 2.4617735540638663 8.763597354315742 1.27824599613965 0.7048856722783409 -0.43326816367251186 0.9297828940094955
P 6.10213893194603 7.926032288871661 5.9296920037061875 0.3961450335679694 -1.1163668219827483 0.10797887657483983
P 4.6491577623093985 1.1170383901922278 12.71413092078884 1.1117030979584916 0.23470212363671836 -0.5120876450745762
P 3.968268376693374 6.0481887297784995 8.604055911051578 -0.10695634884759644 0.22227906738201716 -0.20997916696874158
P 4.674686794252125 0.8562866586945623 3.702195292652178 -1.6135762643939113 -0.08060459832694505 0.9756632014813778
P 9.164622339881324 5.846894086391122 3.5783890372431495 0.12420742261856028 0.11544536015521409 -1.4446018219723056
Ni 1.4054064043739294 1.1691878270143137 2.6185110783583316 0.9032907612562379 0.03891724589048781 0.5196996530938792
Ni 1.8840734796064378 6.504246195673773 4.782100628152935 0.598686513311743 0.2835533408114665 0.23654097661767
Ni 6.289254821931658 5.832588006146765 9.382996060249553 -0.6526333998418438 -0.7141326447979056 -0.5154601610912348
Ni 8.66972109221641 2.366496696695856 10.429263462888404 -0.2992573818102846 0.6167701102863313 -0.06433208641916663
Ni 2.239342654803707 5.18926003909984 7.201662605460201 0.31119758489129634 -0.5538886402707622 -0.9673893915083597
Ni 0.5480911266865911 8.983390768979039 9.143303279041657 0.010287240858620993 0.5444992286360623 -0.6810960260579109
Ni 1.211769561091922 0.9836362382378581 11.511351544262427 2.041983757540012 0.04050670186479476 -0.13448592172643292
Ni 3.973570630210513 7.212001545079898 1.84513420270484 -0.1286906552008945 -1.4793595371684651 -0.4068791321560218
Ni 5.876815894403794 7.841287180342154 8.15121162897724 -1.1670936589136545 0.4076574050829431 -0.02615711801134205
Ni 5.2255118101449805 2.6129741796598163 4.823285404871654 0.2565161341880163 0.6222882118910832 -0.03710744637525868
Ni 0.5615659445442127 7.2231881176803805 6.900511885758192 1.203401235095437 0.8087392138308975 -0.4383784883158837
Ni 4.9545511943025655 4.547432709840785 7.4172369542459675 0.3438896758076787 -0.30910779224180307 -0.40061258242101977
Ni 8.484460536223056 6.9920353297016336 9.313658409152955 -0.8605968219321372 0.11878265205856316 -0.44754292842397114
Ni 4.696159556780367 9.39444729078717 10.1882928658672 -0.4175173285961584 -0.1427856998413799 0.41376608908384227
Ni 7.936527658612276 7.365093883766011 4.784483459064583 0.9702214616405164 0.1877589221179605 -0.7920003038096619
Ni 7.453813408739756 6.2279560419908035 6.843327581788442 -0.7738974235613639 -1.0680995023359283 1.3366486564290787
Ni 2.333173443030679 5.241609560960308 2.5786304922988887 -0.2897525276436429 1.9463628883098931 1.873732566437676
Ni 2.5794690305052015 5.0853886198558484 11.304017970625681 -0.45054314870287565 0.41765102596054526 1.3240453658427715
Ni 0.8867941701832274 3.594955168943782 3.6670412608858007 -0.4004881410280135 -0.5773476426246508 1.1295912910928223
Ni 3.821387768971594 2.6152387785033286 2.5666508553644536 -0.5437147850615539 0.19104376351681937 0.2732514446648262
Ni 1.0649617115659173 3.2587577358141644 8.386166032685257 -0.5096756931989739 -0.12902207039838423 -0.9595259295998829
Ni 3.457151146144995 2.552139233217031 6.961424137783989 1.0544042642370228 1.18056906769227 1.31750447940046
Ni 4.087209837237364 6.624597346260914 6.271534563350536 0.18060508468199865 1.2247575892840261 0.16860548911796125
Ni 1.0424521447478736 7.342120483449899 11.386041013155738 -0.3891590891684395 -0.3835389147681846 0.12869142653184287
P 0.25288202314709846 5.396111589689571 8.053348217749411 -0.8051664088779746 -0.2742875992388244 0.048381990847813444
P 8.714030833443685 1.559117187724134 7.949454971046687 -0.7796158141023799 0.5343654826361701 0.20168247417758817
P 1.8177180050591866 2.987242338728962 10.669303664481127 -1.2391516532221691 1.1985037977938198 -0.8834122771647559
P 3.9784454293274716 6.224163521036005 4.0014433855346585 -0.8085353253502074 0.9895209333000764 -0.3415232324580312
P 7.072114818927038 4.0951313858024205 10.533196726598804 -0.14974156233392275 -0.07381097244387932 -0.2033691178513917
P 6.554103749328931 8.079306523047212 10.302701490814378 -0.3476979938101754 -1.1226732238167505 0.1805230664911536
P 2.4561438886657374 8.450709828157697 5.935455362289054 -0.6637647338683149 -0.4341685639995942 -0.6771491255950209
P 6.681221412123192 3.8005425458819144 1.8029644619108105 0.6334761101871025 0.5758756860648147 -1.1477926445921973
Ni 5.26481033063822 3.013753606314658 0.30434935188378914 -0.10897106528478008 -0.26412042889783544 0.22413566097478174
Ni 1.508277398426007 1.1140098302930728 6.847014603359365 -1.556950288369751 0.2787386930316425 0.43002420281391746
Ni 7.031151954705434 0.8985264292520259 9.266270996244373 -0.3772127154398407 -0.0683607479625855 -0.5077689630945642
Ni 2.4485497519816706 1.4705340843674692 9.3476555856065 0.7727401700284693 0.2555126326241664 -0.6358631223620403
Ni 6.224718302278794 1.7776919026081925 2.6626634799872435 2.816086612243963 1.4124643180078125 -0.4200532076441347
Ni 4.348111632513817 6.886845168159213 10.63244527197871 -0.013783684047653679 1.3147194604561552 -0.09917876178470661
Ni 8.266222327994459 7.1138780233021714 0.3800860862988433 0.45075526471368177 0.04124306581018704 0.10824164331792326
Ni 7.70673908680432 3.6248224083096225 8.31942403022295 -0.007559300404496658 0.5820478763137976 -0.23602238511003867
Ni 3.3144996085526652 8.552316648558177 12.29512374713734 -0.18652916347591747 -0.46130655786696684 0.7999056746996676
Ni 0.49222556501527176 4.799139688126108 10.209470957702553 -1.0235345712413597 -0.07899843018208974 0.7128686904838174
Ni 8.476702693598494 2.636966194716786 5.797166588010912 0.8190817334074861 -0.1826804791537886 1.3718221190064182
Ni 3.772230512950775 2.560442762309909 11.210892936897732 0.5763590534591365 -0.13072645468400065 1.144392617771713
Ni 1.3336122546924598 3.162225799569027 12.784387144107104 -1.311753950069928 1.352633204782793 -0.1328015920454745
Ni 3.040228494802466 8.753247500966676 8.003045929622575 1.1074353238210735 -1.4133678036586885 0.10471794643538095
Ni 5.724123725794446 8.047320201229411 3.5816367812070777 -0.6426690895402802 -0.6881465051467891 0.3843665528758025
Ni 2.8020636357058555 8.538883666663125 3.718394904941592 1.2027851987779932 -0.24715834712220014 -0.1700540486390297
Ni 3.2260711163620237 3.9631025447933137 9.151515860389816 0.43489695752518653 0.527605281094201 0.23019343713308743
Ni 7.596355809038422 6.1933777094485 11.424909350816456 0.8173966323955795 -1.3170236831092996 0.11327174954266299
Ni 0.6392616933805221 -0.08943983111192136 0.2426804146219269 -0.5278917019863683 0.32269967199362487 0.21128374471277805
Ni 4.815273818039325 0.35182680305964104 1.5418534868215037 -1.0487496370544067 -0.8180188393606106 -0.9992954961883369
Ni 5.839809257077483 5.458747301477802 0.4479467460212 -0.10881345666099325 0.26785084247454516 0.10181851340039885
Ni 8.309950003655532 8.922828665770412 11.240217218227597 -1.1934754913412928 -0.839737976205257 0.29569229016684556
Ni 0.08811563194880737 5.10826197765277 5.522238831543839 -0.14862133268655048 -0.9910882777871963 1.5146245310183462
Ni 8.230652665034714 -0.05634121837620159 2.308813999085044 -0.9109637044204634 0.34016286177539484 1.1591355804088423
P -0.7227089775928842 1.7673602388080722 3.8209712283007793 1.0066979592999954 -0.7002042076422714 -1.9242920245527826
P 1.803239124099863 3.375389123642283 1.7653211903714638 -0.2492172865337579 -1.673733393499782 -0.6933054236399092
P 4.658407147947358 1.290812246027525 8.253335032567724 0.32590429497385165 -0.38999726879901864 0.42120094809533265
P 8.438113565514065 1.5168537707530434 12.576534258848012 0.6403484118269035 1.4543951539136437 -0.283042462613319
P 6.446294292738592 7.676680857174569 1.5750785169223833 -0.2234185803030991 1.225848765465676 -1.717284024397223
P 1.7536635084533352 3.1930843693523085 5.855908826847705 -1.5614844287946785 1.5773818167512252 0.08600211519343252
P 6.490622223514812 4.041381268673274 5.982910076528726 1.6091143719678158 -0.9799785410272799 0.8750682760754349
P 2.4822731757236123 8.576181336772539 10.218722162295407 0.11815196045309972 -0.3459069633480236 0.2350134842295501
