# total energy = -340858.0006380517 ev
CRYSTAL
PRIMVEC
9.37928200901664 0.00000000000000 0.00000000000000
0.00000000000000 9.37928200901664 0.00000000000000
0.00000000000000 0.00000000000000 13.72752729255262
PRIMCOORD
 96 1
Ni 1.1258702329593364 2.077435892289353 6.057847407160271 -1.1208590534261471 -0.14002973436279756 -0.6465023472434415
Ni 4.321325899311785 7.887281956726727 6.272629209478501 -0.30007679238778645 1.963376392148754 2.286191506674321
Ni 7.8947572443495515 5.273379281297243 12.729521914039161 -0.8135278934687925 1.2919963078270267 1.2343660589080678
Ni 5.070608587297444 3.8322244894404895 1.3735761283044168 -0.014668143535136029 0.7326497297654866 0.2651175027037821
Ni 6.698364191269743 0.008070872019373107 7.939754348954947 1.2853273804472831 0.02021118484055229 -1.085440050496905
Ni 4.416581885632242 0.06460636913869358 8.20705731576694 0.8948408307166718 1.3145366550213875 -1.4315987248444182
Ni 1.0117149937405217 1.5395153204647318 10.332640813430205 0.9238138209102541 0.6417553194767592 0.4343765662453422
Ni 5.833050407698187 8.662535876114646 10.03185756217852 1.2052580857985178 0.5495378195012343 0.5927200113156631
Ni 2.217581121474098 9.17887472043598 2.635369037766195 0.6004960557166561 -1.6885018100582083 1.2127320255780598
Ni 8.759770890902375 5.3522402829693965 10.508572692457967 1.295546229961814 1.057034245660702 1.9825881891905146
Ni 5.447139856580109 6.127503581639151 5.430156790960726 0.29634097949443805 -2.090058244449736 -0.5473516104831928
Ni 3.8737747079713705 1.7469100004093896 9.902735802934934 0.9983259331862161 0.11173448696253013 1.1754690274615434
Ni 8.300036012457758 4.519904054331154 6.455245702670363 0.5898072085442423 -0.5737046465554249 -1.8203142987175358
Ni 4.303936710788928 5.911236101078192 2.8574263490041547 0.5612844185142012 0.25996449774793295 0.6091961545938153
Ni 8.807164402016719 3.105011251613558 9.645138516966227 -3.7701610318109715 -0.8339475947757251 3.9506822985299124
Ni 0.2641937348835535 1.2185656753387257 3.319385055171947 1.5833881708463051 2.4201994603230705 -0.7445811910957498
Ni 2.7092524545682957 8.928091482720701 0.020118559536961435 -2.2645693004188545 0.40039043910788463 -0.18219788309041524
Ni 8.248037273962227 2.960560932066359 4.389994435413396 -1.5729716034986716 0.4496718018415159 0.43433594281539384
Ni 8.007242971401663 2.282954715866928 12.076805498046367 0.8338511784071768 0.9628683637095548 0.1886428673848106
Ni 6.1760882615465915 3.9066209529589875 5.939489311751007 -0.6429945912004991 -1.2845408799902458 -0.11905313211113043
Ni 5.951660805788823 6.781746006786567 1.40808719581782 0.9212128929522972 -0.7596283152368595 0.07799415728729148
Ni 3.267254068802537 0.9048746564251458 6.098028250543182 1.028879894713673 -1.0277825478844365 -1.837659989084835
Ni 7.803675038445854 0.9427303758410572 10.028988439865065 -0.2800386427899887 -0.6516772065761616 0.06691527376531058
Ni 1.001144543112011 9.224617477947291 6.3875422946696165 1.2722800603450217 -1.3892757957064914 -1.7726797275587083
P 6.147200073493519 1.5203722062386533 11.3616014926815 -1.636431057504898 -0.5144520315416946 -1.6517401770581424
P 7.000142584324165 4.284033874734182 9.652785445446641 0.29222618599511613 -1.7511739922764484 2.250979991770194
P 9.28416653832033 2.7651623535891945 7.803316749879741 1.3030415098975947 -0.46020021217666546 -4.112561010447001
P 6.335179640038872 6.737879105642339 3.633552541602766 0.5798297856165562 -0.36770220484624416 -1.4599592782649824
P 2.3614030291383243 8.995397209171626 8.265645937680032 -1.395066177136023 -2.0490406643867938 -0.27191807056538336
P 6.045209762815235 0.7883896035984144 1.652546921719664 1.2721229659418671 0.8617036818430708 1.6372394123388059
P 5.087463156755681 5.30125450691209 13.15734003432605 -0.5802658447127103 -1.3121720114439528 -0.1154661860908205
P 2.731087422681138 0.45008828707689363 11.437734061267731 -1.5128676962282397 -0.8253691090780946 -0.7899076829466912
Ni 2.525624874794575 1.6185451492099239 8.02703419400257 -2.2239019046064796 2.5049232230247114 1.1441617327078295
Ni 8.909023402749305 5.400027723920828 8.324921123023477 0.037298479340142215 0.45484177607822956 -0.442939882434321
Ni 0.45949852054236373 9.01610666346422 11.453603806133252 -0.1927142092407068 -1.0988061873911656 -1.6173416449736147
Ni 0.4276718034902559 7.5322573806926645 13.159482262297258 -0.687122434757649 0.18564444687811898 0.9943402090655908
Ni 3.85878661559838 5.858327572244626 10.118807256505534 0.4552829773807063 -0.007300904536787426 -1.3674862106352255
Ni 1.3531677489587413 6.529574635359646 3.06148575632814 0.07176360299654737 -0.32049263703997705 1.9420809731050876
Ni 0.6684754853326559 6.341829550860179 6.2442268682245015 0.18197239734317047 0.789963218774975 -0.44823121274024746
Ni 4.673330346594844 0.8538354184613773 3.6269091962787425 0.38510883035846577 1.269219676252143 -0.015862163843237197
Ni 5.8749476596569785 7.247952589697618 12.766531622233519 1.113366601703844 -0.35833001960272487 0.27610485495322123
Ni 4.955384109949392 3.236621334328077 3.858492106148748 0.6330621625781355 0.044400637602562236 -0.581260861636128
Ni 4.787982687750936 8.749519335856268 0.8811338182433477 0.3201859044328357 -0.7737799241468932 1.021555593138118
Ni 8.428222657302351 5.828210698271114 1.8255280786820072 0.3389647277022356 0.10753201884540835 0.3360868919338083
Ni 1.4701555312918506 4.1681903647849925 6.695793330118657 0.6345575161767394 0.8239190068951294 0.7613321853018435
Ni 3.199892066660599 5.957213340635388 7.220129888061049 0.22526026149752817 -0.8582997983678443 1.128642811136624
Ni 2.6904469944882923 3.2796159622616115 11.462334041665653 -2.167325550873332 0.06721840682802617 -0.8074719170826997
Ni 4.875941592803441 3.77527349013586 11.239371629730575 1.6993881179534087 0.2543908603148974 0.43384769032506565
Ni 8.186002703902805 7.531197521845264 4.804579326958699 -1.0315726110544878 -1.914507177251877 0.10161488203002501
Ni 3.9011997280581183 1.6311602832785548 1.4706845227873682 -0.38936143498723264 0.43735287526484673 0.41445540184138296
Ni 0.4293563225078962 3.724653506070135 3.059989760875391 1.5923986018750318 0.2476910796972186 -1.805790394069748
Ni 3.6602928741155294 8.242484739115664 9.93447435473779 -2.4101523604997137 -0.5786874444819969 1.6738120692565175
Ni 4.742605722231206 9.209207317891707 12.415615171643369 1.1303898757347177 -1.5066893353316697 -2.932213571847234
Ni 6.974011905130703 6.890283056185969 6.884519487498108 1.1521087554690481 2.008442431249457 0.1755037588996913
Ni 8.188150559443114 1.5373956027699285 1.4101187482633706 -0.03374110100618705 0.16201472327432095 -0.3159466695405075
Ni 3.421533875713249 6.653962671060897 0.5993511161338437 1.46526115009387 -1.6299145965426187 0.921578246711516
P 1.289904492978879 6.783518691053461 11.083385731454001 0.6119351507915333 0.8445487673303389 -0.9277478658573377
P 7.446924674554075 7.946408949417173 11.430485752265325 1.1213290510840301 0.9699813206052521 -0.933898715950082
P 1.592376952889121 7.309283713619386 1.23424877249572 -0.6913660405253513 1.617251913473286 -1.4162554096191287
P 8.853723157047709 8.039629631579345 7.150586264964193 -1.5254295920536503 -1.320919675729596 0.20263121124410266
P 0.03806393947265761 3.877442007169017 12.112195404267748 1.326364500894251 -0.1787826867612792 -0.5184323563456813
P 3.765162624317285 8.46687467774609 4.246212858661061 -1.888334632621567 -0.6143609866242065 -0.05913640115084009
P 0.032729003964674555 5.333669304935279 4.308919923228084 -0.4288996022911711 0.2863039069734101 1.7892018935834477
P 2.983014932780338 4.5804848357060886 1.8518979295622715 -0.7403190733852864 -0.17775527393802934 0.18109102317948167
Ni 0.1684434604103702 0.24896084325465884 8.506921397398754 1.235238177100376 2.7859993059402792 -0.3742451481710845
Ni 3.526722521497409 6.88203866745264 12.099812876388636 -0.5784431896816747 0.47149558258482666 -0.5359215142693802
Ni 7.404961767622437 0.7465720755352243 3.5600283512949615 -1.363969969951851 -0.4640815495089427 -0.058341673163686616
Ni 5.911339273178381 1.7826075470749725 13.422542979935095 -0.4153239204892653 1.1320472088324827 1.3637915353924577
Ni 7.607094670457427 0.23599023440446584 13.117503410586501 -0.6365025557182522 -2.864921631468795 -0.1479847275438161
Ni 3.1257863608789984 3.6962624199543392 13.662102031077934 -0.1853963354230549 1.0305025179187606 0.39150676346500957
Ni 8.848133105073803 8.444139298577047 2.1088086521006266 0.596510845816663 -0.1766471284755151 -0.1857606607410091
Ni 2.5480319790993775 2.300231353007759 4.2351893887199 -0.01826357419587822 -2.2174314663907877 -0.9097727694361557
Ni 0.35324251248533406 1.0052526685559218 13.263907434540016 1.9095642314243053 0.9486563338752305 1.2293197547334118
Ni 7.027736431483951 2.7065418421178613 7.963241946527188 -0.05423613563574531 0.00011338564941270796 -0.24224625453256346
Ni 0.26166414257254256 3.8905730017385953 0.5588645081630988 0.32268090294054746 -0.801042359407272 -0.015467499507979815
Ni 4.532425395581431 2.7466382719642533 7.464781889240518 -0.1087016136734773 0.6529272769331788 -0.0843704931272805
Ni 5.852202901206101 8.530334898644496 4.676707825983776 1.7705603672228603 0.1742832562290289 0.7004800870114775
Ni 6.243009437442265 5.304734220473029 8.182196591333993 -2.3213919658348536 -0.22061942029140713 -2.4459809401625487
Ni 6.527717537556235 6.32233940320619 10.334274684325932 -0.677461257518801 -0.3318723396318285 0.676109628586913
Ni 2.726538470990963 4.431419909495865 4.037005163537618 -2.5818778833038953 1.2668524615715473 -1.9772387519531431
Ni 1.424000085379782 5.4878084226184605 12.788056136117609 0.6219871357108965 -1.2917559096814462 -0.20617316295909008
Ni 1.3757624389002518 3.7990593488704687 9.402367999722943 2.218920649341804 1.4058848650180822 -1.1608654186157557
Ni 8.091628370074876 1.22933309088578 5.914436312040435 2.3520742254100586 -0.8868683540341565 1.8345787790563501
Ni 3.661587215008816 1.59133585260539 12.875226243567758 -1.4777952780051389 2.6872663734437396 0.5108342322834493
Ni 1.233844525448614 6.930792174433119 8.792000917073405 1.501644830929227 0.507978508002209 0.40291140575752543
Ni 8.47392789768632 7.941437930044404 9.293632109548629 -1.9682627737067777 -1.9651342553801252 1.7464045959122634
Ni 3.2415829744190106 6.449597499149077 4.957284352449246 -2.1938907029563697 0.5972253553851844 -0.6852622416204585
Ni 7.178630317652079 3.517240067561806 0.570182487553892 1.0203528310792684 0.9458998541760161 -0.2731845959826327
P 6.1690819380155375 1.3679776349768589 5.456568848609249 -2.559991367643449 1.094064301830806 -0.7067108984125378
P 0.23543779470436 8.826907790280263 4.203657181117424 1.6616996022636994 -0.2722464004390795 0.41741371313875847
P 3.444625667592037 3.981280036368877 9.297448539327458 1.0259339247114716 -1.6637492857038767 -0.5302013239561514
P 4.914274717664775 7.162282229412954 8.280608705992067 0.5810916830481153 -0.26021106654110027 0.8070697965482745
P 7.856170878878662 7.467249578291416 0.37463290263917753 -1.198334104985175 -0.2996147651497033 0.022838338050754216
P 7.414256635921331 4.0703644552416325 2.6414918329483528 -0.6242679613252733 -0.9943018996284876 -0.18536265397164206
P 1.66895878907527 1.3698065949347644 1.4401136915730222 -0.9777545367927679 1.6017818428621446 -1.4450188549050664
P 3.99360441270061 4.146861877891263 5.554583281717502 1.2044715853414805 0.352132118322129 2.9482084046135935
