# total energy = -381176.34463233786 ev
CRYSTAL
PRIMVEC
9.17718501490816 0.00000000000000 0.00000000000000
0.00000000000000 9.17718501490816 0.00000000000000
0.00000000000000 0.00000000000000 13.43173791339161
PRIMCOORD
 96 1
Ni 8.0698014647113 8.062138515381484 1.9279650135160002 -0.23163171224151075 0.30938187183879623 -1.017236911158106
Ni 4.58121395646248 3.0437326509872182 13.353242591447101 -0.912988448159976 -0.40762758028627216 0.12611672382613118
Ni 4.323748036165532 1.3010219612453153 6.722772440495652 0.05742173245257852 1.8494541535062856 -1.3415229538022444
Ni 3.8810865260773757 6.359385288372532 1.4815344336197533 -0.5261145554812875 -1.1523635517923316 0.7083039539312704
Ni 0.15356183369555582 6.336754350591307 3.039038520948655 -1.3251568537393952 -0.49731202942729835 0.028196259928557888
Ni 4.678207622889799 3.948630606397658 8.06531565676829 -1.6086238054846427 -1.2249247109895098 0.1837194619412642
Ni 6.359752375765576 5.0584092130513465 6.844034254477178 0.7934185243134271 0.5344436441722732 -0.010362059960614413
Ni 7.033724829396224 4.998610676724314 11.847262890605998 -1.6217724270514586 1.7017576466268498 -0.7899333939783041
Ni 8.848329585065994 5.12090584171726 9.878841175502506 0.13492043816069021 -0.2768597308413748 1.4331544993673124
Ni 4.049506222006428 8.139089210148546 6.836781525309091 0.12843637309824332 -0.2902366663689131 -0.6641493709012433
Ni 1.6801681751518587 6.427966390578166 9.130854726249158 -0.7168811540773202 -0.8918125854133092 0.48754492273820554
Ni 1.7238607521090417 6.80038572800716 6.913691840462917 0.0659110008705123 0.5917303937088841 -1.2564657190205846
Ni 1.8821121272507475 0.262499606174077 10.037913908686152 -1.2804741661200398 -0.06542763347619054 0.40542620175957916
Ni 0.13093548450674372 7.415514072532692 10.64623737066311 -0.09515215712381678 -0.15643697207622737 0.5598942230348939
Ni 4.5473960303782075 4.038007209419293 11.204137708331405 -0.06525922621912632 0.9769844913959628 -0.60369090850487
Ni 2.122389180368362 6.959013367726738 3.9274404866341346 -0.22117092191950297 0.4667215582349511 0.5684254004343565
Ni 4.019120563047127 1.8643634517970211 4.018198255972102 0.6141894940433487 -0.16603695705983662 0.45341969891972234
Ni 8.11359499070157 4.1406723760691575 3.1271771217372457 -0.8054733985954321 0.026526071314986573 -1.0316955097855973
Ni 1.968001400038455 3.6828318022785895 0.007759309770489 1.1575898331882775 -0.2768162791979491 -1.4127324840675346
Ni 8.671733017456862 8.051529689722484 12.799036070671322 -0.4459077068133933 -0.5215639599961276 1.7949614217750443
Ni 8.391865588999343 8.23221010457924 6.879212239352682 -1.2411756256307334 -0.9949634444718864 0.03711464546411027
Ni 3.573008431464347 4.81778342691034 3.5298205996726013 -0.4646708463535094 -0.02623630798870965 0.01503555417688378
Ni 0.43580248214911105 2.6513712909310545 6.25170846108912 0.8665170440713141 0.9704662306614705 -1.4656838394535854
Ni 8.537223019460344 5.6972055172434555 7.807855242782238 0.4819270623307958 1.7320321292406753 -2.0025618040989643
P 5.174748385092138 6.464188739086883 7.989895716430226 0.027073973398656602 0.4454114839032651 0.8883619078605474
Ni 1.0774473845112489 8.971799429716684 2.597563620858516 0.7837920569672566 -0.570219773330618 -0.5127530465727169
P 6.675878861471117 7.026383081535323 13.123049429016433 0.8564915415145119 -0.44255241718791527 1.3519765450354007
Ni 8.039893019362957 1.403347572056613 12.064803468316887 1.3725039755647912 1.0104242591116468 -1.3408156433225746
P 0.81798909738855 4.92889160360024 6.366697669241987 0.2921937900952839 -0.7028298181905765 -1.181868246119668
P 2.9261545589949 8.85238590075914 5.1061149729329935 0.2546950218188775 -0.5425639592865624 -0.6012519600460742
P 5.996060541106228 0.03298739085750764 9.632262149564792 0.7856519929941308 0.13244112338226224 -0.5702359712805342
Ni 3.9118943355386784 5.892808034627492 9.712126600514148 0.512247310580892 -0.4994069642831141 -0.4834684386759867
Ni 6.134938879079983 7.200006241260789 5.8239607940618985 0.9801911712587184 0.14343053251423038 1.3538678485208426
Ni 4.9407668807652465 6.6430979572721975 11.965045633819939 -0.31358613972813093 -0.4342148438564974 -0.37661544817547393
Ni 4.840992527335612 3.8485809374232396 5.282769356806529 0.9828041834015332 -0.546528086140633 -0.07414393030326585
Ni 6.30131206279281 5.057895290701084 9.463948908979722 0.3210490237640793 -0.5495758718280213 0.3025090559783629
Ni 1.6154323133883703 8.789246869155399 12.425096073716638 -0.7999933493174674 1.6411860556913798 0.07437018738145901
Ni 4.2663172135236405 1.2096263775619327 9.305507566112114 0.07045414015650447 0.7016800208568496 -0.00019951760531578542
Ni 8.357469500271025 6.2814526348290745 5.144422377834206 0.763570330603743 0.19002303556178887 1.269777605638142
Ni 8.147174309980363 5.48362489478504 0.8732375854787899 0.7289059464523382 0.22695256159828653 -1.0150018511800003
Ni 2.484199692138355 2.8744227681300316 2.654138212156131 -0.22273903773757123 -0.05116906667464736 -0.5163736740444397
Ni 6.3370847292450465 5.476292324108965 4.199956990045927 -0.571125572974339 -1.388117256622016 0.9840439693459052
Ni 0.1498496624333881 1.7996275900335326 3.3080493397568684 -1.515869459169041 0.7889748867197768 -0.04647603207435222
Ni 8.351541038873348 0.5224892522982088 9.963944881269098 -0.7565111097641165 -1.0736823957403443 -0.9848374117814781
Ni 1.3912428652709539 3.7175582696606475 8.190687014114953 0.5633829529144425 0.8494847711793757 0.6325199169214203
Ni 7.299101483013291 3.275539162510319 13.318884129176572 -1.057668022589959 -0.799822370957242 1.6471998659856277
Ni 9.0869180361756 1.113614669911009 0.7311086886396211 0.3236772054155458 -0.6801886837522931 0.5530656301488347
Ni 5.5633287449999385 1.9266857139512383 11.46178533688791 1.4042542713931945 -1.119896946623194 -0.09719207037198101
Ni 3.122977641960811 1.9156363834205836 11.591092788806499 -0.08041665068585506 -0.2073378726911526 -0.22791055463618168
Ni 0.029656990484106742 1.5340215067958123 8.035241104374593 -0.5619786163677483 -1.582859294926029 1.095243666850888
Ni 1.205762782750134 5.998437431976194 12.737760007587282 -0.837004636434494 2.1354716395875286 2.06712040470664
Ni 6.621292966125323 0.61318186362391 0.252383595340239 0.12762981803654794 -0.4620789172566171 0.5825541265262548
Ni 6.338975229319229 2.344045725473768 9.018860951223537 -0.13526368043272188 -1.0405305915787242 0.6750909575144116
Ni 7.723803242396721 1.2266592325992214 5.886324353547835 0.11758606064730072 0.7253393121470024 -0.20122404648393086
Ni 7.118072335133141 7.217029919113252 9.16323917606359 -0.043730351008415005 1.2723839329127378 -0.22342192273720876
Ni 3.3820587467871563 8.248802454744876 0.32482003289132916 -0.3803016387778096 -0.4438809061913517 0.23712050327022385
P 1.1071080458692861 1.865382119312721 12.256124828979535 -1.106482987210133 -0.3279609203925642 1.339580485363893
Ni 3.5678416764072383 8.748959027768707 2.8637542907696605 -1.363076254492988 0.7791555866365097 0.6210347990999563
P 4.581828827845831 0.5809589322624187 13.048073664423955 -0.2237780205250469 1.6266873478545725 -0.2600058925088296
Ni 6.24385370859644 0.21731940755657922 7.329229263078978 0.08757485899719111 -0.6767259220146732 1.3634791463583615
P 0.8679900711952113 7.214111574338544 1.22071516998734 0.1459566413701938 0.45849917032515874 -0.9655399970044468
P 6.340232503640407 2.834153281112993 6.5775756107691095 -0.5644065090829505 -1.0058914042382998 0.7944227972082254
P 3.2961970055539274 5.223681134585039 12.688049032821125 1.409797826919243 0.6035595251333283 0.6159383584136553
Ni 5.411620702639261 3.858795144134717 2.404750967661622 0.2401502912354832 0.2652897666155883 0.41589933337676116
Ni 0.3165734146065729 3.324297545491523 1.4340663628251025 -1.1740004133358168 -0.0830952259592827 0.15608241695028605
Ni 5.399974855094906 8.214020924253859 1.759181901067833 0.7178926260609702 0.3193232993222243 -1.3091699913928359
Ni 1.1723027668740809 0.16636033565407024 6.601927270705234 1.0820541647438073 -1.126701114029221 -0.7277461218162822
Ni 1.7343869831046073 5.180667669304989 1.7577447539240616 0.5355906132925228 0.6278901314588928 0.42097880478219757
Ni 8.499816814109055 8.792706667834848 4.419269682146742 0.5796102134065825 -0.9081504033413844 -0.19671227465650637
Ni 6.359018200979486 2.438855221912469 4.214368841096874 0.6929141017387614 0.3218895173875037 -0.22938842473328883
Ni 8.000091568772051 3.514109259250274 8.120411803590414 0.6244839339908212 0.2887433696528382 -0.5534392114381694
Ni 5.365248387712848 9.109328721520999 4.879159521308984 -0.4391099671652695 0.9832201878930293 -0.3803471473037643
Ni 2.4932116876376096 1.454950882333916 8.029089637385642 -1.7575212746507152 1.2337590214516883 -0.3505498614366737
Ni 1.8518733032486645 1.5146301152582093 4.804559103575893 0.4129572200293017 0.261382204031066 -0.5760016701197176
Ni 6.8325150520834255 8.512802530638023 11.458413639182792 -0.9077590814402365 -0.3821343211111741 -0.018739999611664497
Ni 2.6702120513790897 7.162177885407501 11.305883321061692 -0.4929833201449575 -1.5408184158048945 -0.5387571839459624
Ni 4.308110113221815 6.843858052528517 4.295039966592447 1.1656461278338506 0.7633145058391951 -0.1163755852789673
Ni 6.315756951709131 6.179007720615037 2.106875149419797 0.20841670757762815 -0.3091921244254933 -0.45489294103113914
Ni 3.9572020970252595 5.676538497015021 6.4147026053489675 -0.8902087312612991 0.503393459734688 -0.12817052103136634
Ni 4.9002496097579025 1.7129215477963002 1.746112672156948 -0.27931744835324795 -1.683429537741623 0.6522564761183993
Ni 5.533346882172987 5.028289692452003 0.3585902376145053 -0.05233069108291633 0.45917408490499634 -1.4512702351314166
Ni 9.080126919404266 4.208629429706616 12.13835493382435 0.9228447721287655 -1.8977356142204926 0.462960548530622
Ni 1.2277054316693998 4.265280191638288 4.095900562176423 -0.6571595698469714 0.2692050425095944 0.6635215075092573
Ni 6.696628476362987 0.5620282354030873 2.9939473410239708 0.23612085836111593 -0.6497164833053649 0.5093337364785228
Ni 1.9042933829754924 4.729884350645711 11.032936407681555 1.327261301676908 -1.0998937640283897 -2.3567950279244956
Ni 4.125300591485398 8.765597263858472 10.95808178192878 1.8220531357855134 1.1956359893277213 1.8503977483664777
Ni 7.8540733810035706 3.938847727373009 5.397315306932295 0.7751441514842715 -0.20021771670660357 0.4031638880879637
Ni 0.716795951184796 2.382204459980797 10.142251158411334 0.16807635608736862 1.1575006159085808 0.8609714316627366
P 7.22989633223948 2.1247018309445456 1.788436013138073 0.9881549061904853 2.1012446000838585 -0.009805416126196016
Ni 3.289194813531594 8.091266900019606 8.95414711470363 0.38741048190844896 -0.742615839839263 -0.8231255644595566
P 7.764054375044107 3.3215352128588593 10.54365846955061 -0.7437599807460352 -0.8224982152882029 -0.40896583948172144
Ni 2.460366543144907 1.5285243730849634 0.6995327488083716 0.5049219805640723 -1.4101693513260487 -0.0216304337855821
P 3.1405886596421455 3.1078444641825302 9.689695725362132 -0.2547865530914193 0.7355509625726816 -0.8510284615174118
P 0.3509447249358602 8.176578010163269 8.661308653212867 0.47133103198250437 0.48088859376395243 -0.30514983603531964
P 6.748929252687075 7.591679312454994 3.661693074750092 0.046424095790494245 0.37538568953343093 1.181144737690082
Ni 2.781632252353078 3.577486897659496 6.018841984718602 -1.37595285334534 -0.2803746859731688 0.25613098293445563
