# total energy = -381165.54485109606 ev
CRYSTAL
PRIMVEC
9.27641330189303 0.00000000000000 0.00000000000000

0.00000000000000 9.27641330189303 0.00000000000000

0.00000000000000 0.00000000000000 13.57696854154491

PRIMCOORD
 96 1
Ni 2.629501444388041 2.5322475253552135 5.331159471110767 -0.3371204754046452 -2.4329297634055456 1.1997353562080757
Ni 7.420759735740215 5.482453136931627 13.076562139207356 -0.0478248327927628 1.389269110838272 -0.8230250343259502
Ni 7.46359821323865 0.35719293965266363 6.289720961591779 0.8317950672090965 -1.7180921221208152 -0.637789907071108
Ni 4.4444688494289375 7.021651321731405 10.746320576942047 -1.0182409269425885 0.7398773578621773 -0.9590597885967418
Ni 4.831759112651041 5.467759297962913 12.408059256307999 -0.541487438392932 0.8867963631456406 0.8693154327520577
Ni 6.791800348267518 6.492728777338642 11.003834743075506 0.5096155293849998 -0.3680935267473919 0.18279257925162068
Ni 3.3145460278233916 7.607280581790677 5.678228133080062 0.515278384097732 -1.5761759693685824 -0.7107593574502985
Ni 7.724274708730968 6.751429396757516 8.266364194431937 -1.5697106733592128 0.04705581583722218 -1.759266539476596
Ni 0.7926268612483336 9.216543517683068 11.164979960023118 -2.007909698674439 -0.4179353899701835 0.029369454301052644
Ni 5.668964706568599 7.4547114091148945 6.556114510718201 1.8089263685955683 1.6457078548211337 -0.6943783449891138
Ni 3.6328476039177637 0.7705944515674038 9.587593563807616 0.9472617675205491 2.3063882933371698 -1.207981655377268
Ni 4.319821681359107 4.671880126144862 2.3785624001365417 0.922687934835927 -0.4154933561875941 0.4856258513386217
Ni 2.4004389660708334 7.458969282906965 1.3538786342963158 1.0520856434061752 0.7119006701435934 -0.4056308615712175
Ni 7.032597489650018 1.020739434824129 4.050715708928108 -0.3840073697641709 0.42234534611242097 0.12257117256671793
Ni 7.5044608146636405 7.644070837693405 4.376969954307756 1.018218301234769 0.1756693379432781 -0.05760479499766208
Ni 6.065030456952574 2.239771484417975 9.616852299597529 -2.1727834886641095 -3.2999594854472196 2.935252615783874
Ni 5.377870851241424 5.359633422319396 4.985843123649798 0.12325894266236191 1.6824949417424961 -4.209662320877389
Ni 8.298948524458138 0.40170302686206 0.015041704474602176 -0.003859740065722385 -0.48092638898042334 0.41260086513114747
Ni 6.403090793781391 9.102406526097804 8.51770119682217 -0.6086173992722099 -0.10747545457586007 -0.08958057657331024
Ni 4.281333841787647 3.958579587217906 9.940282804710716 -1.1287299715337915 0.49394182740348486 -0.14566996336771043
Ni 0.46018895863601733 3.784201566426311 5.6282783569999255 0.3558355353156452 0.13051382445256232 -0.8338545208412865
Ni 3.0661236745518243 4.545090106558762 4.456381619633245 -0.8165186006660001 0.10738598018584732 0.3414317011854894
Ni 1.8470637957175073 7.093988794129153 11.940441745748908 1.4347190156409548 -0.6999103305509365 2.078611436065375
Ni 5.7818772115731365 4.415340911069239 0.7666426994205148 1.2702859127331285 -1.1566079288909823 -0.660663726345488
P 8.364792507412641 7.727734810962869 12.599549477065242 -0.583242410842531 -0.2211125578777418 -1.7742658410989056
Ni 8.38200953085073 9.119057688312983 2.4807977532136865 1.9259647842695151 0.03426971981614743 -0.03120805017168819
P 7.236641480783752 2.580215859513812 1.651760041374381 -0.170986330645312 -0.22155195940800554 -0.4319864687466109
Ni 4.572984281924243 2.237034942438322 3.9502595719584117 -0.11096058491098308 2.088223505233842 0.5799459994794464
P 1.0964627981458543 3.2171622390016994 13.133517462755405 0.6621943040574015 0.7027074336800994 1.1364530512096622
P 0.29926080976408026 1.44774202419842 9.58988854850513 -0.8781273746167328 -0.5237877071203237 0.8348338540354202
P 1.8194571891702263 5.870049521798912 5.891114401552798 -0.03282038896413057 -0.6617893553094989 0.7246600266917907
Ni 2.9865598760450944 9.128695881929454 11.566355529488968 0.024568433367983495 1.2712459626535524 0.19254554487332645
Ni 3.9267058304650644 8.793548338936608 2.670467941644123 0.24610059528164713 -1.165003094933213 0.7472078300853195
Ni 2.951495033051572 1.3587070075180425 2.309917867949302 -2.0856274623718916 -0.5696785561151673 0.2588694649115413
Ni 1.637815736615687 2.18288851689515 11.30867809847808 -0.16499848849299326 -1.4090668622904896 -0.8815302296506948
Ni 5.578872178750323 1.276184033107891 6.846281652337692 -1.2982266050074545 1.3726430722458167 0.5912012606782914
Ni 3.3529225504329685 0.25040379519310596 6.779564758873747 1.61745220240955 3.2763055934737064 2.132039216867212
Ni 3.8146653083286193 3.478052092004297 13.429020397414547 0.6198081257817067 -1.3985417943894494 -0.2754106570996741
Ni 6.756642741139093 5.638974061754298 2.510476710534711 -0.3034966167026128 0.20441478550708664 0.9476340632583035
Ni 2.117053810354138 6.546708227438986 8.121023203147834 -0.2350962737513435 -2.287980994474576 -2.2060947012217293
Ni 1.5751350106613937 3.893663245612438 9.6271166511246 -0.5959639721742575 0.5559334386149328 -1.6113250064658893
Ni 5.46131219058712 6.063880181679771 9.000036665025048 1.0503030975844556 0.3200889738436552 -0.3220399269224389
Ni 4.68189865271444 0.29211518845246376 4.8270058783785865 0.3740579718609429 -1.192007905656831 0.7295494935736081
Ni 4.254933168994111 8.016351863888122 8.454473162471947 0.28998829780353286 -0.47793722444511233 -0.6177453297154072
Ni 3.7299623767482353 6.464528480327978 3.4662682639475055 -0.007193175314329546 2.403377760780041 0.5418404508569765
Ni 2.3724984086378997 4.153681115746942 7.174260382985197 0.4161996382259994 -0.2956228703814909 0.3329889697347749
Ni 1.1620470415226272 2.542256775511301 3.582840314073986 0.9571916250397514 -0.9417086989128041 1.1901047750968472
Ni 0.2686226712881529 1.202668456196869 5.615977832711722 -0.767745030806723 0.7967110790217699 0.17729376092057852
Ni 8.314189671822783 2.6701321354757726 12.716705013600265 -0.3012978092790811 0.2834170723439184 -0.1556586991493061
Ni 0.15306267787346953 4.651555504187506 11.63643976104991 -1.0665707243962275 0.8635422777137063 0.10262018336608777
Ni 9.14312070490695 4.342817910401685 7.801611240358667 -0.11347178136861102 -0.6617600447334604 -0.9809519606841427
Ni 8.202325401542655 3.2685535697382373 9.954728963439237 0.23505667876265968 -0.3073558425477029 1.410901601506383
Ni 6.668479707326807 3.591669604434101 3.6228374261203276 -2.315510567353412 -1.461779619303173 -0.2984839939793698
Ni 4.275480424875235 0.1699578097634436 0.32626537707583747 -0.10040183555853031 0.05695096346374708 0.2744873739544563
Ni 1.470311538220441 8.41883689240742 7.052149386363627 -0.6949373028163773 -0.1165121108568316 -1.0065532061920148
Ni 7.968596887239802 5.28866885911822 4.739068261414117 -0.4226855030606591 0.17797073238294508 1.2071108227365404
P 6.349927668068196 4.91764942515819 6.648601280858338 2.3872327755890628 0.5651243610855816 0.6928241131281165
Ni 2.1383431793144902 5.319012007645154 13.781573275039337 0.032519312783943995 -0.6844690562952018 -0.054121978655384206
P 8.85168362228063 6.194946627884923 2.708944649519396 0.06986021532624742 0.45562390565989275 0.5590097635474115
Ni 4.89115598822975 2.2217010309387737 1.7859962380691856 2.0196748096301667 0.7841694949113334 -1.7884524170119327
P 3.9379859492693297 7.7062691901462 12.685424019669457 0.640450998843039 -1.652773246308347 2.1718509495475113
P 1.1089488507038652 9.16434513897287 1.209246361002876 -1.2307449172157126 -0.7796564375323283 1.0811409089009185
P 5.502146962771639 7.787029645993185 3.9370360445279178 -0.8629789490110685 -0.4272309563394964 -0.33113931812054587
Ni 6.173360413692879 0.025622381701695143 1.942348332166333 -0.5570384987536535 0.3499158273971006 -0.16273643193169393
Ni 6.099325357626397 1.6549214430918922 13.113139037599806 -0.2621702471500001 -0.04091550726743921 0.31340770516873767
Ni 8.928195480749036 8.972471802338474 8.054496476160441 -0.43532273220869544 1.0251353400695762 0.48584079556290516
Ni 0.7651055977051638 2.014169108332668 1.4138923913721335 -2.0636722982570395 0.5076257526484806 -0.2675916752758875
Ni 7.924775109911389 8.183021185069236 9.90105841790812 0.3718216263312564 1.0240961001717845 2.9402428699096133
Ni 8.631118338720583 4.233801499063094 0.8846794952371216 0.6435093260533885 -0.09640762679747268 0.21361393550785146
Ni 0.22873873148639404 6.820288214096383 0.5750365234946418 1.0205772883852489 -0.43061658498227773 -0.05154933283220155
Ni 6.075308723099881 3.9425499447065815 8.439144816820493 1.0130048753546297 1.07268917858914 -1.8629259627404757
Ni 8.794058541678577 3.8582644517332634 3.117108698377485 0.8024600656904051 0.5518834369152753 -0.05757574153193955
Ni 5.25659102126859 9.318992228270492 11.2283434300103 1.2529021700390421 0.9279507258967631 -0.4483872787021374
Ni 2.59023438608339 3.468451004041785 1.8912306556277607 -1.330859046330495 0.8128627490809677 -0.5780819496875141
Ni 1.4158775438590683 7.174341087782563 4.275021242407463 -1.0548120411984028 1.0714339660257999 -0.3298874479913157
Ni 0.581056915849879 6.821957968524645 10.226321942327 -2.011905192987077 -0.9619317108278981 -1.5001556479782099
Ni 4.322660263887155 5.778880930015754 7.019129992544729 -2.396590305544563 -0.5645432917711309 0.7938538120786328
Ni 7.34241114740072 7.33844084242685 1.1449469008945163 1.048527750851588 0.13826030116720056 1.4697544099785333
Ni 6.1469597408993435 8.096425865136823 13.102168751006118 -0.4982566527287548 0.2729717086408783 -1.5348159183645567
Ni 4.958929465190246 7.048200417140786 1.4970099838870168 0.10619247409837841 -0.5990711503446714 -1.0988000167435785
Ni 9.062443736781377 6.688229191647763 6.420901507682863 0.7022016976882745 0.08019245049019093 -0.7606963514900577
Ni 7.3487933198820805 2.7926271756158414 5.754380994346391 0.2894195697842564 0.5579854360479551 0.6165297121407511
Ni 4.622455395068279 3.5768180664360507 6.130435665548983 0.03304021828442052 -1.9346561413959262 0.8345070668236209
Ni 6.227469733582089 3.7462888644912513 11.86918961372953 0.4694762381619527 -0.4632287145903442 -1.0204155659964038
Ni 2.4552903990392716 4.2334953774179125 11.699125125210948 1.983029133382675 1.9066288029450646 -0.16489461592527732
Ni 2.224864287938983 8.296480998469706 9.429177467708865 -0.9470136560654853 1.146516348982935 0.7476472316155833
Ni 1.1368523024828372 2.1222671547357144 7.817727153515451 0.4456218001418583 -0.11063662591266107 -0.9925111262766518
Ni 1.677565168421836 5.609178221623295 2.5422196698573396 -0.7132502421929523 -1.1097457171218048 0.04617289901163661
P 4.514487218454097 2.3508008774839717 11.351051827660648 0.1452974105196401 -0.8148383847500998 0.9710025627809148
Ni 2.11605195769718 1.0272700299213353 13.376138347030109 0.24290471405216874 0.7550018722084416 -0.6956379284278277
P 8.458790405310355 5.294429511895728 9.460717273576055 0.15151176686046808 0.30444124000406925 2.884593141755793
Ni 7.78502594067927 0.9494038150833392 11.19924795909782 -0.34594167324070096 0.12914599757075823 -0.5745076020726945
P 2.0143917422564366 0.2397015969492894 5.1271386710107585 0.7056395197252299 -0.5586675497166442 -0.9966351757473547
P 2.632432791050991 5.924260882236516 10.018892987910638 0.5211911500377411 -1.2785257841444173 1.4800575916767542
P 4.030379027633213 2.428592881014045 8.022631068179741 -0.3698089667766018 0.3076106388709864 -0.1503974507503668
Ni 7.697131922858206 1.9265626593298049 8.180517481068192 1.6596144375998967 -0.7997038431015067 -1.861545280342865
