# total energy = -340872.67468483414 ev
CRYSTAL
PRIMVEC
9.15497814275258 0.00000000000000 0.00000000000000
0.00000000000000 9.15497814275258 0.00000000000000
0.00000000000000 0.00000000000000 13.39923591128847
PRIMCOORD
 96 1
Ni 5.600722522727149 8.752460991046288 5.017852544476457 -1.6752223193404825 1.7286822389318355 -0.4438770495366097
Ni 7.091509969730534 6.838914974365355 1.205529321470256 -0.6362251336871494 -0.8122037753407302 -0.2303893551939774
Ni 3.4970825448355845 8.291654333197318 11.657107521218686 -0.9423023666327448 -0.9926777337615034 0.1908848693414519
Ni 3.7121695957257117 7.5363411911360165 3.475292781924901 1.3170902746811768 1.445951908242297 -0.07574804156559213
Ni 0.5471115500532056 7.962514567571972 10.946077007281824 -1.017578096547609 -0.9486396217046822 1.1642384488530466
Ni 0.33278985531590044 3.7342697123873605 2.3870606993592447 1.5928277189926505 0.9209712092551363 0.5495954122120471
Ni 7.441761114403833 4.372270967579414 1.4236420925578464 0.12836643909225634 1.4867203484089107 -0.032349105754666874
Ni 8.616216609870374 0.3422332150244714 6.302076225018875 -1.477489830949578 -1.219101162329197 -0.13929311330708913
Ni 8.255135126335961 7.899473389721056 8.126689870836957 0.13984821447961077 -0.14816624742700288 0.656194891940857
Ni 2.009636664767371 3.2040591670437943 11.415090187324456 -0.018209838139807345 -0.24537168753542257 -0.6623015190592271
Ni 1.656913676059835 4.241437178345107 0.10592126336037284 -1.5695625778171227 0.5087992041312914 1.4797241195967352
Ni 4.649630178176473 5.620817699227696 0.9840923779055137 -0.16705871345613163 0.1342486089046462 -2.1067647585711393
Ni 3.3082794355094967 2.088204685144449 2.617862269822579 -0.7636382077272009 0.530268429748661 0.44017286121214516
Ni 5.600621817970199 8.66281544740467 10.815447374054788 1.7076822396414009 2.0444000802909885 -1.527544581514124
Ni 2.47682434221583 0.7949743373395087 4.718996530261661 -0.414105474701132 -0.7272123607999992 -1.096691197930692
Ni 4.122770354745982 4.650609760812262 6.1768864796627385 1.20796160077261 -2.2470850275911625 0.6991842510181895
Ni 7.438657576894181 0.6397251375314855 3.974012034272304 -0.4031039813843058 1.7250302440015453 1.1008049629887493
Ni 2.375359722099405 6.289771934715124 1.9024904653633654 1.0923797150395316 -0.19619702558298466 -0.11417266409037757
Ni 2.3450292803015422 4.6859845954355475 8.07074837835104 -1.932187625250776 0.9969622200694702 0.5422515702524662
Ni 3.1684371480170856 5.094726893941189 4.165849103275968 0.3372294901786837 -0.33732127856154165 -2.64253483486432
Ni 2.447638272656039 1.5166960344733367 0.4576024155823676 0.5075103101165388 -0.054825432480312034 -1.273028765585588
Ni 6.935133792142457 2.336295431380576 6.004452470830035 0.2697467739456773 0.49800751283242617 -0.42841726333811375
Ni 4.990479160541772 1.2533530950481844 0.9761156456572561 -0.7613149589106629 2.2108268165900764 0.12274035115473055
Ni 7.114900938276728 7.381008681029061 3.8871715758606498 0.8331675220765908 -2.383955647499688 0.6118909278171591
P 8.710970631182745 3.5094326100288584 6.736652955673442 -0.44428122695356387 -0.03784098210717354 0.2803062946290785
P 7.03599418371718 7.583187213073736 6.23845645256439 -1.421341051672152 0.605410462299138 0.38998826993795416
P 6.392664731384662 5.3881439357828755 8.5353937184354 0.1922030739322432 0.18392797840764452 -0.034629674258727455
P 5.678878569098521 6.21359336357114 12.527279931568598 0.14810916893682236 0.2955020285329104 -0.33759098728316056
P 3.7395063597487783 8.127899243418153 8.965576059695769 1.183137856860711 -0.6087801501023193 -0.13244832247111385
P 4.941921157735898 2.6499724393250914 7.0644387000667 -0.2537953928227435 -1.295736234485433 -0.5916607168132133
P 1.002213741169833 6.793671073560936 7.514291426852843 1.7741249446456673 0.1944849279878844 0.7267714166078387
P 5.693041319916902 1.4810282405571051 2.962691836580788 -0.5252162120367342 -0.061589233566706834 1.9392501885245117
Ni 6.780808329605006 3.147490558571414 8.268279843611351 -0.6719105029039009 -0.978136859832851 -1.2176248348939869
Ni 2.0240191350554606 -0.06542604959505821 9.634545858645634 0.5982856783288987 0.8913487584030133 -0.8292393906667783
Ni 0.5846451284663896 1.5595504860446605 1.6865346070700933 1.9299427950806567 -2.3424040493101463 1.6804005211073123
Ni 7.166965297620056 1.551924389450148 12.066748838554558 -0.16786732540035607 -0.42583330466102143 -0.4511622703441133
Ni 7.22084234258849 7.85557527066861 12.331102487540376 2.3774558987079573 -0.6990572385220218 -0.8747355753263645
Ni 3.857294305469064 6.406699312512378 7.545484267569317 -0.7591477760560151 1.460830625126342 0.04567487632929553
Ni 5.319335121852077 8.677710596455418 13.161345461759474 -0.444385356631596 -2.1204725950755354 0.2252615470491088
Ni 1.9516032598302582 8.904332919505311 2.4815922547085334 -0.05584333222186512 -0.06344634138010363 -0.4769836022825914
Ni 4.3533750931843676 1.4411949316942916 11.917855939905682 0.5351717805875492 0.6927346387381037 -0.754712623102797
Ni 1.6549362008324466 7.181512557510428 4.2713812800753965 -0.8705122812736362 0.7803241530233141 -0.2538804963373821
Ni 2.1840481488274635 6.525411911001026 9.737545768556657 0.12376776397798041 0.9647491256720353 -0.8095305993839415
Ni 0.4623694125772807 1.9795167874613129 5.230150073599061 -1.2442550358870055 1.628393274802086 -0.365870293843828
Ni 3.5260946698151883 1.0112954792511735 6.748725625036206 0.7448650408847559 -0.16144702369630903 0.8337635037893769
Ni 3.031835722702895 5.7070392811329995 12.439475453983594 0.8680867025512792 1.2728721854030658 -1.5587454325969605
Ni 1.9084009190985602 5.562161755793071 5.946486812729416 0.761934851882849 1.7367516462035315 2.2043805467441002
Ni 9.033509657738891 2.804554241243871 13.43929883042254 -1.0216635794708921 0.8233780467899948 -0.9388136367531961
Ni 0.24991350233692836 5.503203698087597 10.619282746995632 -0.3416949821492051 -0.792742581292325 0.14758234989907484
Ni 7.032487827179726 6.53918099776951 10.368435436912435 0.662203302918466 0.2280545364132137 -0.4327601136878418
Ni 5.2084317195160335 6.526107689321774 5.359841321590877 0.004004236063386652 0.19417511005694946 0.3361678816833888
Ni 8.20518556688859 1.1162756108829557 8.541382904980573 -0.48532374671717066 0.2461257920926277 0.03039352469019282
Ni 2.3423010968859783 3.1488180303675772 6.196409470044249 0.23001345991179742 -1.0029428631329373 1.9867749735783524
Ni 2.8003795713193838 2.66623168008362 8.996259883640748 -1.3059486562420608 -1.2504148848408143 0.38901125073666554
Ni 6.896829364589707 5.058729520820393 6.3068194190712354 0.7747302038753044 -0.25953460929936595 -0.07568222132466321
Ni 8.974615684878748 6.943391582212385 5.6746031944170845 -0.3846663435044085 -0.3213986937940142 0.05510131184951802
P 8.804250701052478 3.3272210847940658 11.432267672366812 1.1472108039467983 0.08069124450348039 -0.49097837389978666
P 0.8324877748013026 6.156081792374588 12.586947500061678 0.239929947694561 0.6995637458447952 -0.6144237215413418
P 6.222821581298954 2.9905833922648717 13.507903488346068 -0.48046153352886284 0.8593194978816104 -0.6120572781916943
P 5.834476573564709 2.183645329799662 10.280375535443891 0.18317310251949098 -0.14445768822716412 -0.2788803608158294
P 1.2185641790107924 1.3834270211164117 8.146480186573282 -0.2536930629169244 0.23897195465666587 -0.24275121919343998
P 2.3049304770794956 0.7978847048153737 11.719869472243513 -1.9440200991093297 1.2022843478821745 0.44451828266503446
P 8.382352699297961 5.547321536609753 3.2032883179042284 -0.15093146887696587 0.3796511496780042 -0.4052426249938634
P 7.530829894437462 0.007707575897863222 0.5661685520593727 -0.4057784428926754 0.34198243148263685 0.7689745323384498
Ni 5.246617132356023 5.993095720739407 2.9760507803391465 1.6176612330965623 -0.4690962291147147 1.156429751441905
Ni 4.40134717740435 2.1426676486987764 4.77241948832603 1.6856031483541747 1.0987352249439142 0.06854483894893357
Ni 5.890514193318625 8.546473988193307 2.267901337948854 -1.050491816556494 0.2816746357315149 0.1879296433678699
Ni 1.65020307725578 8.73100172283796 6.777480495136691 -0.17932827485210406 -0.4835517424184124 0.30766900291274757
Ni 7.620182478786131 3.2434713469229974 3.9731148464376553 -0.8766276501427548 1.136959044311803 -0.48361704843870906
Ni 5.781304461894927 7.454440758801672 8.369672139402331 0.8952784324747226 0.9634242362130248 -0.5302635446526545
Ni 7.702549814993608 2.11403087781326 1.8595462950085766 -3.12018332442442 -1.3616444071424678 -0.024029787255694098
Ni 0.38572759955132546 4.51796328595285 4.880724707932754 -2.1506617170644056 -0.27893075443779053 -1.063470488204349
Ni 7.662258757235565 5.147889850633067 12.54878589016424 0.2984271725995054 -0.10765723156936298 -0.5576704759106976
Ni 6.157061375010379 0.5069587324615221 7.136620207857545 0.12841400450074011 -0.7951604467051983 0.7650955089990178
Ni 3.7996637195597525 3.525581991052532 -0.2504133641305183 1.246019583986596 -0.9016216010839311 1.1461749064831164
Ni 0.21075949283463427 0.4872114451213499 12.785188476109592 -0.5795742179623244 0.46615900086326173 0.6116795831373014
Ni 1.78520238143667 8.16948115306074 0.09061780229508223 0.7462853182710502 -0.9599100524121791 -0.023700428940733376
Ni 4.4924758274665075 4.155078271771234 8.575095195616386 2.1606951900410074 0.4182822317866409 0.3079531098120697
Ni 5.242616407011723 4.0078021422203065 11.366759227970613 0.2524702462534168 0.9810357786472006 -0.013693438326692547
Ni 4.50648294366051 0.9602747873889668 8.956705801604025 0.792008788450094 0.3325498253148273 0.8111678778770481
Ni 4.597968637860947 6.695282526020448 10.41209003355262 0.05150459563719517 -2.8444613067319144 0.19717970121122816
Ni 8.473490504338022 8.493100467009626 2.4071192559481727 1.4145042312559768 -0.0019337266876031216 -1.6776558684826397
Ni 8.759235674695674 5.448749889511174 8.131218838406351 -1.6727787428959966 -0.06393048010537376 0.008731980556359155
Ni 0.18492048319675664 3.469709160900899 8.942462486980084 1.1178740026558942 -2.530058327529443 0.08976672444218733
Ni 5.4389449081753725 3.480365555181827 2.1517832601983633 -1.4133978855656757 0.20986449576774827 0.8163432514304005
Ni 0.3389300989965002 1.3381281904445657 10.550919780488785 0.10547333654416674 0.607943770243953 0.1958771803497207
Ni 0.28479671464673745 6.604867964234848 1.1470656325716284 -1.208869200188544 -0.7619675048929975 0.9564642599554236
Ni 7.371258629560687 4.081893378402047 10.124543163543347 -0.7133052638006038 0.7826846828356907 1.6934992632727996
P 3.023532157743444 4.156277573876733 1.7908207913767087 0.5577882324354846 0.15917314006046782 0.15257980311366626
P 5.509062883946526 4.453384071813964 4.4560500013797775 0.5912951059436784 -0.5969592462079912 0.1178295441166745
P 3.718660475060057 8.18342418440941 1.2363687800396135 -0.011542453421960766 -0.15876870553319755 0.5334175169006039
P 0.34492660952399795 0.07122939008876945 4.163397400193123 1.5114155371627453 -0.8799585142882007 0.4248429157232941
P 3.33579014411275 4.802289434735291 10.307978709323981 -0.8985056811627687 -1.299019533222395 0.5709126856325846
P 1.9431440602464292 3.177125222048529 4.210963918891932 0.877431634101289 -0.7897742426926204 -2.8908933729422084
P 3.4300589515961772 7.84573366942119 5.670476130377701 0.00708853141566521 0.7118271365931805 -0.0013056061853009772
P 7.842254777817451 8.886178598320535 10.303007556321797 -0.38339621854273326 -0.21931304277515778 -0.3422773370152363
