# total energy = -340888.90590577933 ev
CRYSTAL
PRIMVEC
9.09411754487722 0.00000000000000 0.00000000000000

0.00000000000000 9.09411754487722 0.00000000000000

0.00000000000000 0.00000000000000 13.31016027442057

PRIMCOORD
 96 1
Ni 6.702837685470363 2.1174743799418754 11.348429514119788 0.32787761665013854 0.017982038399717418 0.25404658960160115
Ni 4.65812534175042 0.776151121661696 5.91743148016124 0.09806701677776658 -0.5162572030712335 0.4384427658949159
Ni 2.7423675879101195 1.8333923292606167 4.794213357603376 0.37153571965972143 -0.17948896879968443 0.07284886564092616
Ni 3.4994983622704567 4.982958134127777 5.058180129204607 0.6857268399617029 -0.3188941822046057 -1.2048333395562736
Ni 3.8694652611056886 2.5858578212085233 2.259067065276788 -0.30511949701801644 0.026483905223141483 0.3172461050782214
Ni 5.294677208690858 4.755023166515412 2.412346601348959 -0.14032798232950672 -0.22624756511146193 0.2923125750613353
Ni 5.627540107052963 3.037308015200426 0.27288901053853226 -0.6499602238850548 0.15321743669766516 -0.238364402979654
Ni 6.023998170931876 7.946267313090499 12.307014094578346 -0.21696279737542634 0.758527625973513 0.4727685357599794
Ni 2.1345349448653033 6.870296769958636 0.09099392351323835 0.6445503657233932 0.39016361917355386 -0.04067176668774931
Ni 0.7477447354171226 0.17009728805132637 0.3773404095174895 0.9789737539118495 1.2101976891919801 -0.5543792067539355
Ni 8.28673289390249 0.05564326894482202 6.753322770819999 -0.7030712447774214 0.1960605000051204 0.25791918518313006
Ni 8.717603099396674 2.3899341481219927 1.193716632868581 1.041963981591141 1.085104521534357 0.5725702758406656
Ni 6.904999923342325 1.4205648534082655 4.8628402984784636 0.7555369187763052 -1.5064875037335088 -1.190820055996317
Ni 1.3583428996736737 7.352066752572451 2.284648818544167 -0.950044472472009 1.5063751465253605 0.20563811639122648
Ni 8.186424774976365 4.16327801779338 3.598029490585687 -1.159436399478713 -1.8123107116867692 0.1166954305122313
Ni 7.9766689487722795 4.083677205013655 12.553358284778396 -0.7932740283157629 -0.8291763986393268 0.11501007239000839
Ni 8.448226237138222 7.405376470899283 8.915917616043105 -0.695992226443453 0.4410292956751695 0.2985387584767052
Ni 7.149149702926158 0.8475062978656899 0.49287753804956963 0.7807257593371071 -0.49354150664127266 -1.8518591634033525
Ni 1.9996146137331194 6.7234995210279465 9.230822360058571 0.368117695117108 0.9604587258267974 0.06312726747778806
Ni 0.7408077423874899 5.194059889760791 1.0730049513293418 -1.5168215386696653 -0.6286429504645173 -0.1777773854252164
Ni 6.479968141452 2.3274939355610886 6.969705480637998 -1.0746339610203361 -1.6018582046260348 1.0478273823504534
Ni 3.4995802093303237 4.642483459198023 0.15314312430572577 1.1157996366253686 -0.11278761081739284 -0.6548761731294335
Ni 6.513152577169264 5.930483357974728 4.8114767213529195 -0.759001737396454 -0.7606207610571158 -1.5898521813040942
Ni 5.244768690407398 3.0249672973960062 9.359505035817099 -0.12696981585504585 0.3074972532215737 -1.1406712030560677
P 0.34012727963120637 5.7081321786688575 12.12418504165879 0.01661858239328751 1.4027882283706292 1.471695335754988
P 4.361302432083169 6.620226719711076 12.556392991875917 -1.4911465025010642 -1.70518055626547 -0.557513381507543
P 2.8287526125410594 8.664775369311284 1.1880719139730738 -0.6047975113054874 1.4016749407017923 -0.2745385389073659
P 6.776845615825829 8.02847813766821 5.488404652337619 0.08281883236944447 0.8790144052073764 0.6654148678772283
P 5.020716911079842 1.1458952146117336 12.566854864950496 0.5188244495777774 0.025090110199408402 -0.1411697615045117
P 4.513619810496012 6.538079553957705 7.928050885799391 -1.6520389392454837 -0.7559076718521627 0.20736409794339772
P 5.0566113938904875 1.1902836034130406 3.631624071014064 -0.7620790907701972 -0.052805573836805834 0.15245021951433746
P 0.527975376144174 5.662843472209012 3.3885937773268595 0.9985329069906997 -0.10119013578778056 0.018341992842297445
Ni 0.6655948414284224 0.39359614501889 4.819688709692928 -0.02487722285765393 -0.06069011879120516 -0.4592627879640606
Ni 1.8606110237253393 6.812412710397006 4.614539054135812 2.5404913499373083 0.027885927776990685 -0.07637950450200394
Ni 6.249650514985722 5.649466024979607 8.873365329618151 0.8032717629584231 0.5839412366817686 1.2424863740223568
Ni 9.067763009744047 2.5972345625300632 9.944539635041796 -0.7059066573436875 0.7122292571276055 1.3729228082697646
Ni 2.308132558843617 5.522794058658484 6.943258876771355 1.0900587802158388 1.0407879590051687 0.6066615610974196
Ni 0.5317339750156307 0.37896370953818875 9.23924806016601 0.6524387673325344 -0.5649675237927431 -0.5890585033036759
Ni 1.757574669470308 1.3957742883862696 11.176781678989865 -1.4454353736171945 0.921308280879581 1.3169601768612158
Ni 4.354691008469453 7.04106611331265 1.7248904102300098 0.10757495626820184 0.7384251987966831 -1.8723076610656915
Ni 6.099779454251132 8.010508160968481 7.816338743198438 -0.5062962352037798 1.1277786633641158 -0.22161160900134735
Ni 5.056129405649046 3.066845709694719 4.7522594641272295 0.1844206017733469 0.9092351517651308 0.32595031772043864
Ni 1.0541355663828489 7.651845250512685 6.602665068898906 -0.8265677573718861 -0.1492060015454269 1.7378561921216198
Ni 5.466246834408017 4.7228936484586574 6.800121100828506 -0.10219080913815304 1.3487996899693158 0.2664400781699476
Ni 0.5250752619895466 7.852761594251114 11.06297970812697 2.3155810155800314 -1.9393162658757572 0.5017386977400843
Ni 4.914797721493932 0.5711797108127356 10.337123604753662 0.7534083024690766 -0.6489932319860953 -0.05968173213134883
Ni 8.718230593522325 7.291836410627961 4.5672087182381675 -1.5849706848420768 0.7267485337897032 -0.12274755024358214
Ni 7.605310649919304 6.466590694222595 6.784721121808606 0.5188589023601387 -0.33919098478042875 1.337706922490264
Ni 2.7231517170768558 5.35747209184452 2.318762673096812 0.69807379156283 0.19481068675841934 1.8282150416218512
Ni 2.3919712305009098 5.62723090704902 11.430153803397179 0.8259499212822291 -0.6207689470330793 -0.9867300008185007
Ni 1.5990914792141362 3.5005532799309673 3.4900304762673753 -0.7607616575103543 0.1086836159513483 0.0608325579063404
Ni 1.5740917494835907 1.0214876836136024 2.582343854104892 -0.8598280620869126 0.9116262777051267 -0.7912233164343212
Ni 1.4228201946134948 3.6613463760989466 8.162163487608177 -0.43731739404122105 -0.5230320599012217 0.4957608828900945
Ni 3.765392177425673 3.321872054123125 7.003540145775318 -1.0112269575186004 -1.6992035127464282 0.6039786149486178
Ni 4.321024584510747 7.347883458401461 5.87510472785681 0.6173570931380529 -0.7541480088485786 -0.7588711253558608
Ni 8.735445758447723 7.391116894246865 0.22389717932558398 -1.814442156207475 -1.5989775406441302 -0.6090945960189446
P 0.4375425596969141 5.8071307446371065 8.054683747414133 -0.48189698042380874 -0.5028293597011018 -1.7543007108308886
P 8.707181240440253 1.953616566087758 7.895334797146922 0.5452754446804544 -0.7933943559437111 -0.0066344745973821225
P 2.230614299031623 3.463758479461783 10.278092776942113 -0.017128175039854372 0.5339178535757901 -0.05265233608839319
P 4.564083069963017 6.352441328061152 3.6532798936431465 -0.7111265109817301 -0.8743519667347007 1.787535304514302
P 6.876398922977623 3.9814320390040066 10.277147898106538 1.79419728991551 1.2818605049446052 0.132144675187766
P 6.6049667901047275 8.063017596932166 10.031867719684762 -0.0827661247546381 -0.7439756963012671 0.2591584569068698
P 2.659438328029129 8.739383511439112 5.7100855951643545 -0.45074523741135275 1.2795796793302285 -0.3732208206716282
P 7.220047445006672 4.075810793148642 1.3693758833437712 0.4622534951612684 1.3846449818026991 0.16318740342618346
Ni 2.7547173998323027 1.7167147983610536 -0.08601307521443159 0.8013236380931167 -0.06759713032368359 2.349350912941625
Ni 1.5580497257496213 1.290437122337194 7.069492506616301 0.4538585862293539 0.00022574285756090157 -0.4303227078909428
Ni 7.122349337878535 0.9655315770177326 8.937919015147182 -0.8598059505997256 -0.43464756051854175 1.2087154482194988
Ni 3.0261677209407245 1.5485099962162119 9.183757572399607 -0.47626806427280555 1.2144225259066053 -0.9445590238774054
Ni 6.3533871163085065 2.5897591977288594 2.6468984490456986 1.413670936721404 -1.0163331683969141 -0.18896271261807457
Ni 4.36067493795752 7.263199033792207 10.224745772732454 0.17527210250485944 0.2622342676187161 0.12953629103064143
Ni 7.374874799922108 6.050061912440694 11.277791863807295 -0.16553842015686332 1.013087664876423 -0.5490210277658157
Ni 7.823714982116024 3.92304780296541 8.029846802391546 0.6986011248212097 1.4650855437479542 0.5518502696844947
Ni 3.4326929731833022 8.647341945559573 12.206721435652419 0.4408428906959763 -0.13441624483076206 1.0133203497125192
Ni 0.2736019893711531 5.052691829134624 10.06445103421789 -0.24115225013743627 -0.6296485089108963 -0.027246751531095015
Ni 8.93975420811176 2.667595751662559 5.819455093029553 -0.14814542149139648 -0.18376754157038028 -0.6930876512021482
Ni 4.0504836751786275 2.6243168452283405 11.338593316347303 -0.8003479044434088 0.9939103206170237 0.3354410308196933
Ni 1.2131553095870389 3.5618658218892567 12.534257909240722 0.7385979769291215 -0.19836215155510356 -0.779811989273586
Ni 3.1521303460763326 8.505610120222887 7.953406195534471 1.0482528999236465 -0.11959049267183923 -0.15474698596831413
Ni 5.924353922602451 8.124784844778606 3.4169710623945915 0.18091747371609487 0.5693306858574453 0.829145031180759
Ni 3.360367454613994 8.912299066585197 3.3558504063211014 0.9585213995947687 -0.9789500997627657 0.7182260981409888
Ni 3.907196755704464 5.057857288024021 9.478977189105237 -1.0768818765142485 -1.060115198578871 -0.8322151854656505
Ni 5.2021354663343535 4.7568965547745945 11.573237924045225 0.0346381588991597 0.018117792646633313 -0.3387634103247069
Ni 8.246154940443889 -0.24865318670008052 2.3646697795645433 0.9464449280462087 0.11203144937765869 0.9653859879250857
Ni 5.139658877302397 0.4832577802798458 1.3061299319490633 -2.0545929616635905 -0.9143886709416124 1.3177153098596854
Ni 6.146323148962275 5.710342049285272 0.29612175318772266 0.48492239751369387 0.7921954505396034 0.25354522448515043
Ni 7.913437547965993 -0.03253875335609015 11.487107534711651 -0.6160306610171454 1.2673309438698626 -0.03951194205169324
Ni 0.16860039626753306 5.159793254029727 5.7625677487747495 0.05853733411426048 -0.8427086287978066 -0.3623545673810856
Ni 7.720887792569543 6.284690150726644 2.4267753285917686 -0.11645837480076073 -1.230541542955655 -0.0762586626534235
P 8.617167662821869 1.7318201279654317 3.373446614780771 0.32358593125332014 0.12915988152782917 0.4136653018399198
P 2.127114144770678 3.4907680092179563 1.2996521918664634 -0.36019586916687 -1.4734179748730494 0.07673123141446785
P 4.909641356722299 1.2983762871443116 8.140614066156923 0.05388363739233301 -0.8109105104506035 -0.9734409970190783
P 8.938135455149942 1.7332115279831741 12.334752063167338 -0.6979377802055979 0.5172031119242705 0.1641731643782205
P 6.679238449875323 7.730072851510194 1.3335978052404929 -0.597374736478855 1.1583241402511404 -1.6910022078825586
P 1.8546634707083234 3.5580281041932618 5.927746937939834 0.8571119487073303 -0.3061715924316147 -0.5668523995202818
P 7.062937466532716 3.8610804845281828 5.755273356917031 1.0888182229405183 2.0197856241764183 -2.170787027059371
P 2.507048196674181 8.808898947619646 10.290883653575804 0.1832083266328006 -2.310363990155466 -2.2365473612846323
