# total energy = -340859.27400904574 ev
CRYSTAL
PRIMVEC
9.27042075227690 0.00000000000000 0.00000000000000

0.00000000000000 9.27042075227690 0.00000000000000

0.00000000000000 0.00000000000000 13.56819783945069

PRIMCOORD
 96 1
Ni 0.9277187965472861 7.692020213339783 7.515071987972134 0.5380383035020669 -1.3122468305459465 -0.03560643634969997
Ni 5.188033268395546 0.5908205889479913 11.01653486303994 -0.41235198234513504 0.5814223269146567 -0.5281243868224647
Ni 2.0135631565603127 2.471123304064479 3.4837971616515957 -0.966931992255967 0.09161046251914547 1.2208230301163103
Ni 0.16664415291691426 6.9756113830021516 -0.07767407273321221 0.09909854336607449 0.5492614259113959 1.509717323524716
Ni 0.6932541009087522 2.575712188805083 1.0477197554663387 0.26988715617828357 0.043604366953512 1.4062561323145715
Ni 6.61744868472585 3.541068892819738 5.278300280415376 -1.0511145377421574 -0.25340175692875067 1.98902520306511
Ni 7.13937336216744 2.3116628000383193 9.75427254571521 0.5634549438029586 -0.49330753625359564 0.4685218446684834
Ni 9.23895675108975 0.6066776433132459 4.144134780283405 0.6137907159430332 0.10189178984049549 -3.427897835863122
Ni 5.791537646751628 8.761604255693262 3.8235590021614003 0.8364145682589789 -2.1904402825139244 0.05031443198383593
Ni 3.0511178958842944 6.612526091409304 11.467704909653156 -1.7773123412347134 -1.768611728136922 -0.16254514185649427
Ni 3.553713746461484 4.300622260436465 8.36610957382802 0.47554944093922613 -0.34131188777817345 -0.28369038060996304
Ni 9.062123478937027 3.4112830050012253 12.555114116656453 -0.7133075777934489 1.2896146949687273 0.4350964751305023
Ni 3.742376075246809 8.108632913237207 2.156094945604659 -0.32153470515124627 -0.3202039021549647 0.7143398757127053
Ni 3.8866609008187614 6.453649623878328 3.672747800516289 1.2360673578698904 0.5578617659858973 0.412699852602857
Ni 1.6032358018015271 2.2393906013645246 12.583540007214875 -0.27927322537887384 -1.5256928730173658 2.297276303733573
Ni 1.6042277368012827 5.117021846917702 12.816044935947348 -0.6394557248093051 0.3961380915894339 -0.32743512979608125
Ni 8.693262715336255 2.268221609301351 5.761381895716997 3.25344282994292 2.8957162482521484 0.24793970537291496
Ni 6.418996791830785 -0.10690927100638802 9.024954654749918 -0.13976516784750123 0.8756110359527823 0.5887671973155022
Ni 3.425049579530546 1.1901829433985522 2.019626011605549 0.8238920103119359 0.18649856734829817 -0.6286288093971302
Ni 2.8626502459306975 8.861048057023918 8.068478086588216 1.129514672218616 -0.7093053986125912 0.3718853896896563
Ni 5.941922409051051 0.9421991934596088 2.0034667415300884 1.730061892888182 2.10639014884054 0.9846013845112721
Ni 8.082017535813854 4.7802089271875445 6.681604630200708 -0.13461833353923913 0.547863774232921 0.796501277003809
Ni 7.609856475930106 8.010570404569762 7.396675738851752 -0.2703612676012247 -1.0096788963051901 -1.7139444185010289
Ni 0.17695286057792756 1.8476782510871368 10.848099664871132 -1.2254355891876574 0.5097553973969736 -0.3515968146439493
P 6.729203604558148 6.996275150426971 9.298774139743248 -0.30227045760499555 0.7176661118724608 -0.3624155025260081
P 8.743230282146383 3.8350153878875517 9.370998132230138 -0.38829417006498285 -0.7704619155172537 0.20444563874502208
P 9.062299616927639 6.856477208405316 5.85948055902462 -0.8187127801038416 0.2934631437260107 1.3288530716440599
P 8.805508967458152 0.9926117404565423 7.945645014188552 -0.9523939465407921 0.5541709473978714 1.399616772621183
P 8.165534754625067 7.909420845856349 3.926663692570594 -0.6363544601761622 1.0819952864814142 -0.4443797002046411
P 1.7324840052276484 9.307594944904627 12.860548516880318 0.1576649309460575 -0.08902830361426603 -0.5122056587096792
P 5.398824091053926 4.194605730929857 6.95728283451601 0.7942811294240385 0.9479119995100385 0.13677317509871284
P 2.8592572720062988 3.2063232768741186 1.5459742680959991 -0.5075067105721129 -0.08605096615349697 0.638781581560416
Ni 4.952546045369412 0.482263964208364 7.078976572229038 -0.5509264723186448 1.2468356521299881 0.7675604255997427
Ni 5.734923188401082 5.953250862973495 10.948423229112786 0.781817449739389 -0.797893272255329 -0.8212710277493211
Ni 1.0884957002927478 4.836118833575648 8.208257487768753 0.9456226892552294 -0.9394435570277111 -2.2953335781849047
Ni 4.1538900438370785 2.714647981714801 6.170911067265699 0.4051824611798893 -1.1742811778010294 0.6328549316633358
Ni 5.117846914347405 6.549885859695756 7.330951238218402 0.22273620952409381 0.7192524825229742 0.2381618000505447
Ni 1.3701959698028292 2.5583394206785193 7.759421733052159 -0.250109202220408 -0.8680460791213309 1.701623692152147
Ni 7.389980641124429 2.744304057081331 0.7398361101309282 2.1795501179639816 1.0443617923993562 1.5614240078703883
Ni 1.4937984871088454 9.115715780185514 1.418378980655452 -0.8289491131198691 -0.10644392798755217 0.687960357277912
Ni 1.719996748735396 4.212664510177747 10.314381158395062 -0.7886750960911707 0.5651868388924008 1.2965569306145155
Ni 6.371689835720938 6.055976393181847 5.343807853207658 0.24348012693966453 0.33263595727073036 -0.7727427411316304
Ni 7.128842164413023 2.4952449383576054 7.46539829349371 -0.585282066980379 0.3812454907483176 0.4086413662627672
Ni 3.054297650135848 8.81132152114831 10.828005101268603 -1.9146853547009541 1.8165993117597938 -0.06167716529482281
Ni 3.560295745057994 8.136193873557524 5.5992830299998975 0.352951786009947 -0.12221764588204113 0.19226735151127533
Ni 2.888829913587803 2.314128731906871 10.969575547701035 -2.997838408935895 -3.0525625399516527 -1.2155124165366742
Ni 0.3691592711427537 8.29700785898522 11.548394650194037 -0.7176162324711319 2.1068364923493395 0.905304192141841
Ni 1.547001430693877 7.4571448380705085 4.225082238515812 -0.42674527495232956 0.10276467936375205 -0.17024662426581005
Ni 7.659481037179569 5.877604231216419 2.072881796587764 -0.12738016391958706 1.4959194984096753 -2.4958937658325917
Ni 2.586855234316358 6.4148714546822685 9.130311130312762 -0.4656051852423207 0.580023132574285 -0.3262963882059477
Ni 4.290128144364283 1.2248265050255367 4.316585924638142 -0.5978730162715122 -0.32996689507899946 0.5263387556769515
Ni 7.135785709411313 7.196432800704793 12.591925102610006 -0.37414718914063955 1.6740462967545104 0.6343690543150171
Ni 3.5191165369372923 4.762947404107682 5.294066484659158 0.4045849368052064 1.1464088768707934 2.252152671922057
Ni 6.621351531780964 1.0650137250181555 13.04143945211148 -1.8960309728245606 -1.365103569335662 0.7393374261983073
Ni 8.761919449992249 8.117310026879931 9.421213219269175 -2.085840349713646 1.2717509273144292 0.8877286451519227
Ni 6.959202738613669 4.374906140371446 3.3692008579181283 -0.42408829694545674 -0.7564792280849166 -1.1092178696427928
P 0.8302134401554051 6.616317693417717 10.545502013338158 2.3093738583280548 -0.959105811343329 -0.9627161544024067
P 9.026627038618663 3.4472615071886286 3.819772962405323 0.2889832535777862 0.14424531510604188 0.29423370334344806
P 1.1045335278588926 6.230260299680993 2.2625508930457383 -0.10990026196726879 1.780420547846392 -2.0774747513577707
P 5.634774835107982 6.307427280409657 2.124440167565724 -2.5726288539018016 -0.18014845676055424 0.6746808665601864
P 5.213582547454675 8.761353954338183 0.8561706177191076 0.8952766327025097 -2.1912982596388457 -1.9096830163903562
P 7.287857688252376 0.06304534909195415 11.306256827459261 1.4007812252429293 -0.40689841542973143 -0.9918423823444015
P 5.641662757582922 2.672662247005512 3.450270685701906 0.08281883236944447 -0.8253385129504753 -0.5819458035182945
P 4.7631513533599685 2.452461947480288 12.336503694257006 1.9946813729096229 -1.9327131587369422 0.36085792823090107
Ni 2.338825132274622 1.0058313601729136 6.249592834713615 0.18823431909248228 -0.4140370833570418 -1.5314040644695304
Ni 1.9885886435758076 4.995514444657898 3.6151516046286005 -1.1216951761741973 -0.9219564559865412 -0.11710603568708865
Ni 4.526245755988391 7.498268423667859 9.67432814698723 1.375369470038044 0.8118538482004793 -0.7626293068467124
Ni 6.882406574707343 3.0455927252314487 11.96413778464308 -0.9824910230364886 1.2290027377136252 -0.5074429472137132
Ni 4.664653134926276 2.929286028904945 10.322114543224934 6.292478024832099 1.047524249287738 -4.005700306637004
Ni 8.554540142099382 5.5656545794240655 11.557349876453515 1.4348568267703998 -0.39266555965980116 -2.2623334691098007
Ni 0.9237640351370449 4.946529542426968 5.774231625653085 0.8911698096229879 0.38497127633933703 0.04469914267958753
Ni 3.873552526149091 0.6402996045946874 13.260620005375273 -1.0267281384779932 0.3433392026208474 -0.825057748485263
Ni 8.87056877893746 5.79352151675114 3.9806110509264707 0.02203486831285237 -0.21749835816392218 0.1026518079349716
Ni 6.482628958544091 5.003422113394269 8.621150894938124 0.1998518487267526 -1.861601587502097 0.5216729747701662
Ni 1.0133589416663875 0.3286920313209415 9.450330683201258 2.16689797641761 1.3610833924326753 -0.8231106520612211
Ni 3.3844729487461436 3.7243636481017113 13.104531153306228 -1.4244148055014694 0.5367041580716756 -1.4303867068141882
Ni 5.130028246961228 5.322843724156745 13.013949874029462 -0.8326049647049014 0.5615754673920585 1.5908883358780923
Ni -0.012737557847331158 4.885400389264449 1.0294412672512128 0.7885892212455837 -1.6976132854411732 -0.7805365261444364
Ni 5.115334630376061 2.899194243772167 0.8772830734989562 -0.7973566830255687 0.24578203559996378 0.8888776711547014
Ni 8.686059598562329 0.21897845809561772 13.563869367473506 1.1590412209228231 -0.38388061437831955 -0.7937478826283879
Ni 8.754419679760451 6.004701697072977 8.942893819008438 -2.2084053516327775 -0.7668667419668277 0.08170657314187219
Ni 4.113480280622729 4.242394748908746 3.1944960743256288 1.8830278756966732 -1.9714059473214498 -1.2367245318379152
Ni 3.2933447146564307 5.292724127762293 1.1967241521446053 -0.05418188535904218 1.303998217383909 1.184117704275477
Ni 2.6952542619064914 7.323984517168715 0.1848939028283088 -0.4015415219931923 0.4102120531839967 -0.735975708814926
Ni 7.567147648417256 8.065219533761915 1.8010424734257218 -0.5218838052293916 1.9640353658889915 -0.6231783278055203
Ni 4.715130574867119 7.799844474855291 12.216099472043659 1.985183974942149 0.9317004227471825 1.6570448771005075
Ni 6.8766959956433285 1.3031059362212167 5.379220859740996 -2.850481287673749 -3.236344479699736 -1.119521565561646
Ni 0.036041541047200934 9.389823575258212 6.189255375466789 0.27596061606587313 -2.12523273546834 0.8023687915281794
P 3.0458337561659694 6.310199136156638 6.898871768661233 -1.7384786561969674 0.4593196093439251 0.30112888780138464
P 2.3571712945598247 0.09878189330278159 3.607742684518275 0.4381594303265422 0.5920836632832448 1.0435621793161962
P 8.83197601815257 0.9463801531314765 1.9636298903062517 -1.2797054062748152 0.004526170005127689 0.5667259012447465
P 3.625179418546692 1.3947347730210866 8.92038431085043 0.049910254566881786 -0.05282177178672193 0.297594649395881
P 7.205276781917568 5.050080140065025 12.934820345268571 -0.3013749423739197 -1.4365378140172484 2.3311888973206174
P 3.812247234995961 4.732419909208656 10.790868723553446 -0.33672298285591046 1.379953746974617 -0.375603719081508
P 2.051590421691137 3.2031157113608892 5.897946315047859 0.5457986641737761 -1.1069010485841582 -0.8482863799959004
P 5.8513596706154045 8.309541467580265 5.893604050058274 0.40381951939409166 -0.8415999691146603 -0.029448644278420248
