# total energy = -340871.07685006096 ev
CRYSTAL
PRIMVEC
9.27711428523208 0.00000000000000 0.00000000000000
0.00000000000000 9.27711428523208 0.00000000000000
0.00000000000000 0.00000000000000 13.57799450151657
PRIMCOORD
 96 1
Ni 6.867819752414426 8.816839380975658 13.244178818001801 0.578775633320429 -1.3355261127888611 -0.4126335181412958
Ni 4.6837180520277215 8.686570144488945 3.4964422639396355 -0.5458930236597954 0.39914859628098354 -0.34869249651296075
Ni 9.240924098787726 0.5039949957158989 4.019032307199614 0.08414346471813897 0.11886904112478237 -0.32176944686987163
Ni 7.546514867276616 6.149984493075848 8.501887850548487 -0.004961457770333391 0.5372338053229005 0.8321028282575024
Ni 1.8260143724312425 2.9260574564398136 4.870847648673293 0.5984013779711566 1.9366824277973356 -1.0238937543529913
Ni 6.44051587600238 7.689790617760933 7.045485764945193 -1.5747292096197267 0.31073504343258096 -0.09114714972948174
Ni 5.218534403987732 1.0589732997950205 0.25123723835573564 -1.5420335191589185 0.33263647149136255 -0.39105939151494584
Ni 3.2180267920550962 1.60017230627026 6.829486716866563 0.029885731815838854 0.17606194539600645 0.4907749996397289
Ni 2.472118985386452 5.1699130488797085 8.926092243132716 0.06778842039888326 -0.06515483943077811 -0.4087372684106832
Ni 0.41720295455712997 1.4573604114919918 6.260419259571918 0.05457552125303504 -1.0290395602199889 1.6568299328762242
Ni 3.747044947689497 6.018871039204128 10.736812365224122 -0.38146711984082043 -0.34170732344437926 1.588295892560568
Ni 0.533886785125088 8.510453410016382 1.791508146458281 -0.8185256037937001 -1.044257662721324 0.7292859554995763
Ni 3.34993807774122 3.4009807596348174 11.19413327208599 -1.1096027637860375 -0.1742338910483322 0.09768957883368981
Ni 6.452631787044372 6.869276259331419 11.391217212183367 -0.08702130048656626 0.08718816508173372 -1.3065793478475238
Ni 7.625926964152151 1.5718863853154115 12.057666536405872 -1.1174605692675594 -1.657567582373197 2.704324100256975
Ni 0.9366174416534991 7.25602986992069 9.50490809194568 0.06238730398796997 0.08171017268629799 -0.21596803756232485
Ni 4.033494400402801 1.8963534516964646 4.504784785708031 0.6794798306107266 -0.9217317415702448 -0.33321522681296806
Ni 4.991282216480361 0.22916141759346675 8.274144903704117 -1.1923686314303594 -1.2254317325329154 -1.2330699658044635
Ni 2.643838367765674 6.439133585998356 3.3434042062658187 0.5399337207525668 -0.18671968222016874 0.576254152450156
Ni 8.46497699659537 4.998805956032471 6.4780473688901905 -2.221183220123736 -1.2660471920614325 -0.019624459099146847
Ni 7.567054397940452 2.7505808428415968 2.8058789369824844 2.562884630030844 2.6029097642735297 -1.9202186258143574
Ni 1.3490315499013825 7.224153705801024 12.254709657201115 0.26397619001048733 -1.4938628729909627 0.12188160269886106
Ni 5.700777350224183 2.175325550428263 7.031092322386502 -0.6324605244383946 0.16187331260045026 -0.624765469786982
Ni 8.022004074433 2.2236871463408985 10.02945375086236 0.014696168559594044 0.5939788234234287 -2.060174569516426
P 3.868204058109413 3.689628888394791 7.800177143263575 -0.3946175411798494 -0.6611753758745839 -0.9738744850120711
P 5.098098908469252 6.9477420905666145 9.288909971578464 1.3866450429518635 0.22837438164647766 -0.8903969360127052
P 1.5781298831188268 4.7093507183439725 10.96232973239087 -0.8112972043660609 0.15787139052990876 -0.34389661778621416
P -0.11227349051484725 7.53092931555338 3.6571237359377236 0.6010393298146358 -0.8744990338355261 0.32567392413060037
P 4.878760099307072 9.346599705739736 5.788570391996606 0.565300995872762 -0.0979240634419991 0.8230769706098083
P 8.377150557212111 1.696969715008499 0.8822683962871871 -0.6692416978224861 -2.2544113860492465 -1.0174719099870477
P 2.5030117754092944 6.144585212657441 5.841605798003387 -2.2905981203824486 -1.0684023782883276 1.5819396113252369
P 6.192046928500343 5.988553430256785 5.165028648295016 0.24417715300668913 0.40329244324602803 0.5051065857710527
Ni 7.805578279104806 4.9211379566116795 4.056969209974512 -0.8534938923387688 1.7676437077966975 -1.0915338220994684
Ni 7.345860165954077 0.4336002537659509 5.731135778473657 -0.8291458025117076 0.4067420923575253 -0.19432217715777503
Ni 4.869482985186099 4.299756852788865 9.637280450203617 0.21596803756232485 0.5842533686055486 -0.5904139888903057
Ni 0.9684750515449226 1.5675725272491587 1.7553088471582419 0.5130906324177938 0.6016391681821639 0.4963725483321645
Ni 4.266349964839239 8.043693967247835 12.097083138883063 0.2961378623446964 0.8656665231455608 -0.7177779548599768
Ni 2.67238404791591 8.904582326331827 0.1137299974318401 -0.05031546042510045 1.3316663727231386 0.1283096177123919
Ni 0.16134107481208892 4.5473259202211676 8.81239007704324 -0.3181364781029747 -0.304050946544186 0.23786072387035812
Ni 7.595034174129308 5.485492639932869 13.017291221079386 -1.2536025385401766 -1.2020385504199558 0.6030728153048968
Ni 0.7717260152673135 5.539188576465064 4.865321271791429 0.10549133426629574 -0.3143775252811747 -1.0433032692278548
Ni 1.6464001659350715 2.5904392988853497 13.07353094230355 -0.07017414702224044 -0.6437260700498849 -0.40450986059289684
Ni 6.703086036968297 0.7963484038557898 2.0838689762894687 -0.2281499243404974 -0.7080499289389354 0.10666889951416467
Ni 0.15020668244409638 0.06544911241205696 13.262781287237177 -0.14743991078393962 0.8057235669330253 -0.8463518819773488
Ni 5.568142449636624 1.9890503759932334 9.5444341643695 -0.22310002062141573 -0.3873117515470556 0.39573777082722167
Ni 2.117584792139323 6.765752942855475 0.993404512610803 -0.42760325207725064 -1.9758097328161004 -0.2978340191001967
Ni 3.357730853602838 8.138134988999347 9.808444133446992 -0.07775041670760158 1.0428903500601523 -0.6165772775492349
Ni 6.950488116346422 3.707106971398705 8.44213117536106 0.6492081762103786 0.20318271287219844 -1.124676113179392
Ni 5.121300970885806 2.949407952682304 2.1669937742362166 -0.6267717015837335 -0.20118393727461478 1.4486888475574857
Ni 4.060889718402035 4.908892165971995 1.4051729337158667 -0.26922509711425247 1.3189949479030574 0.9093287399202016
Ni 1.6351934120769356 0.31257380607796503 8.310424913897009 -0.39354153450685125 -0.48851885661570066 0.3053069304384742
Ni 7.489330735834934 7.0054828488555545 1.8738583053759277 0.38654916234941816 -1.587120641305544 -1.4682536570632907
Ni 5.153761593195093 6.212465856680606 3.2236329521184004 0.9184322448833667 -0.16750685673714377 -0.14188658506587823
Ni 9.038822167662316 3.429860415893408 11.733477783448448 0.5351838647724074 0.6802583606479639 0.011225950622806473
Ni 8.798164550250139 3.7070049231433746 0.5809987537656286 0.920956039746485 -0.387786377190629 2.0530027343583352
Ni 0.40150700517585464 5.738850626576659 2.396190444863343 -0.1078904306260916 -0.5893855476257914 -0.2854932381466567
P 8.85858639452004 8.345339332891294 7.678396466197554 -0.4918360939143917 0.21145986527932611 0.39360581208588347
P 0.3474344178103477 1.217547011464823 11.215219224771552 -0.3448546108241093 -0.4070328841250668 0.5926012263496117
P 3.4034206406486334 6.310265193743911 12.948586769322278 -0.7046313901756898 -0.40282193136751265 0.2449333144464233
P 3.6124061904518063 3.931743012723961 3.6646326321072396 0.23728428254159778 0.8032820473710682 -0.6891410078495744
P 8.709605218851323 7.174159337803096 13.429654305199604 0.9626400497488324 1.2458565760461704 0.06540732176121639
P 6.464534324461581 1.7513892664421304 4.117866042487407 -1.6834652760755653 -1.022798978626916 2.249063491473772
P 6.889936392478828 4.336132417257202 10.475450084516755 0.5378470134268672 -0.30007113596083157 1.0902816948599223
P 6.30788097541482 4.9399704982772565 1.3348162279338147 0.016287167195797755 0.589026878734792 0.373340376968628
Ni 3.3834933995167815 1.2684598137607264 2.1628385548214326 -0.17285295154040553 -0.5346806998837438 -0.403614345361821
Ni 4.762369425545336 4.63081994730993 12.859080244571713 0.09117671741583654 -0.6267465047727527 -0.9138641658967099
Ni 0.7191108625302116 6.419141405067657 7.2211163786378165 1.5230094126479319 0.8268742328687115 0.7680877588581223
Ni 6.689884703574152 2.9516066287289746 0.5384446312927224 -1.2268293842113904 0.1596192264589509 -1.7934462706820986
Ni 6.8593219158796135 8.50042484965161 9.432496505385831 -0.09118314517373974 -0.15340152768401322 0.624791180818595
Ni 2.026901001606806 9.112352574185152 11.40316613517118 -2.3996866850816994 0.8146640639557647 -1.4338448405661177
Ni 1.3302546709205318 2.487491163484905 9.77663105370335 0.07478233521821315 0.5289952194631922 -0.1539293751630252
Ni 5.390968124154268 3.820603185554697 5.169929747685127 0.6812587768880203 -0.5742718319128045 -1.8279605024088843
Ni 8.709558833280719 8.22599853683909 11.134037054521734 -0.6504842147093248 0.5520690705635202 0.21066745128501782
Ni 8.607028168015718 5.619110914617253 10.796392775243252 0.5596803072518748 0.9344782426026358 0.038321778398334005
Ni 7.233328771666666 8.327462333980177 3.7398681722055116 -1.507659412554423 0.4688275488343603 0.7038065802815492
Ni 1.4375259415013502 8.228317815369332 5.320645743694465 -0.160619128478375 -1.322199570883284 0.353831617511739
Ni 0.7652357462282804 5.104073369963158 13.185155962541343 1.937358627928754 1.5567250597328222 -1.1103049320593845
Ni 1.6857907924927258 3.783541114641407 6.977799012607156 0.15790430065037322 0.5788802772190934 0.8456947080093241
Ni 2.1213791318148014 3.7859067787422553 1.7156204252373044 -1.2284489220926844 -0.3038596564689864 0.6728412422482863
Ni 2.947580361200472 7.565458734311645 7.606242783410268 0.2737240134258705 -0.263251653139637 -0.7002283760119875
Ni 5.414003198516646 5.064506478237206 7.059076737132418 0.12309773449414929 1.483134173719549 1.4211227650137592
Ni 4.134893257745042 7.088281092385244 5.437348128490665 3.3074992454676915 1.7844304403367333 -0.6768601335996923
Ni 5.5994990953655135 2.8717677846038754 11.777348328415119 1.2442532361147927 -0.7360638976533581 -0.29229791977331593
Ni 8.272745914894674 7.184030187227813 5.7147199250365945 -0.01582051197202437 0.7616044651266239 -0.8061580833672826
Ni 3.80033269120037 1.0111033909307965 11.741353125625741 1.0025227448763832 2.5993135622818397 0.8142326328453009
Ni 8.335718965547844 2.921196248640423 4.960190896215329 -0.15695042137753615 -1.2216036170360767 1.7688163879485603
Ni 5.43224200487848 6.729405209729499 -0.0007941209687553439 1.325116487419763 -0.04388384586714378 2.009169282113153
Ni 7.686051940770181 1.1426714233944448 8.027459945247545 0.6136274508922916 -0.5848231250660896 -0.4451502598220785
P 5.735937612742673 0.3011648111319916 11.221289240540903 2.1321464318690375 0.013871872886085787 0.3207268645379702
P 2.040111612115072 0.9160296699962345 4.946367996175079 0.9831898488757261 -1.3106252357821233 -0.2027492248792057
P 3.1777455625418285 1.317869723569032 9.673981641377601 0.41223602559256106 -0.7977711448551681 -0.9476170939774389
P 3.6287710197612038 2.6761320020207835 0.289372671372822 0.7381256652783933 0.12751566105618684 -0.32195379496653587
P 8.704020396150497 3.0920806907487575 7.242244078336923 0.17587631174776164 -1.1331862075329322 0.8907347789680982
P 2.6104314798160484 8.396549002839068 2.209397607460363 1.4730546779963598 1.1884551553085663 1.438773902436619
P 5.7069559082287515 8.241574811448203 1.5587945218678934 -0.49054308613458103 0.19972586467184958 0.5169891961412516
P 0.4594602093781649 3.5279566206085833 3.3767387327253005 -0.863139900068965 1.227616141778744 -1.6574115164113066
