# total energy = -340856.86914122675 ev
CRYSTAL
PRIMVEC
9.40518249065075 0.00000000000000 0.00000000000000

0.00000000000000 9.40518249065075 0.00000000000000

0.00000000000000 0.00000000000000 13.76543526548223

PRIMCOORD
 96 1
Ni 3.512045596259965 6.573677006719402 5.1382101002833185 -0.9991543426247824 1.006797718102653 -0.8145169968549392
Ni 4.215590861547554 -0.05612448553656436 0.6982228725595767 -1.0028415616683826 0.7052587393470434 -1.0005802764380316
Ni 5.043350370975205 9.215150703203753 12.03692362759859 0.22203866923643695 0.36254817144913043 0.42568289512608626
Ni 4.907492511006764 6.82320590134195 13.288448678975291 -0.17282698339847657 0.6313963448399383 1.3904693017939602
Ni 5.808095158229887 8.731112990273617 6.998842980329879 1.223439384693235 -0.9128326393084021 -0.015016013792858012
Ni 2.3425958097361943 5.534093978966433 8.237566637923054 -0.05405821529698432 0.8171377223072378 1.6586173637939499
Ni 2.530596001007164 7.792804966753266 0.7316780469239754 -1.329501503861336 -0.419355924466794 -0.2883484482072647
Ni 7.6369046630608555 6.983752365146815 6.3663623328432974 0.26865431221244696 0.8203318037645034 0.7555410325413633
Ni 6.086516773227861 5.4188052529371395 5.757475525960164 1.0101653490233056 -0.8529601313224859 0.0335634377777422
Ni 5.128674185833889 1.5987117170754903 3.0093997299239765 -0.8651546165061487 -0.5091635294492457 0.6176854230117491
Ni 7.0345403501817465 5.767793951586428 10.625911135956825 -1.0414068235360903 -1.2149570582538365 -1.8164848976691166
Ni 0.20561139534095277 0.17320960140690816 3.7093305836099133 -0.676511492011022 2.4718891753878784 0.22055385716079434
Ni 3.146908199406052 4.383642660918692 3.8666002818617837 -2.383193315412367 -0.5208054845635482 0.6453114122591337
Ni 0.060263706316911234 7.49569525429892 9.477378475121514 -0.011267345383703177 0.027967688857519577 -0.6541225827928605
Ni 6.67977686953034 4.275379606152565 3.699915055495382 1.8295031643056554 -0.09548254388004201 -0.39139800580128725
Ni 2.8877578031741096 1.094622155238972 12.60478879086536 1.4248004709756623 -3.6996914650354995 -1.8606407662507245
Ni 5.48684234251912 7.646874156419565 4.774348046164727 2.2414116313554686 0.8346939860234464 -0.4648564800017542
Ni 0.2321424744122559 5.136433461325336 13.695011201771122 -0.387922388547861 -0.6087454402096419 -0.19285459147331302
Ni 2.3403761866865196 4.452046552614814 0.48139955926304223 0.4338358632505238 -1.498558221584103 -0.12436246013918582
Ni 9.197318477347043 5.114557007030661 8.779910838709773 -0.45975978220513725 0.2643765107726995 -0.0033252077184910476
Ni 4.583154795464247 2.401745001937061 0.3999243450481162 -0.9665085315653031 -0.31040465667635575 -0.2107785229415854
Ni 7.694671293446883 5.7444126681055305 12.637399379848993 -0.22916036788288274 2.0110718984525042 1.3906914451070953
Ni 1.2259090965542687 0.603694205672432 6.599287318432387 -0.532397817386838 -0.04178248325342482 -0.6119559767271396
Ni 6.8942056233843 0.9685362797985488 10.712316546793105 0.4768637888752754 -0.283428385197828 -1.0164527246939141
P 6.885693933299743 5.691564948121961 0.7202225347438743 -0.7849585664715321 0.2705515292351599 1.7792416970469422
P 0.22368439386745714 6.9161573191382875 7.386560339123026 -0.05604953469540025 0.20039280883188715 1.03233288625928
P 6.882345688360402 7.923085553550278 11.04428374630976 0.7631448130305503 1.5538006869971757 0.9025664814957036
P 6.7957521738758455 5.3117084407903326 8.062167510050196 -0.3179966100910007 -0.4354142634812372 -0.8142035793795783
P 2.6767995616308684 2.972253961980373 12.757874123461297 0.25209820762597873 2.4035330554109833 0.3808413133313635
P 8.292944351975958 3.2282065961915976 0.04921731957181373 0.14491277348671172 0.14186807312311697 0.2383438341543637
P 1.2269812873494506 5.619455414554773 2.0079913970706893 0.30110883319672654 -0.4371505294460536 0.6369432428000965
P 7.304008231521711 0.3263946289364327 8.400701407928219 -0.3564364021244377 -0.47307192593301106 -0.024675648369809115
Ni 8.698862619776436 0.9161945586288455 0.8815684390539192 -2.131029801766091 -0.47232707734718654 -0.604216956211669
Ni 1.5339758465207811 8.723993267186314 10.970625179199006 0.4193235285669617 1.333262513565665 0.1418737295500718
Ni 5.023985100385034 8.737207548477809 9.08575138199892 -1.7482712168073566 -1.4790024109393625 2.396263518332763
Ni 0.3491448246773576 6.844339346225929 11.794018802950134 0.451729455701493 -0.6469129524182988 0.699725211123324
Ni 4.897438371006331 5.863651570748653 3.5093322011335615 1.826628413861022 -1.0670965149927105 -0.5283958953162965
Ni 1.56017868472584 6.031148464357372 6.014738302081641 0.48930509996242183 -2.631386017336352 0.26933951120492966
Ni 3.058518295080445 4.93514374730356 11.959506749595251 0.7241620040094495 -2.4094116256789473 -1.8582105595426774
Ni 8.904751467998599 2.8878612601806624 9.696345229490174 -0.10702628285358343 -1.4714809057513367 -0.924533215574782
Ni 3.389872276703714 5.826463479484187 1.8449676082180089 0.3761104835145974 0.6840558800171832 0.21969073782955065
Ni 4.620916602855959 5.39060851606034 9.142808861630941 0.7101440924638028 -0.46079362278629027 0.9254197319447933
Ni 8.56774497174459 4.212327263249939 11.391076334865406 1.7581612222275593 -0.5051706062397687 0.6153572890992048
Ni 3.052705892348669 7.701198490042113 8.096815261544673 -0.5379447153469961 1.3713703761809801 -0.5669791549061332
Ni 0.16804051315224183 0.6928195952628049 8.877921304126534 -0.41895946035932363 -0.5236583806313111 -0.40198272329566903
Ni 2.4198970039958425 8.928875760890191 4.518751868366988 1.0505686925410165 0.4160875381281673 0.5431465712629098
Ni 8.860744619484072 2.7707103080334217 3.527791752657276 -0.6202449562088093 -0.2698485896308643 -0.6924075944159881
Ni 9.55839283539816 5.4778697984962825 4.060555834637221 0.03438850478219884 -0.8178198359759269 -0.05753357544009446
Ni 0.6148026666214611 2.718558571548478 1.51192633686969 0.7415043519426391 0.4436189107792166 -0.7842797952369526
Ni 6.9773568411053795 3.2055871324862255 7.198496192611642 0.8731026677086319 -0.03764892070102548 -1.5610429703818856
Ni 0.8675989216145891 7.549135500774564 3.2024871843626115 1.6983815310657653 -0.9925748896350517 -0.6259219519889284
Ni 4.18658527898316 2.8513127213203395 7.701967833963569 -1.7255182393815574 3.740986467129544 -2.4561537669304925
Ni 3.3365260820522087 1.8288659359254529 5.453039176405407 -0.6886848941487623 -0.5478948845811725 -0.3152923237859602
Ni 2.757778182214342 2.0803040825780172 2.4496418338979664 1.501129838966021 -0.7011287763390699 -1.3062939553966213
Ni 8.82288876026822 4.888381180341769 6.3623011750769844 -0.000970077222753168 -0.7668585144367116 0.02812324059877737
Ni 5.434276778007966 4.528915108483424 13.14132435099327 0.20671977949117945 -0.5608113355325245 -0.19298803172738377
P 6.9263337265101015 2.084715113130125 4.39991456701294 0.10840953635435524 0.7171557478949456 0.6235051150173198
P 1.589720362687825 2.6482360226399266 3.979849023825508 -1.4822216892076086 0.5892119981624047 1.7462919815937992
P 5.20930481466805 4.273855966601516 10.918922069915205 0.3273759944233717 0.38528058004963966 0.6706848580269159
P 0.0020230547372247533 2.8186955487090177 7.450886143724491 -0.4493691829994325 0.09561084192779017 2.5822334668711013
P 4.210747192604408 8.989736696290382 5.673011344774108 -1.4128705523072957 1.5460860919617374 0.5312253943452916
P 2.1118584695765716 9.291548999951667 2.44845772143206 0.8146684348311389 -0.027051604801153414 -1.228601902730781
P 0.17084890062102526 8.251674411543869 0.07311588808547295 0.41163130212902654 -0.7481411405328664 1.2602691519270748
P 7.425128170647607 6.287223365939977 4.200454160970662 -0.5001050187914032 -3.089483581347718 0.6467147203645637
Ni 7.1684419322081006 7.919436342773695 0.23495556447224628 -0.7601844448506456 0.29149393581478183 0.5676638396779836
Ni 6.83487773271757 7.287662024486394 8.941957429109651 0.7099638581321968 1.3645983475644692 -1.7322105638000682
Ni 4.676924464130591 2.179763886604757 11.269390203758194 -0.4620555202178494 0.26569522958412306 -0.32861423770584697
Ni 8.422002265059165 9.042471554084987 12.316347835041883 -0.9536288473891577 -0.3122303970311849 -1.1539247256318643
Ni 8.515828364819994 4.4241695919400845 2.0664257954081013 -0.8764098777049938 0.26062295726753826 -1.3470839928297897
Ni 6.470483345274354 3.0522168228631474 1.6793696209386506 1.733521569302008 -0.06679623168894303 -1.5318725194655167
Ni 1.839042343297267 2.563636406827111 9.2513907520809 0.5312194808080206 0.07162964852184438 -0.07017517546350495
Ni 9.099128372946176 2.1368950651623098 5.592221768357153 -0.13975565476580448 -0.7455607814001999 -0.11345198387426914
Ni 4.662318215841842 6.387821197038797 7.105566406734856 0.20414584811641617 1.0361026377143574 1.244357880013457
Ni 3.0673873820967295 0.7796341315340883 7.948630028986367 0.15038613789645716 -0.47629506085599904 -0.20632331538370915
Ni 2.7956904725246767 6.713428612207188 10.15593134918071 -1.1088178059908969 0.13179526226814722 1.3630556856676976
Ni 4.951489954338878 7.155914229232817 10.947085888653556 -0.8078799511543958 -1.4103349303696358 -0.20553167272034925
Ni 1.4622707357973896 0.7281717949200824 0.464680907004136 0.8380438763322858 -1.1382111715513494 1.2166107918071756
Ni 0.5181898113114014 2.3108439139069485 12.529367692570245 0.20313386191213406 0.7182001299990599 1.220416281596195
Ni 8.788597465187229 6.656828224440481 1.7487883318172288 -1.44498671611555 2.0001117998965747 -1.5871820906710987
Ni 7.280062637095982 0.7270572808040381 2.783591645867466 1.0587640838676153 -0.9345875144869905 0.33125913152786174
Ni 5.18533100469508 1.4168342995559542 8.688398413822757 3.814061846958979 -0.17573721506673604 1.8619743974604837
Ni 1.8879681022142505 3.827476604056542 7.118120444220898 -0.9124994243386995 -2.7721150917590194 -1.5538184276089886
Ni 5.806326983936077 1.4298040461046893 6.079132764514727 -0.3982384257618883 0.07586759786259191 -0.07588431003314028
Ni 6.503514345911887 3.4912883586725405 9.324664647230925 -0.7713263204000781 0.21957606662855733 1.9797990564811518
Ni 4.3979949692822675 7.941275176338714 2.486492279113775 -0.48327586304920644 0.11159359050929168 0.7735366977878355
Ni 5.072243091350632 3.531514323856688 5.0578747941769535 -0.7852313605169444 -1.8740022751592953 0.25335033486552494
Ni 8.150578105777115 -0.12121022887706988 5.798538552379147 -1.013089721758952 0.740696254219047 -0.09328425067714256
Ni 0.6301839019411142 7.896826284250736 5.494652405995603 -1.4211852428205782 1.3302242409599734 0.39811218459666925
P 6.103615394856288 0.5378033787172987 1.0238603843116922 1.2013572080822148 0.7469334933780105 -0.3914532845192549
P 3.1651824688362136 0.6849333498087697 10.106555082026103 0.6583168233798663 -0.0432518687100997 0.565291225680749
P 9.265807015684889 1.0347581691746506 11.038763844751056 0.10115208346099352 0.160951057896497 -2.090278330880342
P 7.854324264922431 8.200858210961696 3.7059851602252976 0.9767446074710145 2.9655854624394604 -0.4727741921869342
P 4.5641187062585615 3.6606098576695523 2.486863783819123 -0.04045322291904001 0.4966301728689254 -0.9097457728529623
P 1.2455847381640976 4.567278847549624 10.337951725472939 0.2690435772310657 0.08088304879931231 0.13888379368381243
P 3.6606662887640353 4.647552079452057 6.194033056510327 -0.08991250599143225 0.2838405330345821 0.34744628281068546
P 2.8303297593549823 6.819330966187432 12.508017928490748 -0.6460233507244938 3.2900550818493146 0.0030079335883883684
