# total energy = -381170.92510196863 ev
CRYSTAL
PRIMVEC
9.22663660879222 0.00000000000000 0.00000000000000
0.00000000000000 9.22663660879222 0.00000000000000
0.00000000000000 0.00000000000000 13.50411531968895
PRIMCOORD
 96 1
Ni 4.36096048495524 0.2849997275519157 8.552236667202411 -0.015589884018457019 -0.41021565272842253 0.6145584473469932
Ni 2.9132735481989327 0.18996260426765096 11.869847258619664 1.4054979139923085 1.0467567749940943 0.3895182722800711
Ni 8.109715189092684 4.601545030030355 12.741551266543237 -0.04458935657460062 -0.2256641818041662 -0.49779591104225235
Ni 8.219659788866993 0.5861230022761713 6.319804002943219 2.307232643615336 -0.7699898609768416 -1.944897616618276
Ni 5.3972317030193375 2.801788100139772 1.394394807364194 -1.1555108391720614 -1.5450347678790874 0.37248214273339075
Ni 1.0016344248824305 5.594561776481331 11.859543873711308 1.305291739384352 -0.014849920528638942 0.7163507354951469
Ni 1.4614346250463142 4.386389094973534 5.326536291981177 -0.7540204821317789 0.6604492963418368 0.5158728231486213
Ni 5.805602631687586 7.74995018117058 9.20491785673873 0.2997278936888 -0.1159904340254067 0.824631716691438
Ni 8.813172404264954 5.47066650241542 1.3339391174429795 -1.0549092288978994 1.8112082226512096 -0.21995401879326634
Ni 0.17782496403576933 7.524940198399849 10.783683926690209 -0.13676109091385477 0.3249290755447759 0.21047693254076658
Ni 4.261460437626763 4.703628535560981 2.1886928715695224 -2.316681961953694 0.447090671377901 -1.8533470608027887
Ni 6.478759572803223 6.418961742059912 7.568313693622998 0.6342854934622754 -0.8982040907619498 -0.07790056913222068
Ni 4.112727058274477 8.72280672700836 4.906625609122115 0.3133825083577571 -0.4884692343246878 -2.9685627999002295
Ni 5.76853000648675 0.6195640233757014 2.444015123024253 0.6155902310456172 0.14047633498191292 -0.02500989178077628
Ni 2.817611781627934 3.830447343143967 9.230873307697534 0.5524506222726551 -1.871569754458403 0.5507632072679031
Ni 0.8596614020469823 2.0432294121702426 5.398324136773389 0.07116890683534195 -0.5391171383885424 0.8496871169981688
Ni 5.694301716357151 4.294371849794852 13.144649172488167 -0.17107631925595695 -0.16999131372189435 -0.629867824010554
Ni 5.391252842608651 7.530134794713455 2.7277904759210787 -0.5959207776411479 -0.4189815718465107 0.583154479114415
Ni 6.141516784421995 1.9204782410224255 4.402395463863134 -0.6390525758336155 0.6138318535936138 0.9723991860181255
Ni 2.0157801687724106 5.627417828830803 0.5792039476126305 -0.3629117254361363 -0.1755001593552655 0.8904036208809246
Ni 5.679714404151445 4.3656937494470345 6.103279757702904 0.10074199250676844 -0.662848906922265 -0.7549980155536997
Ni 2.2250864163286512 8.047905951606273 0.04707245377043989 0.34602934785850087 0.7808594567014939 2.5991235577582206
Ni 8.075853433371663 1.9072380177364125 3.16478427614185 0.9371089953572636 -0.4800969511005926 0.019758413573849845
Ni 6.772526450296859 3.1281895907084105 10.71841839119478 -0.43713047484139556 0.631431568953248 -1.607415644109154
P 2.5799982134852906 1.3473933986943134 9.465898804319808 1.2103259872397285 0.4513764432374484 0.9705796163108832
Ni 7.8002168964752485 1.2348007542628034 0.858799634203837 -0.4708533210151375 0.8548478352635019 0.3961856569979177
P 5.048169593363279 4.440863156493131 9.726825314745916 0.0199558742966366 0.45908383918403517 0.700463117730613
Ni 5.056528925974518 7.480467810777143 11.33802762508902 -1.5134526221974323 0.03327418867209753 0.7411906773569622
P 3.0333674480531103 6.858823180885069 2.514817563045074 0.008028012510799078 -0.8401724926395143 -0.4321510193489332
P 4.256256614676721 1.6108969086770633 13.365779354637457 0.10528204646896708 -0.9902647534446365 -0.395960428360989
P 7.214556148684534 8.425376874849533 12.231662425157902 0.11298147199575381 0.4835100905471995 0.6908824160207133
Ni 6.325136076139726 5.712026084951179 1.5481253330103508 1.2257119827774954 -0.2656664332287167 -0.3444316643540778
Ni 1.0101598369495217 8.833489457697567 5.881231525228207 1.2054254646143174 -0.7033574085592725 0.38503401125647235
Ni 3.5454642235376364 4.819284423289324 12.065886525644228 0.04504701293730951 1.3048446245446044 -1.4018232933541985
Ni 9.298235134991279 7.491152255770316 13.36093075719021 -1.8468655668435032 -1.8371241711860233 -0.9097342028887366
Ni 1.929529571366383 4.751690084757386 3.176978198855992 0.6951735871968996 1.2852422769326446 -0.9163259971736414
Ni 5.962473904376641 4.447201855724831 3.4367698330004406 1.9260087501335732 -0.7125187633435665 2.5631790213428114
Ni 6.8740840375506185 0.24031974060939443 8.064725187165905 0.34183510727149513 -0.5035014460674619 2.517687207558599
Ni 1.2619824252039842 2.0210301249046343 3.14251578910297 0.7378880953462905 -1.1133632592697342 -0.36133589630858415
Ni 1.2611428012882857 1.3247604595162021 7.775372332543369 -0.7381776015622512 0.5599453879878035 0.45984025773408543
Ni 8.652204504998204 4.704385119748753 3.879772941532138 0.0262897869344644 -1.6510547209553434 -2.1585076954713855
Ni 0.10063215561920436 8.585200671198187 8.310743298438325 -0.9821886613047215 -0.665642667617318 0.2537316294643437
Ni 9.095968811035894 8.93319249102764 3.9482788717439776 -1.479507375600239 0.1993826223998179 -1.0981294730391153
Ni 7.413630056432977 3.53515807063835 1.7448261498673923 0.7891309526816668 0.9297124457828763 -0.6612707638018676
Ni 0.5406513699274201 3.58962290552151 1.7230171493230373 0.8136356226912504 -1.4536467057833933 -0.9347991162771643
Ni 4.159432291914754 5.853285888790106 4.212351665194844 -0.3685771512520298 0.13491915260910958 0.46699846604542156
Ni 2.621545757357706 8.106467413067126 10.001134138659152 -0.14706658660492092 0.4411264833746661 0.14077895382399624
Ni 2.3031806671250377 8.721856383455426 3.4719888269412347 -0.8141436726759206 -0.3252661471692205 0.13787977789933029
Ni 6.4542720797014255 1.8379736580095136 12.485323882054109 -0.8751338392060476 -0.8411114595140159 1.4619624247379404
Ni 4.336574484854242 6.469717469095702 0.5252696443245545 -1.0570388736463925 -0.5677779966583447 -0.44654893994181805
Ni 2.205138428353487 7.622235079620062 7.76652675619194 0.432494518731281 0.3060870031376083 0.8659850828272442
Ni 8.978015490834924 5.239742245689055 10.044617430855894 -0.4155630330832649 -1.4934165294821635 -0.693370729660206
Ni 4.833558029856197 2.6429884604355416 8.655421833123524 0.7087356421520503 -0.40251699853258416 -0.7323741075065967
Ni 8.692414186587365 2.4149521409137216 11.733441588209846 1.1796887219698458 0.12023481112405743 0.5995758578952319
Ni 1.8987864187608112 1.317600589641675 0.515269815754951 0.9686232639154608 0.748140626312234 0.5981635509287375
Ni 7.30191394246291 8.235455790445846 1.2833282485992394 0.7345117226748898 -0.8696733303121086 -0.3360578384680858
P 0.3882882318011153 0.21737770911066873 1.5910282697752511 -0.27055847121369536 0.6544961640821954 0.9419215862545585
Ni 3.0447254375061292 0.4503041459436993 6.73474521941772 -1.108134663880943 -0.3872068505380751 0.0702502516758145
P 8.084674097804713 3.0047925550100563 5.081976911929328 -0.5760091263188855 -0.5706424626903333 0.6964192866785426
Ni 4.311847099205103 2.569193822218446 11.106607897986027 0.9601293675118369 0.5993830251581355 0.23431440127999648
P 2.916161485403477 6.990145897282157 11.999526711067459 0.6172627336520337 -1.153973833702245 -1.7717214774104972
P 0.973262517840974 3.7354498943963783 13.103636773529056 -0.3015163530477904 0.13648418310338428 -0.05580399434349744
P 8.108857111904113 1.9509630478077824 9.10073344609157 -0.6765677991702541 1.0499539417751529 -0.7982701959787736
Ni 7.55634766882883 0.24485924573602746 10.281439353592306 1.3053827564362617 -0.37312311875149934 1.4213281961563458
Ni 1.6328747566682011 5.411616029223445 8.217456468086016 -0.32465319617556987 -1.312331934060585 1.2165562844201563
Ni 4.022647406747407 5.486591676904381 7.207483931856151 -0.11048698770867423 0.7538523319850307 0.7546609439292551
Ni 3.4254256835020755 1.29175678098375 2.4783428238853062 1.1852273923998877 0.6365056410420458 -0.2693503098382071
Ni 6.634348343027639 5.605615286931954 10.816255798637446 -0.09128136131450085 -0.3929483810075426 -1.6710735872794318
Ni 8.260626054643925 7.45538058630699 6.11775542760773 -0.32324166054002396 0.37797633307874257 0.5511861537379347
Ni 0.6623027260120365 2.9383423193962126 9.725812230065218 0.2581194741193942 0.1290542091879003 -0.13143659337714783
Ni 2.2009034022292506 2.4398548326551497 11.851927285333188 -1.9956979870995952 0.4259212363891374 -0.9511649592296975
Ni 5.879664842361333 9.311890556916921 6.146425355006078 0.2627124928067153 -0.22922464546191493 -0.353843701696597
Ni 0.7065490610420542 7.417440657281146 2.096648869145176 0.9179740743000255 -0.5251465351410634 0.5874073408534981
Ni 5.374266604929522 0.5618292685395356 10.782454938716901 -0.6618317785116602 -0.7015236977846434 -0.36729211389201905
Ni 0.6167452859444282 6.532181797769087 4.5576114779755255 0.4912593954753152 1.1780861533694162 -1.211800772013042
Ni 0.8428366305054877 0.49159057600496925 10.498315133680846 -0.1027417965456166 1.4421942409720774 -0.3960591587223824
Ni 6.484387821029333 6.492811740095625 12.858470280799702 1.3059933934370669 1.0651530181130944 1.3038614346957287
Ni 8.016876773271177 4.988851547714654 6.100821781756288 -0.38613830006424466 0.6427269393614092 0.4760279232375414
Ni 5.095373065371113 8.589712496415512 0.4911098682466408 -0.29425015840368035 1.9556366003023353 -1.2930484032406249
Ni 3.264660770236925 3.4821141377663714 0.2589898394381382 -0.3540943842548224 -0.8323100591723019 1.9569280654202492
Ni 3.369678346154277 5.9419077317602484 9.848915858724897 1.003012282918292 0.2230313721670094 0.29836829433711193
Ni 6.927312503151322 2.133410556698111 6.896078493487343 -1.3036148659025613 3.899329655089548 0.29321040428525635
Ni 7.03089072378462 4.111278476353987 8.33216016693414 -0.4265817527912718 0.3204360727704288 0.7328196796844476
Ni 2.6622629039508596 6.846745513790022 5.702180341210061 0.20586668746226483 -0.5253771630946307 -1.2061839400468968
Ni 4.516106376630717 2.0767959155253055 6.312754852705928 1.8565596542028153 0.7443701035262084 -0.7996377657502616
Ni 0.13959624128947123 0.43726598599564 12.830732243681416 -0.3272443539415138 -0.24092830705208826 -1.3469083864838738
Ni 6.122915885366523 6.888948148849411 5.317043005751923 -0.9843938964861564 -0.4494949099440194 -0.9030614188542512
Ni 2.7635436921115324 3.3376342378111947 6.763792516246308 -0.330191866605612 0.1041852138603625 1.2708065611232888
P 2.980055942724481 1.411333989197498 4.830354541685532 -0.674426070236903 0.5044717804005312 -1.6181245458862261
Ni 3.749151449504203 3.319190191575139 4.064941385507516 0.12155918636243582 -0.2928154828396828 0.6817022921833421
P 6.6927529516690765 8.722520701278835 4.201669988192601 0.6919100859542794 0.25590421163563026 -0.8408191250845778
Ni 7.868872298197355 6.747974370740009 3.217557868566246 -1.4572069123308258 0.9332322860106768 0.5289391694142762
P 0.7118968195205024 6.185241814493365 6.644794740800757 -0.7585109138029646 0.5513417054791924 -1.064566035261373
P 4.323906313027276 7.875635422705123 6.806479549718602 0.6638122992767987 -1.9600869227642053 1.920758043257595
P 8.102638358946084 6.923188196664321 9.19907093722908 -1.9200443050200222 0.7553690257398733 -0.7795404807797542
Ni 9.218433956454186 3.3510497671894965 7.326698533257955 0.130079308018305 -0.1381227471480718 0.23551304957378794
