# total energy = -340860.8303719011 ev
CRYSTAL
PRIMVEC
9.36955982290781 0.00000000000000 0.00000000000000

0.00000000000000 9.36955982290781 0.00000000000000

0.00000000000000 0.00000000000000 13.71329789044505

PRIMCOORD
 96 1
Ni 4.120919787603695 8.686406448205934 8.814688839138583 0.9816826682025804 0.6234349239010166 -0.4998237401055586
Ni 8.240621532434464 7.239737046801274 2.7640107690039164 -1.9227167096458628 -2.300466785646412 -1.9385513626852742
Ni 5.365562740778828 5.318461963705745 11.578342627914434 -0.07191195564895357 -1.4731176700238113 -0.15544812580039682
Ni 8.339039388486915 7.603022988606462 10.861494473455926 -0.8281638982144125 -0.58882710401916 -0.08959703163354246
Ni 5.034508084657229 6.445535680614107 8.719682439806304 0.02206083645478136 -1.4802720216804055 0.6174637939192462
Ni 3.3230642930977488 8.812295853567772 11.099693981173427 0.9605733970277909 0.554218255696039 1.4530489242983942
Ni 7.466199306967663 4.206079716550832 5.909101210813517 2.263072404158354 0.8876376281000132 -1.4321026610640304
Ni 0.11373802326792781 6.048819149471985 4.72638448916994 -1.1717339858991433 -1.295364452968311 -0.2175541511025221
Ni 1.5690545914043872 3.656020969857071 11.458832018858814 -0.2658772636879421 -0.2991275411006397 -1.0867785668026704
Ni 0.9060898383522047 0.42385546107890076 5.500238919313361 -0.4691592211421662 -0.5281578111635614 -0.7367758361187182
Ni 5.173992721276884 3.6548404053233114 9.290717756961817 0.9913204484026604 0.12268892909150483 0.35966185104027093
Ni 8.804060010510831 0.03492409716773683 1.5500418806749854 -2.5052618373110533 0.9343581720850037 1.941130179156044
Ni 3.3463195405008515 9.1940304586029 4.602443015288805 1.6297724145377996 0.16331210192950582 0.061380974210642675
Ni 2.4753814796193225 1.8136188410884206 3.686312756663771 -0.9167885386323565 0.12344123387649708 -0.061661481565538974
Ni 0.9815082359838685 7.753479379742245 0.7499789178821056 0.9135695174744266 -0.6039881280303147 0.37375098214348534
Ni 3.8136357046737444 0.8837321947771514 6.844499032194289 -2.2611715875912153 -1.3367849248966268 -0.9412484714469338
Ni 2.5259396242555594 5.1203051436702065 6.868249929310374 1.993056692822006 -1.2521040996177792 1.8234484734711436
Ni 6.345712390592895 0.05305325840877723 3.307771297605669 0.9667633278885867 1.072257747478676 0.12949566760069312
Ni 8.781479371412734 5.877674770316037 8.527710466189294 0.6161918691853582 1.6115265809537345 0.6610396216276679
Ni 1.771727539259545 6.529440088549151 2.8956043623669654 0.46562755383982385 0.3298740782548771 0.38950978763963884
Ni 6.027044292515978 8.249091614486197 11.580427354968096 -0.17878757185728564 0.03379766527573534 0.458777620797526
Ni 0.17581604166811035 5.113315452065567 12.683209551160388 1.4255419771273772 -0.3073555854373868 -0.16416056597273018
Ni 0.8359643050468955 8.573671904791702 11.480704319236654 1.4610468549022064 1.1121764380504846 0.4913776662207345
Ni 7.9251953020454895 2.6500956610559245 0.4699049735433513 0.4437441235031713 0.6384036293957069 0.35852388078108577
P 4.305462637261833 1.8868044726217126 4.7665227463617805 0.012455452154533388 -0.5104346828521854 0.16564332116584377
P 2.8022104642748458 8.741986676890544 13.456900014007454 -1.1129179442021992 0.3924549863108918 -0.7152837276832132
P 3.1236425824903256 4.3657182762825215 9.669876670010193 -0.6099134923758142 1.0776380379539827 -0.9437398704102198
P 0.9246434406518108 6.668371921141092 10.55459079465352 0.31400214421962697 -1.0960108840342158 -0.47695403459623664
P 7.602076663067497 8.867669951936964 13.297757103988749 -0.023337646284675936 0.9232440644497132 -1.131297989371284
P 0.9070239834634413 1.564351072388933 9.761920414536325 -1.9768975665636404 -0.38861761484267265 -0.038177025290353606
P 2.8839411343382055 5.634843889193476 4.899185406497067 0.25327011644689285 0.06373584759606442 -1.0437411280962219
P 4.260395054663557 6.8759264096477475 11.012779133677299 -1.506292099893251 1.7705788791656218 -1.4910732260609676
Ni 5.457834165607897 9.323883187756644 0.16211212351670942 0.5919108851508065 -0.5774193764028507 1.0452516512034773
Ni 0.2703511521428642 0.3972899482013765 13.376101615143373 0.2767877399528588 2.0121504762286637 -2.5082278619179124
Ni 6.587765598252742 5.338765799774449 2.2869390191758616 -0.35841589444831173 -0.28778691927683986 -0.5959269482887349
Ni 8.437832026931035 1.828685093233541 7.11503476466505 0.02318389431563104 -0.4611762029366896 -0.7634386901218851
Ni 1.6080319601380313 1.413098268670852 7.407882229867885 -1.9357951400963755 -2.997124413588006 4.7642682989301495
Ni 3.9363769379455564 3.386796038801174 11.473779277594579 0.523200467158286 0.044524050554303966 -0.47682445099690784
Ni 2.2287746659006897 6.572034107362408 12.50411416356517 -2.4671748006313443 1.5244068072160908 -1.9573566683172352
Ni 7.81984397174715 0.7144673493154265 11.169768918855862 0.4709687635470792 0.09484233919288182 0.3523691740335996
Ni 4.422179243587555 4.07074579491892 5.274257317564287 -0.29669450617911486 1.007253574693149 1.5300308382710877
Ni 2.8094906122330285 2.1981549445012787 9.64065394997573 2.0865702859011352 -0.5244459095296129 -0.37211627475353976
Ni 6.836827236636811 2.9280061740387655 11.853568762016941 1.3401057617397436 -0.04892757893863831 -1.3301316812461672
Ni 4.549427235119195 8.373528738080315 2.2766128273293833 -1.0658940100441772 -1.0736263456914283 -0.667987770810727
Ni 0.38189576146354537 8.51414709143477 3.3867594975179864 1.9450433981675213 0.8229517578858536 2.1680968818217177
Ni 2.5805922665207865 6.718152392314614 8.79802695096093 -0.4589444853926935 -0.6562583981889408 0.5168022769414261
Ni 2.33897005861136 1.4674323459031602 12.49452816694224 0.5084878435384598 -0.6141038763080778 -1.3076103602151996
Ni 4.312077546474803 1.4411038828883669 2.2508184292227194 0.8053463860992647 -0.21993807795366638 -0.48675096608200047
Ni 9.24967627420605 7.41501340182538 6.712988827913386 0.8093855891656448 0.9604530693998428 -0.038153885361902035
Ni 2.8326709031577972 3.8471787287281787 1.94394192214371 0.6240805279048154 -0.9234926901254097 0.2758480017474088
Ni 5.193162840610786 3.47845844224378 3.285116638985217 0.6504127380414412 -0.6756512008932558 -1.2106026379398829
Ni 8.944209885875699 0.09162586215941816 8.812754961997568 -0.765251832071224 -0.16652006734384223 0.4228058306886073
Ni 5.835371207856325 1.2546871212718802 7.540929041954634 0.7398722156558548 0.4264861077536719 0.7396801542497067
Ni 4.03813972684366 5.4989946417730176 3.1710497441685996 1.0862298933880519 0.8345829143668788 -0.6434946707653691
Ni 9.214137533915975 2.6809027736511704 5.1305694964220585 0.45677113189045854 0.0352829915720102 -1.1435354119777403
Ni 0.706630649505614 2.816311651761416 2.5585035293117566 -1.2934813770129854 -0.13023511686987893 -0.4837042088358766
P 2.331792975810886 8.306124124938528 7.08921319483499 0.42641565952705274 1.107692177026886 0.942358673791977
P 7.159599201902509 6.048856627711152 4.269209936515628 0.29932705870595544 -0.4960565597536425 1.1805163600774637
P 9.20925599326448 2.5589298442822805 12.324771419591448 -1.1720546024633556 -0.39230046301089855 -0.7369977223215372
P 3.6934242525457024 2.8876889582549023 -0.012804440411393772 0.406155623726436 -3.131996257898948 1.2054594031760466
P 8.549264201534216 0.8731052400613583 3.8581130050051406 -0.7289684242591574 0.6728816085679185 0.2910388505552343
P 1.5079369528828581 3.899845024317557 4.222036076876168 -0.4974459839020014 -0.31927290570026307 -0.5861531567314228
P 7.579570980447734 8.692318640434523 7.328152897776041 -1.354726339866396 -0.2746616947487915 -1.5800971587998591
P 0.5418856796874254 5.284038201030886 6.808474011751022 -2.8489093152009386 -0.38643500536905706 0.04665523796469384
Ni 4.929428471592851 1.5381818918905994 12.458297953139533 0.39075343023875286 -0.21205584699211225 -1.024862546024164
Ni 6.672635070846335 6.377062937656061 6.686178769525297 0.36616417093516296 1.3132549600954868 0.07271388272495864
Ni 6.791750284478743 7.926179105823622 9.200868363338913 -0.20102247199608608 0.2650851068039499 -0.7481162008322019
Ni 0.8444578109981089 3.5127791397609287 8.711523427139657 0.7924134800876804 0.23243209665561906 -1.0067408967227889
Ni 5.686498272325346 3.962480531525348 13.463715431799969 -0.4803424914524953 0.25539179077558594 2.1572733088436524
Ni 3.996023555579782 3.0323830701187644 7.411818381936396 0.4344344160664712 1.1264509456916276 0.8608629311093304
Ni 8.803666488999578 4.362382712996662 10.295450320801473 -0.7206154243087719 0.551636868122108 2.7884513670251976
Ni 2.2341809019005243 1.0371259429076454 1.0950176419928779 0.026892453515469813 -0.8444618640434876 1.284593330494736
Ni 1.2093197127602684 3.0500446903261973 0.24218250758497292 -0.5577648353967168 0.11975632882574216 -0.35791787176597073
Ni 7.593278646423052 8.131719138975052 4.981369563254348 0.815728243554221 0.6278639062066478 0.41089905194869236
Ni 5.311359837383605 7.279051719687421 4.267523415753114 0.6139953757546717 -0.2141834348580763 -0.31568056036331443
Ni 7.655398827842297 3.928787594514246 8.383089436891808 -1.4346429109873808 -1.364160488696102 -0.6842463987614344
Ni 1.0057847654042704 5.210833830378011 1.260313541926821 -1.380557699107203 -0.027798253159190833 -0.5904217021997896
Ni 6.295856962941039 2.319903004435166 5.359088374962735 0.4166719498767275 -1.082311275059936 -0.072478626785701
Ni 4.316087718065668 6.856016095090297 6.351560869814899 -1.3863547654049544 0.45473918906209426 0.5519996507781655
Ni 6.744733833443785 7.190031532106086 0.4684789265430483 -0.8535669116685494 -0.5691005721245103 1.1602131297437375
Ni 7.74624607958302 3.195975584082569 3.1924282687454157 -0.2998232816160836 -0.5488161108438613 0.052118060851477986
Ni 4.226795813250373 7.135978541667529 13.234594090564682 2.1932764664111386 0.9539142398400604 0.3864321771555796
Ni 1.8337727642004564 9.011511433859777 9.329265999856998 -0.06841037025359831 -0.2028474410199668 -0.9422404030465579
Ni 2.990697898605307 4.669132731018483 13.276405751135329 -0.1506072527683277 2.2424794104983508 0.8331376972799199
Ni 7.4465513400843815 5.850980894469366 12.31425315176924 -0.5270082709401505 0.07777021420194348 -1.1615004810965932
Ni 2.222422104361889 2.708814692270767 6.06636552409398 0.6296603359854381 3.1713269371777706 -4.174012689994579
Ni 5.545636310416306 9.023748078947792 5.946455771791231 1.030085227875684 -0.7456844514622576 -0.4476611991693903
Ni 1.9397987028038017 7.493783290994549 5.104870667825271 -0.4000844778316916 0.36465184805569456 0.9390424649345505
P 4.8057877605810315 1.2378406527663293 10.084526538593709 0.0869829910494631 -0.2510903351867546 0.3163852997398228
P 5.767132703893072 4.439662842158945 7.035525617228312 -1.3904374201147602 -0.15678407100300093 1.497380399225918
P 2.3706391707074457 8.664069417662423 2.744744143204158 0.8679900290724148 0.5263822073203773 -0.7374949736729298
P 6.888837663040767 5.774572134367714 10.083909084603434 0.8696023678648572 -0.1167738491586505 -0.9875265285778669
P 4.669975991399739 5.919238137552202 1.168887251390967 0.3439845495143301 -0.4769679185533076 0.13838654233241973
P 8.147047738794342 5.467297420997556 0.5572536316578395 0.37604157794987497 -0.0924535272457311 1.9604885290779979
P 6.269603456404579 2.340525405536789 1.816477493780881 0.06122619380033327 -0.5147885889455069 -0.36332721570700005
P 7.328963364698026 1.7253294791708416 8.845434112639204 0.8160151786670203 0.9769130147280789 3.4914943296678453
