# total energy = -340887.0519660328 ev
CRYSTAL
PRIMVEC
9.14324009208765 0.00000000000000 0.00000000000000
0.00000000000000 9.14324009208765 0.00000000000000
0.00000000000000 0.00000000000000 13.38205608764131
PRIMCOORD
 96 1
Ni 6.748159304760744 1.9702219766263003 11.426684010577699 -1.0402835085649245 0.2507015843887683 0.07867164297029032
Ni 4.592174116484779 0.6224699658643945 5.870092801380826 0.270715822727166 -0.4021729849296041 0.014175777279749781
Ni 2.6320462770667885 1.7165427765859411 4.617451518410588 0.7327767422616541 -0.6512326628395753 -0.7476477458362156
Ni 4.051415459862435 4.560867661954658 5.21358255215906 -0.4754365695104458 2.0425846243488044 -1.437162849195757
Ni 4.156123846918199 2.972796553769044 2.34358619121084 -0.6840741348496283 -2.0174993992454024 -0.505465254662052
Ni 5.413145656280195 4.895034805694973 2.910409482742359 -0.47725845321053284 -0.4663682886605904 -0.6972114435625347
Ni 5.366761998619184 4.742598704665135 11.533766897119873 1.3512270684638858 0.42836532705425584 -1.2135995157846777
Ni 5.883208779483471 8.324618497860712 12.391838048451918 0.606449959307246 -0.4401602628066549 -0.5333241858558493
Ni 2.2224474014708973 6.335945462460527 0.38046485494321136 -0.32969255837169026 1.169992320617688 -0.6662941851583879
Ni 2.8334992889424133 1.8985115435422657 -0.13184643836734472 0.13414062257187218 -1.1125654459587873 0.012736216619745808
Ni 7.981143535571431 8.999773642549131 6.812108955541868 -0.6596805364966124 -0.15699361591064573 1.7187924906219494
Ni 8.655923807410629 2.423370105413477 1.6636710756613284 0.5579597250163423 0.3537470282177327 -0.19796311634447197
Ni 7.114565513534122 0.8321345217860192 4.761348747394375 -1.432321719053372 0.282360606054946 0.12649390465989183
Ni 0.6940231352165604 7.281210209873483 2.0150567693932095 -0.39682586168507783 0.13416401961063992 0.6645337508238555
Ni 7.715770131283401 4.125411703002698 3.664114204203051 0.2755929483138092 -0.5954368960261939 0.09830870047492746
Ni 7.7466651400034 4.023190277288111 12.70545941708282 -0.39530891081991915 0.21879779370163607 0.2776596010348508
Ni 8.52914363845191 7.471225028227736 8.984872903954582 -0.5978958990896477 -0.744021461937538 0.9112701799172885
Ni 7.213531945728637 0.7806992239007411 0.5343913041297114 0.13253471153733307 -0.4031849711338863 -0.5854221921026692
Ni 1.8640323846540987 6.7579334285611825 9.181642748187004 0.6245836927934791 0.24801092493048252 -0.8114409290327768
Ni 0.33122576335995874 4.789357235175367 1.4213084640473512 -0.5780148438950046 0.5866568358407187 0.503943418700887
Ni 6.679914159721954 1.9552179194172092 6.922925941391901 -0.19970555295687542 -0.34309314804831237 0.03991457680675062
Ni 3.2281123938096634 4.291882677777786 13.452847073872114 0.9582432062327174 -1.4926390278861907 -0.1133339702391661
Ni 6.30148459005281 5.77023490326438 4.849055279251904 0.2276156491035822 0.5585521071847025 1.2521454943786758
Ni 5.760972800916537 3.3769826311517837 8.77023808264669 0.031566204842055315 0.53626887030647 1.3868882693109212
P 0.41713564851329127 5.694346009397559 12.63561877662478 0.04245688361263011 -0.44013635154725494 -0.63988509903724
P 4.203238963797203 6.065506703087892 12.65613346471743 -0.6992338733092022 1.6736642308247434 0.1741619001598162
P 2.4356037608344177 8.462809430620128 1.226743969357179 0.10926597081737957 0.34256375790740357 -0.87878969079108
P 6.425256632977529 7.98675748506953 5.583702745111799 -0.95966425494996 -0.11242534238196766 1.2984682887046153
P 4.760857755394296 1.1892521128149014 12.265578129861998 0.4516929460366027 0.5629363522953273 0.14435612965229333
P 3.87613954475075 6.5648099085304565 7.940229364212966 -0.8442680028651266 -0.5907232926006084 1.2152668761847716
P 4.574289938604838 0.8840589830233303 3.489117157918227 0.46553627967759825 0.7782153342104275 0.12418094025599903
P 0.3891710482853786 5.744268101025612 3.5135524674193213 -0.9491777535963395 -0.4551089136966871 -0.7758424631028767
Ni 0.3695176534219166 0.3600105122360466 5.277334708951326 2.2587380384490583 -0.7250377217461835 -0.19503540117471574
Ni 1.5191676498506295 7.001454488711657 4.811103517726313 1.3753810400022701 0.0687628684970106 -1.9636291315895085
Ni 6.4525034888477855 5.635646407153582 9.272520155754533 0.7068091145532989 0.7854733013244214 0.4947211287716705
Ni 8.638167634893836 2.4114930363613083 9.977527065453287 1.0948644291345984 -0.28854128094436116 0.10208359413632741
Ni 2.3246322542245847 5.587434101447588 6.726396564377394 -0.7428361833801852 -0.7389761862041467 0.39732054193330923
Ni 0.8170161740741168 0.10817733239709867 8.953867262027861 -0.17129074925960824 0.020996656856325128 -0.7049432649891536
Ni 1.239375355727904 1.0219673896597958 11.220626462924804 0.11615112797298707 1.7849130364001067 0.9267271379023071
Ni 4.296838313979692 7.204928156676989 1.3964708519763604 1.1094101881592568 -0.33091640347646234 -0.8887077212357405
Ni 5.401844611362196 8.03819735457492 8.11083765518983 1.9911527909310742 0.11681190148543753 -0.8405401603915783
Ni 5.3029787548101535 2.81652029184474 4.645634642079876 0.3076625751548443 -1.2636910331244302 -0.23353278591896554
Ni 0.7473775992250488 7.527236517845585 6.7819454060398625 -0.3344295588360434 0.9868392727028553 2.207671044569914
Ni 5.452114146118797 5.212360100940988 7.207722330889724 -0.21817352985407587 -0.20263609634010912 -0.5525835483060935
Ni 1.1578907988434317 7.566817604779257 11.403800308942772 -0.8639084028038735 -0.43676460686154456 0.49724286675225976
Ni 4.808878053055568 0.26106510949404793 10.119725480403288 -0.5360379852425865 -0.13824616009981353 0.8214893144077143
Ni 8.228998491588516 7.4580221893429535 4.570815507319369 0.8509335878107605 0.01491239833545819 0.9005044567603524
Ni 7.489502365437347 6.512894590533371 7.037744009164357 -0.6852642985029875 0.17947739883545866 -0.6393919614509053
Ni 2.774781400217988 4.725089399634417 2.3000808255726333 -0.17122904278373735 1.813396231441464 0.8428572385605291
Ni 2.429349784520574 5.271809448883407 11.37426581436824 0.04761811609859541 0.46237176590668755 -0.1462937129946384
Ni 1.1059937673267952 3.629363491080204 3.6423679216521054 -0.3545330144541378 -1.054692484901403 0.5512198351893474
Ni 1.314331639091784 0.2806609019440929 2.941871372356303 -0.40310423849462185 1.2972467575926883 -0.770420263646041
Ni 1.2366872431017777 3.6593990352190606 8.368696230336997 0.9064521897033551 -0.27826175339522397 -0.9495281949572227
Ni 4.050062260309146 3.1258818248548517 6.969803334025057 0.16311412698608682 -0.9141019929391289 1.0419128166382314
Ni 4.1617743693771985 7.116796464149002 5.863147596105978 0.5100978683380569 0.6510544853904981 -1.0892643093390015
Ni 0.6736081084423627 9.094442751837935 -0.02329697609309189 0.9307812533670228 1.0530492928710251 0.7059920179686422
P 0.22736678332108895 5.666431696990882 7.724938972580949 0.9239048379621637 0.14376914680057176 1.3152457652732703
P 9.05297815741793 1.7218824288772936 7.940698412436504 -0.7023803893579839 0.7157583533267867 -1.6722758351176492
P 1.7559409987151144 3.4152836644539666 10.483971141511514 0.8591084103120689 -1.0606507593673669 0.020080058579326706
P 3.906001367325333 6.222715575515138 3.6752744432215865 0.11116087384724728 -0.668523331599223 0.384291476663493
P 7.283477733449263 3.9574778097916234 10.442714098644615 -0.8715931730426408 1.4847567969246365 -0.2420829894818218
P 6.568375772218175 7.818860164819355 10.034293786713718 0.36971177907710523 -0.12491216199506874 1.0242735062899133
P 2.5036020383871356 8.726015886974851 5.788836825501976 -0.6290275874974457 1.3813886796489305 -0.7994421047996877
P 6.972433844237766 4.112208864117916 1.616993919989098 0.23036647237584196 -0.6919203703669244 -1.0085820636965854
Ni 5.450843235727533 3.0998144469736095 0.03515027272067601 0.09692184742972985 -0.5792158061816413 0.7069656947358213
Ni 2.0651470966414025 1.7158113173679477 7.069271730107921 -1.0664827926681117 -0.4594684762169636 -0.5679178646703187
Ni 7.090729086267759 0.6250273301553042 9.04103800000821 0.26411143003677096 0.2698038524358579 0.21067542170481782
Ni 2.932173137449732 1.8141285795064945 9.395488507863483 0.004291685396818416 -0.10557618067061816 -0.6234763186619133
Ni 6.376715170623438 2.0303113513844635 2.6125519745832397 0.5471569779738835 -0.1208891568786047 -0.4062088455618746
Ni 4.4575033312119565 6.823261879968224 10.152818524073355 -0.4677733965382331 0.27586522813858944 0.8413505721080156
Ni 8.424252386591647 7.320379850997033 0.054901500254544565 -0.5080522986629379 -0.3185347419826579 -0.26155189683971086
Ni 8.050677877481935 3.937454113699052 7.936147821776562 -1.093794593109187 -0.13314843386193198 -0.4024601771527198
Ni 3.530342199444339 8.492287237105264 12.272295668455245 -1.5995439546705614 -0.4658005890825784 0.40099130591667714
Ni 0.25340124553752136 5.076848137567474 10.031216172054009 -0.4375001994759885 -0.11067339268786747 0.19867814013362556
Ni 8.797625744416413 2.612296878180965 5.717095305401178 0.26641102470422506 0.5048947268705627 0.3714444454974958
Ni 4.055548204444097 3.0079523124338556 11.193902600395411 -1.1200756382929034 -1.0453742928242706 -0.1641888481075043
Ni 0.9196271018222851 3.5356361355345665 12.829819370354 1.5270990093362733 -0.6387085622306354 -0.8243869476704835
Ni 3.1918868760385375 8.74240971669813 7.811895758740035 -0.569374137500871 0.26391499775524874 1.2184362750516886
Ni 5.652506542128332 7.850797502924995 3.5244859540802786 -0.7653546761976754 1.2072296077025917 -0.08704469752533396
Ni 3.1542532992727734 8.120852246208182 3.2872353280760533 0.6446766068886123 1.2756384352942935 1.1684758839731617
Ni 3.441881350268254 4.74143751315657 9.020844239647456 0.5380946106612992 -0.9029637169341223 0.48953572791598915
Ni 7.7144992208921375 6.165213737740626 11.383473057274733 -0.5167696239312778 0.6042313543893723 -0.20558669432800075
Ni 8.036761865859608 9.057604636971739 2.7791582693136565 -0.5241558890930199 -0.8149530559510934 -1.6722755780073326
Ni 4.788324049029951 0.7244801827297858 1.0854105049324592 -0.3515374221609236 -0.752719246821852 0.20341462637734645
Ni 6.15367496857678 5.67178049252246 0.25130927217406007 0.3027707942801818 1.044605018758414 0.7348811901991665
Ni 8.134941979394782 9.085701814182913 11.318529536281162 0.22625116465588777 -0.6318545154232795 0.025739056637316963
Ni 9.008505436963928 5.110796988522596 5.572194148640694 0.15009586034954794 -0.310961043400458 0.21508692050895215
Ni 7.353716104857085 6.561079466518691 2.6602458585684814 0.846216127730433 -1.6482455336413226 -1.7982269799001935
P 8.90875268611007 1.6243057691969653 3.6985193028453964 -0.6169035505404021 1.521682209196076 0.04019071328627272
P 1.8849155453278124 2.715021182107922 1.6461800571110599 0.26149250435668514 0.9192940786630296 0.10193729836645024
P 5.069935847957436 1.4801808735315778 8.31465968060773 -1.286424984386836 -1.6578650590089574 -0.6105950918238711
P 8.602920443826775 1.948067905561323 12.683312660610023 0.19657806307148726 -1.6684952850292942 -0.5413270015556677
P 6.64395379591735 7.84798138493572 1.0391612529027547 -1.2958154244628006 0.3863280474775476 1.3073007993945807
P 2.170970959004607 3.563376726376969 5.744180325919453 -0.8680537924308147 -0.23597713369440004 0.3170363030602604
P 6.688655097376976 3.8553569597195105 5.945473331091142 1.1507913222092052 0.8321974448538377 -0.4811639589125262
P 2.499313858721649 8.751699248766647 10.150878328497628 1.6315277066660097 -0.2911846321044792 0.31830488536003887
